0:0:0
     RDKit          3D

 65 71  0  0  1  0  0  0  0  0999 V2000
    4.9447   -3.3884   -2.0653 C   0  0  0  0  0  0  0  0  0  0  0  0
    5.0637   -3.0830   -0.5866 C   0  0  0  0  0  0  0  0  0  0  0  0
    5.3563   -1.7492   -0.1745 C   0  0  0  0  0  0  0  0  0  0  0  0
    5.4697   -1.4323    1.1889 C   0  0  0  0  0  0  0  0  0  0  0  0
    5.2841   -2.4452    2.1490 C   0  0  0  0  0  0  0  0  0  0  0  0
    4.9893   -3.7697    1.7333 C   0  0  0  0  0  0  0  0  0  0  0  0
    4.8736   -4.1233    0.3647 C   0  0  0  0  0  0  0  0  0  0  0  0
    4.5673   -5.5339    0.2956 C   0  0  0  0  0  0  0  0  0  0  0  0
    4.5089   -5.9724    1.5990 C   0  0  0  0  0  0  0  0  0  0  0  0
    4.7569   -4.9180    2.4660 N   0  0  0  0  0  0  0  0  0  0  0  0
    4.7454   -5.0265    3.9138 C   0  0  0  0  0  0  0  0  0  0  0  0
    4.5693   -6.4782    4.4128 C   0  0  1  0  0  0  0  0  0  0  0  0
    4.5161   -6.5488    5.9629 C   0  0  0  0  0  0  0  0  0  0  0  0
    3.1587   -6.5965    6.6900 C   0  0  0  0  0  0  0  0  0  0  0  0
    1.9673   -5.9111    6.0161 C   0  0  0  0  0  0  0  0  0  0  0  0
    1.3474   -6.7034    4.8463 C   0  0  2  0  0  0  0  0  0  0  0  0
    1.0765   -8.0636    5.1930 O   0  0  0  0  0  0  0  0  0  0  0  0
   -0.2550   -8.4308    4.5852 O   0  0  0  0  0  0  0  0  0  0  0  0
   -0.0372   -9.0878    3.3230 C   0  0  2  0  0  0  0  0  0  0  0  0
   -1.4325   -9.1358    2.6840 C   0  0  0  0  0  0  0  0  0  0  0  0
    0.5162  -10.5336    3.4066 C   0  0  0  0  0  0  0  0  0  0  0  0
    1.9062  -10.7343    4.0273 C   0  0  0  0  0  0  0  0  0  0  0  0
    3.0629  -10.0027    3.3114 C   0  0  0  0  0  0  0  0  0  0  0  0
    3.6566   -8.8173    4.1118 C   0  0  0  0  0  0  0  0  0  0  0  0
    3.5806   -7.3538    3.5479 C   0  0  2  0  0  0  0  0  0  0  0  0
    4.2144   -7.3363    2.1278 C   0  0  0  0  0  0  0  0  0  0  0  0
    2.1390   -6.6796    3.5483 C   0  0  1  0  0  0  0  0  0  0  0  0
    1.0354   -7.0257    2.5276 C   0  0  2  0  0  0  0  0  0  0  0  0
    1.2082   -6.4751    1.1012 C   0  0  0  0  0  0  0  0  0  0  0  0
   -0.1034   -6.3290    3.0137 O   0  0  0  0  0  0  0  0  0  0  0  0
    0.1835   -5.9720    4.4567 O   0  0  0  0  0  0  0  0  0  0  0  0
    0.8326   -8.4181    2.4055 O   0  0  0  0  0  0  0  0  0  0  0  0
    5.1131   -2.4920   -2.6636 H   0  0  0  0  0  0  0  0  0  0  0  0
    3.9487   -3.7636   -2.3126 H   0  0  0  0  0  0  0  0  0  0  0  0
    5.6845   -4.1290   -2.3753 H   0  0  0  0  0  0  0  0  0  0  0  0
    5.4746   -0.9661   -0.9161 H   0  0  0  0  0  0  0  0  0  0  0  0
    5.6900   -0.4145    1.5068 H   0  0  0  0  0  0  0  0  0  0  0  0
    5.3607   -2.2245    3.1978 H   0  0  0  0  0  0  0  0  0  0  0  0
    4.4124   -6.1032   -0.6087 H   0  0  0  0  0  0  0  0  0  0  0  0
    5.6779   -4.6109    4.2915 H   0  0  0  0  0  0  0  0  0  0  0  0
    3.9481   -4.3930    4.2915 H   0  0  0  0  0  0  0  0  0  0  0  0
    5.5534   -6.9014    4.2099 H   0  0  0  0  0  0  0  0  0  0  0  0
    5.0874   -7.4207    6.2908 H   0  0  0  0  0  0  0  0  0  0  0  0
    5.0887   -5.7055    6.3558 H   0  0  0  0  0  0  0  0  0  0  0  0
    2.8996   -7.6295    6.9266 H   0  0  0  0  0  0  0  0  0  0  0  0
    3.3158   -6.1331    7.6656 H   0  0  0  0  0  0  0  0  0  0  0  0
    1.2016   -5.7931    6.7790 H   0  0  0  0  0  0  0  0  0  0  0  0
    2.2259   -4.8960    5.7236 H   0  0  0  0  0  0  0  0  0  0  0  0
   -1.8814   -8.1475    2.6280 H   0  0  0  0  0  0  0  0  0  0  0  0
   -2.1059   -9.7565    3.2741 H   0  0  0  0  0  0  0  0  0  0  0  0
   -1.4042   -9.5621    1.6831 H   0  0  0  0  0  0  0  0  0  0  0  0
   -0.1869  -11.1617    3.9462 H   0  0  0  0  0  0  0  0  0  0  0  0
    0.5439  -10.9477    2.3968 H   0  0  0  0  0  0  0  0  0  0  0  0
    1.8644  -10.5026    5.0893 H   0  0  0  0  0  0  0  0  0  0  0  0
    2.1220  -11.8023    3.9913 H   0  0  0  0  0  0  0  0  0  0  0  0
    3.8645  -10.7312    3.1819 H   0  0  0  0  0  0  0  0  0  0  0  0
    2.7997   -9.7450    2.2879 H   0  0  0  0  0  0  0  0  0  0  0  0
    3.3041   -8.8646    5.1395 H   0  0  0  0  0  0  0  0  0  0  0  0
    4.7145   -9.0556    4.2242 H   0  0  0  0  0  0  0  0  0  0  0  0
    3.6116   -7.8893    1.4223 H   0  0  0  0  0  0  0  0  0  0  0  0
    5.1500   -7.8906    2.1535 H   0  0  0  0  0  0  0  0  0  0  0  0
    2.2947   -5.6274    3.3579 H   0  0  0  0  0  0  0  0  0  0  0  0
    0.2821   -6.5701    0.5324 H   0  0  0  0  0  0  0  0  0  0  0  0
    1.9424   -7.0382    0.5418 H   0  0  0  0  0  0  0  0  0  0  0  0
    1.5179   -5.4310    1.0784 H   0  0  0  0  0  0  0  0  0  0  0  0
  1  2  1  0
  1 33  1  0
  1 34  1  0
  1 35  1  0
  2  7  2  0
  2  3  1  0
  3  4  2  0
  3 36  1  0
  4  5  1  0
  4 37  1  0
  5  6  2  0
  5 38  1  0
  6 10  1  0
  6  7  1  0
  7  8  1  0
  8  9  2  0
  8 39  1  0
  9 26  1  0
  9 10  1  0
 10 11  1  0
 11 12  1  0
 11 40  1  0
 11 41  1  0
 12 25  1  0
 12 13  1  0
 12 42  1  6
 13 14  1  0
 13 43  1  0
 13 44  1  0
 14 15  1  0
 14 45  1  0
 14 46  1  0
 15 16  1  0
 15 47  1  0
 15 48  1  0
 16 27  1  0
 16 31  1  6
 16 17  1  0
 17 18  1  0
 18 19  1  0
 19 32  1  0
 19 20  1  6
 19 21  1  0
 20 49  1  0
 20 50  1  0
 20 51  1  0
 21 22  1  0
 21 52  1  0
 21 53  1  0
 22 23  1  0
 22 54  1  0
 22 55  1  0
 23 24  1  0
 23 56  1  0
 23 57  1  0
 25 24  1  1
 24 58  1  0
 24 59  1  0
 25 26  1  0
 25 27  1  0
 26 60  1  0
 26 61  1  0
 27 28  1  0
 27 62  1  6
 28 29  1  6
 28 30  1  0
 28 32  1  0
 29 63  1  0
 29 64  1  0
 29 65  1  0
 30 31  1  0
M  END
>  <i_m_ct_stereo_status>  (1) 
1

>  <s_m_source_file>  (1) 
/var/tmp/pbs.5076255.sched01/tmpyb5u0fxv/0ob_ovo1_.sdf

>  <i_m_source_file_index>  (1) 
1

>  <i_lp_mmshare_version>  (1) 
48012

>  <i_f3d_flags>  (1) 
0

>  <s_epik_input>  (1) 
W2NIXTFbY0hdW2NIXWMoW0NIM10pYyhbY0hdYzJbQ0gyXTMpYzFuMltDSDJdW0NAQEhdKFtDSDJdW0NIMl1bQ0gyXTQpW0NAXTMoW0NAQEhdNVtDQF00NjcpW0NIMl1bQ0gyXVtDSDJdW0NIMl1bQ0BdKE9PNikoW0NIM10pT1tDQEBdNShbQ0gzXSlPTzc=

>  <s_epik_cmdline>  (1) 
J2VwaWtfcHl0aG9uJywgJy1waHQnLCAnMi4wJywgJy1waCcsICc3LjAnLCAnLXRuJywgJzgnLCAnLW1hJywgJzIwMCcsICctaW1hZScsICc8aW5maWxlLm1hZT4nLCAnLW9tYWUnLCAnPG91dGZpbGUubWFlPic=

>  <r_lp_tautomer_probability>  (1) 
1

>  <r_epik_Ionization_Penalty>  (1) 
2.69154e-09

>  <r_epik_Ionization_Penalty_Charging>  (1) 
0

>  <r_epik_Ionization_Penalty_Neutral>  (1) 
2.69154e-09

>  <r_epik_State_Penalty>  (1) 
-0

>  <r_epik_Charging_Adjusted_Penalty>  (1) 
0

>  <i_epik_Tot_Q>  (1) 
0

>  <i_epik_Tot_abs_Q>  (1) 
0

>  <s_lp_Force_Field>  (1) 
OPLS3e

>  <r_lp_Energy>  (1) 
57.0007

>  <b_lp_Chiralities_Consistent>  (1) 
1

>  <s_lp_Variant>  (1) 
0:0-1

>  <s_i_glide_gridfile>  (1) 
pfpi4k_grid

>  <i_i_glide_lignum>  (1) 
1

>  <i_i_glide_rotatable_bonds>  (1) 
0

>  <r_i_docking_score>  (1) 
-2.66024

>  <r_i_glide_ligand_efficiency>  (1) 
-0.0831324

>  <r_i_glide_ligand_efficiency_sa>  (1) 
-0.263929

>  <r_i_glide_ligand_efficiency_ln>  (1) 
-0.5957

>  <r_i_glide_gscore>  (1) 
-2.66024

>  <r_i_glide_lipo>  (1) 
-0.580492

>  <r_i_glide_hbond>  (1) 
-0.139994

>  <r_i_glide_metal>  (1) 
-0

>  <r_i_glide_rewards>  (1) 
-0.422203

>  <r_i_glide_evdw>  (1) 
-26.2492

>  <r_i_glide_ecoul>  (1) 
-0.840358

>  <r_i_glide_erotb>  (1) 
0

>  <r_i_glide_esite>  (1) 
-0.0790352

>  <r_i_glide_emodel>  (1) 
-31.5927

>  <r_i_glide_energy>  (1) 
-27.0896

>  <r_i_glide_einternal>  (1) 
0

>  <r_i_glide_intrahb_reward>  (1) 
-0

>  <i_i_glide_confnum>  (1) 
1

>  <i_i_glide_posenum>  (1) 
20

>  <r_i_glide_eff_state_penalty>  (1) 
0

>  <ligand_id>  (1) 
0

>  <original_smiles>  (1) 
Cc1cccc2c1cc1n2CC2CCCC34OOC5(C)CCCCC2(C1)C3C(C)(OO4)O5

>  <smiles>  (1) 
[H]c1c([H])c([H])c2c(c([H])c3n2C([H])([H])C2([H])C([H])([H])C([H])([H])C([H])([H])C45OOC6(C([H])([H])[H])OC(C([H])([H])[H])(OO4)C5([H])C2(C3([H])[H])C([H])([H])C([H])([H])C([H])([H])C6([H])[H])c1C([H])([H])[H]

$$$$
0:0:1
     RDKit          3D

 65 71  0  0  1  0  0  0  0  0999 V2000
   -1.7139   -7.3075    3.0485 C   0  0  0  0  0  0  0  0  0  0  0  0
   -0.3351   -7.9251    3.0809 C   0  0  0  0  0  0  0  0  0  0  0  0
   -0.2092   -9.3380    3.0267 C   0  0  0  0  0  0  0  0  0  0  0  0
    1.0554   -9.9468    3.0591 C   0  0  0  0  0  0  0  0  0  0  0  0
    2.2060   -9.1441    3.1378 C   0  0  0  0  0  0  0  0  0  0  0  0
    2.0774   -7.7377    3.1899 C   0  0  0  0  0  0  0  0  0  0  0  0
    0.8101   -7.0926    3.1624 C   0  0  0  0  0  0  0  0  0  0  0  0
    1.0409   -5.6695    3.2354 C   0  0  0  0  0  0  0  0  0  0  0  0
    2.3983   -5.5037    3.2891 C   0  0  0  0  0  0  0  0  0  0  0  0
    3.0301   -6.7396    3.2632 N   0  0  0  0  0  0  0  0  0  0  0  0
    4.4692   -6.9303    3.2904 C   0  0  0  0  0  0  0  0  0  0  0  0
    5.2502   -5.6119    3.4924 C   0  0  1  0  0  0  0  0  0  0  0  0
    6.7861   -5.8552    3.4673 C   0  0  0  0  0  0  0  0  0  0  0  0
    7.5889   -5.6351    2.1714 C   0  0  0  0  0  0  0  0  0  0  0  0
    6.8573   -5.8358    0.8492 C   0  0  0  0  0  0  0  0  0  0  0  0
    5.8995   -4.6838    0.4462 C   0  0  2  0  0  0  0  0  0  0  0  0
    6.5470   -3.4075    0.5094 O   0  0  0  0  0  0  0  0  0  0  0  0
    6.0988   -2.5694   -0.6664 O   0  0  0  0  0  0  0  0  0  0  0  0
    4.9643   -1.7672   -0.3035 C   0  0  2  0  0  0  0  0  0  0  0  0
    4.4362   -1.2594   -1.6594 C   0  0  0  0  0  0  0  0  0  0  0  0
    5.3001   -0.5537    0.5918 C   0  0  0  0  0  0  0  0  0  0  0  0
    5.8569   -0.8467    1.9903 C   0  0  0  0  0  0  0  0  0  0  0  0
    4.9327   -1.6670    2.9226 C   0  0  0  0  0  0  0  0  0  0  0  0
    5.4185   -3.1048    3.1934 C   0  0  0  0  0  0  0  0  0  0  0  0
    4.6182   -4.3637    2.7549 C   0  0  2  0  0  0  0  0  0  0  0  0
    3.2006   -4.2463    3.3618 C   0  0  0  0  0  0  0  0  0  0  0  0
    4.5846   -4.6371    1.1925 C   0  0  1  0  0  0  0  0  0  0  0  0
    3.7426   -3.8099    0.2028 C   0  0  2  0  0  0  0  0  0  0  0  0
    2.2467   -4.1035    0.2235 C   0  0  0  0  0  0  0  0  0  0  0  0
    4.1585   -4.2336   -1.0671 O   0  0  0  0  0  0  0  0  0  0  0  0
    5.4099   -5.0194   -0.8368 O   0  0  0  0  0  0  0  0  0  0  0  0
    3.9037   -2.4242    0.3852 O   0  0  0  0  0  0  0  0  0  0  0  0
   -2.4844   -8.0780    2.9753 H   0  0  0  0  0  0  0  0  0  0  0  0
   -1.8089   -6.6669    2.1754 H   0  0  0  0  0  0  0  0  0  0  0  0
   -1.9097   -6.7279    3.9522 H   0  0  0  0  0  0  0  0  0  0  0  0
   -1.0964   -9.9563    2.9741 H   0  0  0  0  0  0  0  0  0  0  0  0
    1.1501  -11.0289    3.0240 H   0  0  0  0  0  0  0  0  0  0  0  0
    3.1839   -9.5951    3.1687 H   0  0  0  0  0  0  0  0  0  0  0  0
    0.2964   -4.8907    3.2504 H   0  0  0  0  0  0  0  0  0  0  0  0
    4.7049   -7.6306    4.0901 H   0  0  0  0  0  0  0  0  0  0  0  0
    4.7626   -7.4115    2.3583 H   0  0  0  0  0  0  0  0  0  0  0  0
    5.0828   -5.4125    4.5534 H   0  0  0  0  0  0  0  0  0  0  0  0
    7.2405   -5.2579    4.2589 H   0  0  0  0  0  0  0  0  0  0  0  0
    6.9715   -6.8772    3.8032 H   0  0  0  0  0  0  0  0  0  0  0  0
    8.0495   -4.6520    2.1565 H   0  0  0  0  0  0  0  0  0  0  0  0
    8.4432   -6.3144    2.2045 H   0  0  0  0  0  0  0  0  0  0  0  0
    7.6286   -5.9195    0.0869 H   0  0  0  0  0  0  0  0  0  0  0  0
    6.3507   -6.7970    0.8430 H   0  0  0  0  0  0  0  0  0  0  0  0
    4.2166   -2.0804   -2.3381 H   0  0  0  0  0  0  0  0  0  0  0  0
    5.1688   -0.6182   -2.1454 H   0  0  0  0  0  0  0  0  0  0  0  0
    3.5186   -0.6879   -1.5273 H   0  0  0  0  0  0  0  0  0  0  0  0
    5.9911    0.1059    0.0771 H   0  0  0  0  0  0  0  0  0  0  0  0
    4.3886    0.0299    0.7179 H   0  0  0  0  0  0  0  0  0  0  0  0
    6.8544   -1.2696    1.8910 H   0  0  0  0  0  0  0  0  0  0  0  0
    6.0246    0.1129    2.4780 H   0  0  0  0  0  0  0  0  0  0  0  0
    4.9272   -1.1562    3.8844 H   0  0  0  0  0  0  0  0  0  0  0  0
    3.8979   -1.6293    2.5943 H   0  0  0  0  0  0  0  0  0  0  0  0
    6.3842   -3.1939    2.7426 H   0  0  0  0  0  0  0  0  0  0  0  0
    5.5901   -3.1714    4.2722 H   0  0  0  0  0  0  0  0  0  0  0  0
    2.6592   -3.4211    2.9250 H   0  0  0  0  0  0  0  0  0  0  0  0
    3.2883   -3.9591    4.4099 H   0  0  0  0  0  0  0  0  0  0  0  0
    4.1851   -5.6359    1.0676 H   0  0  0  0  0  0  0  0  0  0  0  0
    1.7657   -3.6719   -0.6560 H   0  0  0  0  0  0  0  0  0  0  0  0
    1.8183   -3.6199    1.0866 H   0  0  0  0  0  0  0  0  0  0  0  0
    2.0015   -5.1673    0.2498 H   0  0  0  0  0  0  0  0  0  0  0  0
  1  2  1  0
  1 33  1  0
  1 34  1  0
  1 35  1  0
  2  7  2  0
  2  3  1  0
  3  4  2  0
  3 36  1  0
  4  5  1  0
  4 37  1  0
  5  6  2  0
  5 38  1  0
  6 10  1  0
  6  7  1  0
  7  8  1  0
  8  9  2  0
  8 39  1  0
  9 26  1  0
  9 10  1  0
 10 11  1  0
 11 12  1  0
 11 40  1  0
 11 41  1  0
 12 25  1  0
 12 13  1  0
 12 42  1  1
 13 14  1  0
 13 43  1  0
 13 44  1  0
 14 15  1  0
 14 45  1  0
 14 46  1  0
 15 16  1  0
 15 47  1  0
 15 48  1  0
 16 27  1  0
 16 31  1  6
 16 17  1  0
 17 18  1  0
 18 19  1  0
 19 32  1  0
 19 20  1  6
 19 21  1  0
 20 49  1  0
 20 50  1  0
 20 51  1  0
 21 22  1  0
 21 52  1  0
 21 53  1  0
 22 23  1  0
 22 54  1  0
 22 55  1  0
 23 24  1  0
 23 56  1  0
 23 57  1  0
 25 24  1  6
 24 58  1  0
 24 59  1  0
 25 26  1  0
 25 27  1  0
 26 60  1  0
 26 61  1  0
 27 28  1  0
 27 62  1  1
 28 29  1  1
 28 30  1  0
 28 32  1  0
 29 63  1  0
 29 64  1  0
 29 65  1  0
 30 31  1  0
M  END
>  <i_m_ct_stereo_status>  (2) 
1

>  <s_m_source_file>  (2) 
/var/tmp/pbs.5076255.sched01/tmpyb5u0fxv/0ob_ovo1_.sdf

>  <i_m_source_file_index>  (2) 
1

>  <i_lp_mmshare_version>  (2) 
48012

>  <i_f3d_flags>  (2) 
0

>  <s_epik_input>  (2) 
W2NIXTFbY0hdW2NIXWMoW0NIM10pYyhbY0hdYzJbQ0gyXTMpYzFuMltDSDJdW0NAQEhdKFtDSDJdW0NIMl1bQ0gyXTQpW0NAXTMoW0NAQEhdNVtDQF00NjcpW0NIMl1bQ0gyXVtDSDJdW0NIMl1bQ0BdKE9PNikoW0NIM10pT1tDQEBdNShbQ0gzXSlPTzc=

>  <s_epik_cmdline>  (2) 
J2VwaWtfcHl0aG9uJywgJy1waHQnLCAnMi4wJywgJy1waCcsICc3LjAnLCAnLXRuJywgJzgnLCAnLW1hJywgJzIwMCcsICctaW1hZScsICc8aW5maWxlLm1hZT4nLCAnLW9tYWUnLCAnPG91dGZpbGUubWFlPic=

>  <r_lp_tautomer_probability>  (2) 
1

>  <r_epik_Ionization_Penalty>  (2) 
2.69154e-09

>  <r_epik_Ionization_Penalty_Charging>  (2) 
0

>  <r_epik_Ionization_Penalty_Neutral>  (2) 
2.69154e-09

>  <r_epik_State_Penalty>  (2) 
-0

>  <r_epik_Charging_Adjusted_Penalty>  (2) 
0

>  <i_epik_Tot_Q>  (2) 
0

>  <i_epik_Tot_abs_Q>  (2) 
0

>  <s_lp_Force_Field>  (2) 
OPLS3e

>  <r_lp_Energy>  (2) 
57.0007

>  <b_lp_Chiralities_Consistent>  (2) 
1

>  <s_lp_Variant>  (2) 
0:0-1

>  <s_i_glide_gridfile>  (2) 
pfpi4k_grid

>  <i_i_glide_lignum>  (2) 
1

>  <i_i_glide_rotatable_bonds>  (2) 
0

>  <r_i_docking_score>  (2) 
-2.16111

>  <r_i_glide_ligand_efficiency>  (2) 
-0.0675346

>  <r_i_glide_ligand_efficiency_sa>  (2) 
-0.214409

>  <r_i_glide_ligand_efficiency_ln>  (2) 
-0.483931

>  <r_i_glide_gscore>  (2) 
-2.16111

>  <r_i_glide_lipo>  (2) 
-0.576071

>  <r_i_glide_hbond>  (2) 
0

>  <r_i_glide_metal>  (2) 
-0

>  <r_i_glide_rewards>  (2) 
-0.55077

>  <r_i_glide_evdw>  (2) 
-24.0999

>  <r_i_glide_ecoul>  (2) 
1.24244

>  <r_i_glide_erotb>  (2) 
0

>  <r_i_glide_esite>  (2) 
-0.0156371

>  <r_i_glide_emodel>  (2) 
-26.3282

>  <r_i_glide_energy>  (2) 
-22.8575

>  <r_i_glide_einternal>  (2) 
0

>  <r_i_glide_intrahb_reward>  (2) 
-0

>  <i_i_glide_confnum>  (2) 
2

>  <i_i_glide_posenum>  (2) 
16

>  <r_i_glide_eff_state_penalty>  (2) 
0

>  <ligand_id>  (2) 
0

>  <original_smiles>  (2) 
Cc1cccc2c1cc1n2CC2CCCC34OOC5(C)CCCCC2(C1)C3C(C)(OO4)O5

>  <smiles>  (2) 
[H]c1c([H])c([H])c2c(c([H])c3n2C([H])([H])C2([H])C([H])([H])C([H])([H])C([H])([H])C45OOC6(C([H])([H])[H])OC(C([H])([H])[H])(OO4)C5([H])C2(C3([H])[H])C([H])([H])C([H])([H])C([H])([H])C6([H])[H])c1C([H])([H])[H]

$$$$
0:0:2
     RDKit          3D

 65 71  0  0  1  0  0  0  0  0999 V2000
   -2.3459    3.2835    3.1513 C   0  0  0  0  0  0  0  0  0  0  0  0
   -0.9227    3.2871    3.6834 C   0  0  0  0  0  0  0  0  0  0  0  0
   -0.3987    4.4708    4.2572 C   0  0  0  0  0  0  0  0  0  0  0  0
    0.9278    4.5136    4.7500 C   0  0  0  0  0  0  0  0  0  0  0  0
    1.7157    3.3527    4.6599 C   0  0  0  0  0  0  0  0  0  0  0  0
    1.1911    2.1772    4.0814 C   0  0  0  0  0  0  0  0  0  0  0  0
   -0.1371    2.1028    3.5751 C   0  0  0  0  0  0  0  0  0  0  0  0
   -0.3450    0.7736    3.0680 C   0  0  0  0  0  0  0  0  0  0  0  0
    0.8253    0.0955    3.2783 C   0  0  0  0  0  0  0  0  0  0  0  0
    1.7570    0.9272    3.8952 N   0  0  0  0  0  0  0  0  0  0  0  0
    3.0879    0.5234    4.2877 C   0  0  0  0  0  0  0  0  0  0  0  0
    3.4521   -0.9068    3.8325 C   0  0  1  0  0  0  0  0  0  0  0  0
    4.8673   -1.3226    4.3120 C   0  0  0  0  0  0  0  0  0  0  0  0
    5.0340   -2.1597    5.5959 C   0  0  0  0  0  0  0  0  0  0  0  0
    3.9837   -1.9910    6.6954 C   0  0  0  0  0  0  0  0  0  0  0  0
    2.6413   -2.7148    6.4264 C   0  0  2  0  0  0  0  0  0  0  0  0
    2.8348   -4.0770    6.0350 O   0  0  0  0  0  0  0  0  0  0  0  0
    1.7649   -4.8942    6.7281 O   0  0  0  0  0  0  0  0  0  0  0  0
    0.6600   -5.0795    5.8284 C   0  0  2  0  0  0  0  0  0  0  0  0
   -0.4481   -5.6547    6.7247 C   0  0  0  0  0  0  0  0  0  0  0  0
    0.9017   -6.0779    4.6634 C   0  0  0  0  0  0  0  0  0  0  0  0
    1.9928   -5.7237    3.6413 C   0  0  0  0  0  0  0  0  0  0  0  0
    1.7814   -4.3989    2.8785 C   0  0  0  0  0  0  0  0  0  0  0  0
    2.7733   -3.2746    3.2609 C   0  0  0  0  0  0  0  0  0  0  0  0
    2.2568   -1.9379    3.9034 C   0  0  2  0  0  0  0  0  0  0  0  0
    1.1796   -1.3202    2.9721 C   0  0  0  0  0  0  0  0  0  0  0  0
    1.7372   -2.0416    5.4041 C   0  0  1  0  0  0  0  0  0  0  0  0
    0.3666   -2.6367    5.7963 C   0  0  2  0  0  0  0  0  0  0  0  0
   -0.8834   -1.7842    5.4927 C   0  0  0  0  0  0  0  0  0  0  0  0
    0.4069   -2.6683    7.2162 O   0  0  0  0  0  0  0  0  0  0  0  0
    1.8696   -2.5571    7.6150 O   0  0  0  0  0  0  0  0  0  0  0  0
    0.1419   -3.9031    5.2036 O   0  0  0  0  0  0  0  0  0  0  0  0
   -2.8123    4.2600    3.2834 H   0  0  0  0  0  0  0  0  0  0  0  0
   -2.9638    2.5490    3.6718 H   0  0  0  0  0  0  0  0  0  0  0  0
   -2.3677    3.0682    2.0817 H   0  0  0  0  0  0  0  0  0  0  0  0
   -0.9882    5.3693    4.3093 H   0  0  0  0  0  0  0  0  0  0  0  0
    1.3281    5.4238    5.1776 H   0  0  0  0  0  0  0  0  0  0  0  0
    2.7307    3.3615    5.0250 H   0  0  0  0  0  0  0  0  0  0  0  0
   -1.2613    0.4208    2.6125 H   0  0  0  0  0  0  0  0  0  0  0  0
    3.7963    1.2409    3.8736 H   0  0  0  0  0  0  0  0  0  0  0  0
    3.1591    0.6089    5.3693 H   0  0  0  0  0  0  0  0  0  0  0  0
    3.6157   -0.7601    2.7642 H   0  0  0  0  0  0  0  0  0  0  0  0
    5.3628   -1.8674    3.5046 H   0  0  0  0  0  0  0  0  0  0  0  0
    5.4655   -0.4135    4.4114 H   0  0  0  0  0  0  0  0  0  0  0  0
    5.1335   -3.2154    5.3404 H   0  0  0  0  0  0  0  0  0  0  0  0
    6.0089   -1.8964    6.0116 H   0  0  0  0  0  0  0  0  0  0  0  0
    4.4089   -2.4150    7.6019 H   0  0  0  0  0  0  0  0  0  0  0  0
    3.8348   -0.9399    6.9257 H   0  0  0  0  0  0  0  0  0  0  0  0
   -0.6448   -5.0054    7.5748 H   0  0  0  0  0  0  0  0  0  0  0  0
   -0.1590   -6.6270    7.1216 H   0  0  0  0  0  0  0  0  0  0  0  0
   -1.3785   -5.7886    6.1747 H   0  0  0  0  0  0  0  0  0  0  0  0
    1.1170   -7.0663    5.0624 H   0  0  0  0  0  0  0  0  0  0  0  0
   -0.0349   -6.2006    4.1161 H   0  0  0  0  0  0  0  0  0  0  0  0
    2.9671   -5.7666    4.1213 H   0  0  0  0  0  0  0  0  0  0  0  0
    2.0157   -6.5266    2.9045 H   0  0  0  0  0  0  0  0  0  0  0  0
    1.9456   -4.6132    1.8218 H   0  0  0  0  0  0  0  0  0  0  0  0
    0.7440   -4.0798    2.9169 H   0  0  0  0  0  0  0  0  0  0  0  0
    3.5950   -3.6984    3.8317 H   0  0  0  0  0  0  0  0  0  0  0  0
    3.2627   -3.0015    2.3254 H   0  0  0  0  0  0  0  0  0  0  0  0
    0.2871   -1.9294    2.9619 H   0  0  0  0  0  0  0  0  0  0  0  0
    1.5293   -1.3578    1.9420 H   0  0  0  0  0  0  0  0  0  0  0  0
    1.6460   -1.0282    5.7668 H   0  0  0  0  0  0  0  0  0  0  0  0
   -1.7472   -2.1780    6.0277 H   0  0  0  0  0  0  0  0  0  0  0  0
   -1.1667   -1.7995    4.4459 H   0  0  0  0  0  0  0  0  0  0  0  0
   -0.7634   -0.7440    5.7916 H   0  0  0  0  0  0  0  0  0  0  0  0
  1  2  1  0
  1 33  1  0
  1 34  1  0
  1 35  1  0
  2  7  2  0
  2  3  1  0
  3  4  2  0
  3 36  1  0
  4  5  1  0
  4 37  1  0
  5  6  2  0
  5 38  1  0
  6 10  1  0
  6  7  1  0
  7  8  1  0
  8  9  2  0
  8 39  1  0
  9 26  1  0
  9 10  1  0
 10 11  1  0
 11 12  1  0
 11 40  1  0
 11 41  1  0
 12 25  1  0
 12 13  1  0
 12 42  1  6
 13 14  1  0
 13 43  1  0
 13 44  1  0
 14 15  1  0
 14 45  1  0
 14 46  1  0
 15 16  1  0
 15 47  1  0
 15 48  1  0
 16 27  1  0
 16 31  1  1
 16 17  1  0
 17 18  1  0
 18 19  1  0
 19 32  1  0
 19 20  1  1
 19 21  1  0
 20 49  1  0
 20 50  1  0
 20 51  1  0
 21 22  1  0
 21 52  1  0
 21 53  1  0
 22 23  1  0
 22 54  1  0
 22 55  1  0
 23 24  1  0
 23 56  1  0
 23 57  1  0
 25 24  1  6
 24 58  1  0
 24 59  1  0
 25 26  1  0
 25 27  1  0
 26 60  1  0
 26 61  1  0
 27 28  1  0
 27 62  1  1
 28 29  1  1
 28 30  1  0
 28 32  1  0
 29 63  1  0
 29 64  1  0
 29 65  1  0
 30 31  1  0
M  END
>  <i_m_ct_stereo_status>  (3) 
1

>  <s_m_source_file>  (3) 
/var/tmp/pbs.5076255.sched01/tmpyb5u0fxv/0ob_ovo1_.sdf

>  <i_m_source_file_index>  (3) 
1

>  <i_lp_mmshare_version>  (3) 
48012

>  <i_f3d_flags>  (3) 
0

>  <s_epik_input>  (3) 
W2NIXTFbY0hdW2NIXWMoW0NIM10pYyhbY0hdYzJbQ0gyXTMpYzFuMltDSDJdW0NAQEhdKFtDSDJdW0NIMl1bQ0gyXTQpW0NAXTMoW0NAQEhdNVtDQF00NjcpW0NIMl1bQ0gyXVtDSDJdW0NIMl1bQ0BdKE9PNikoW0NIM10pT1tDQEBdNShbQ0gzXSlPTzc=

>  <s_epik_cmdline>  (3) 
J2VwaWtfcHl0aG9uJywgJy1waHQnLCAnMi4wJywgJy1waCcsICc3LjAnLCAnLXRuJywgJzgnLCAnLW1hJywgJzIwMCcsICctaW1hZScsICc8aW5maWxlLm1hZT4nLCAnLW9tYWUnLCAnPG91dGZpbGUubWFlPic=

>  <r_lp_tautomer_probability>  (3) 
1

>  <r_epik_Ionization_Penalty>  (3) 
2.69154e-09

>  <r_epik_Ionization_Penalty_Charging>  (3) 
0

>  <r_epik_Ionization_Penalty_Neutral>  (3) 
2.69154e-09

>  <r_epik_State_Penalty>  (3) 
-0

>  <r_epik_Charging_Adjusted_Penalty>  (3) 
0

>  <i_epik_Tot_Q>  (3) 
0

>  <i_epik_Tot_abs_Q>  (3) 
0

>  <s_lp_Force_Field>  (3) 
OPLS3e

>  <r_lp_Energy>  (3) 
57.0007

>  <b_lp_Chiralities_Consistent>  (3) 
1

>  <s_lp_Variant>  (3) 
0:0-1

>  <s_i_glide_gridfile>  (3) 
pfpi4k_grid

>  <i_i_glide_lignum>  (3) 
1

>  <i_i_glide_rotatable_bonds>  (3) 
0

>  <r_i_docking_score>  (3) 
-1.56264

>  <r_i_glide_ligand_efficiency>  (3) 
-0.0488323

>  <r_i_glide_ligand_efficiency_sa>  (3) 
-0.155033

>  <r_i_glide_ligand_efficiency_ln>  (3) 
-0.349917

>  <r_i_glide_gscore>  (3) 
-1.56264

>  <r_i_glide_lipo>  (3) 
-0.110359

>  <r_i_glide_hbond>  (3) 
0

>  <r_i_glide_metal>  (3) 
-0

>  <r_i_glide_rewards>  (3) 
-0.412201

>  <r_i_glide_evdw>  (3) 
-21.4432

>  <r_i_glide_ecoul>  (3) 
0.333221

>  <r_i_glide_erotb>  (3) 
0

>  <r_i_glide_esite>  (3) 
-0.0178984

>  <r_i_glide_emodel>  (3) 
-23.6404

>  <r_i_glide_energy>  (3) 
-21.11

>  <r_i_glide_einternal>  (3) 
0

>  <r_i_glide_intrahb_reward>  (3) 
-0

>  <i_i_glide_confnum>  (3) 
1

>  <i_i_glide_posenum>  (3) 
4

>  <r_i_glide_eff_state_penalty>  (3) 
0

>  <ligand_id>  (3) 
0

>  <original_smiles>  (3) 
Cc1cccc2c1cc1n2CC2CCCC34OOC5(C)CCCCC2(C1)C3C(C)(OO4)O5

>  <smiles>  (3) 
[H]c1c([H])c([H])c2c(c([H])c3n2C([H])([H])C2([H])C([H])([H])C([H])([H])C([H])([H])C45OOC6(C([H])([H])[H])OC(C([H])([H])[H])(OO4)C5([H])C2(C3([H])[H])C([H])([H])C([H])([H])C([H])([H])C6([H])[H])c1C([H])([H])[H]

$$$$
2:0:0
     RDKit          3D

 79 84  0  0  1  0  0  0  0  0999 V2000
    2.8214   -3.3249    0.1170 C   0  0  0  0  0  0  0  0  0  0  0  0
    3.1883   -2.0203    0.5779 O   0  0  0  0  0  0  0  0  0  0  0  0
    3.1356   -1.7792    1.9912 C   0  0  2  0  0  0  0  0  0  0  0  0
    3.2411   -0.2502    2.2646 C   0  0  1  0  0  0  0  0  0  0  0  0
    2.3077    0.6786    1.4362 C   0  0  0  0  0  0  0  0  0  0  0  0
    1.2556    1.5593    2.1632 C   0  0  0  0  0  0  0  0  0  0  0  0
    1.7538    2.3655    3.3944 C   0  0  1  0  0  0  0  0  0  0  0  0
    2.5366    3.5855    2.8353 C   0  0  0  0  0  0  0  0  0  0  0  0
    0.5521    3.0209    4.3251 C   0  0  2  0  0  0  0  0  0  0  0  0
    1.0374    3.3114    5.7876 C   0  0  1  0  0  0  0  0  0  0  0  0
    0.5668    4.5987    6.1447 O   0  0  0  0  0  0  0  0  0  0  0  0
    0.6956    2.2062    6.8662 C   0  0  1  0  0  0  0  0  0  0  0  0
    0.4097    2.7878    8.2780 C   0  0  0  0  0  0  0  0  0  0  0  0
   -0.2615    1.0264    6.3370 C   0  0  1  0  0  0  0  0  0  0  0  0
    0.2477   -0.4486    6.6786 C   0  0  0  0  0  0  0  0  0  0  0  0
    1.5813   -0.9906    5.9483 C   0  0  0  0  0  0  0  0  0  0  0  0
    1.9362   -0.3438    4.5766 C   0  0  1  0  0  0  0  0  0  0  0  0
    2.1280    0.9255    5.1941 O   0  0  0  0  0  0  0  0  0  0  0  0
    2.8309    1.4620    4.1240 C   0  0  1  0  0  0  0  0  0  0  0  0
    3.2066   -0.0038    3.7657 C   0  0  2  0  0  0  0  0  0  0  0  0
    4.4658   -0.6503    4.3421 C   0  0  0  0  0  0  0  0  0  0  0  0
    4.3899   -2.0610    4.1079 O   0  0  0  0  0  0  0  0  0  0  0  0
    4.2804   -2.5420    2.7622 C   0  0  0  0  0  0  0  0  0  0  0  0
    3.9717   -4.0647    2.9767 C   0  0  0  0  0  0  0  0  0  0  0  0
    5.6513   -2.3354    2.0635 C   0  0  0  0  0  0  0  0  0  0  0  0
   -1.6299    1.5939    6.6665 C   0  0  0  0  0  0  0  0  0  0  0  0
   -2.3382    1.3516    7.6460 O   0  0  0  0  0  0  0  0  0  0  0  0
   -1.8747    2.6694    5.5727 C   0  0  0  0  0  0  0  0  0  0  0  0
   -2.7450    3.5455    5.6670 O   0  0  0  0  0  0  0  0  0  0  0  0
   -0.9326    2.4160    4.3573 C   0  0  1  0  0  0  0  0  0  0  0  0
   -1.7657    2.5579    3.0419 C   0  0  0  0  0  0  0  0  0  0  0  0
   -2.1864    3.9874    2.6718 C   0  0  0  0  0  0  0  0  0  0  0  0
   -3.3965    4.4274    2.2703 C   0  0  0  0  0  0  0  0  0  0  0  0
   -4.6461    3.5753    2.1209 C   0  0  0  0  0  0  0  0  0  0  0  0
   -3.6171    5.8817    1.8668 C   0  0  0  0  0  0  0  0  0  0  0  0
   -0.7248    1.0118    4.8503 C   0  0  0  0  0  0  0  0  0  0  0  0
   -1.1301    0.0280    4.2511 O   0  0  0  0  0  0  0  0  0  0  0  0
    2.7115   -3.3490   -0.9624 H   0  0  0  0  0  0  0  0  0  0  0  0
    1.8360   -3.6341    0.5723 H   0  0  0  0  0  0  0  0  0  0  0  0
    3.5516   -4.0593    0.3540 H   0  0  0  0  0  0  0  0  0  0  0  0
    2.1670   -2.0942    2.3806 H   0  0  0  0  0  0  0  0  0  0  0  0
    4.2271    0.0403    1.8969 H   0  0  0  0  0  0  0  0  0  0  0  0
    2.9871    1.3264    0.8956 H   0  0  0  0  0  0  0  0  0  0  0  0
    1.8166    0.1179    0.6405 H   0  0  0  0  0  0  0  0  0  0  0  0
    0.8354    2.2414    1.4314 H   0  0  0  0  0  0  0  0  0  0  0  0
    0.4435    0.8913    2.4211 H   0  0  0  0  0  0  0  0  0  0  0  0
    2.9451    4.2238    3.6180 H   0  0  0  0  0  0  0  0  0  0  0  0
    1.9230    4.2187    2.1971 H   0  0  0  0  0  0  0  0  0  0  0  0
    3.3835    3.2868    2.2279 H   0  0  0  0  0  0  0  0  0  0  0  0
    0.3806    3.9918    3.8604 H   0  0  0  0  0  0  0  0  0  0  0  0
    2.1173    3.4284    5.7861 H   0  0  0  0  0  0  0  0  0  0  0  0
    0.9936    5.2188    5.5786 H   0  0  0  0  0  0  0  0  0  0  0  0
    1.6274    1.7192    7.1424 H   0  0  0  0  0  0  0  0  0  0  0  0
   -0.4614    3.4412    8.3080 H   0  0  0  0  0  0  0  0  0  0  0  0
    1.2557    3.3841    8.6055 H   0  0  0  0  0  0  0  0  0  0  0  0
    0.2727    1.9983    9.0165 H   0  0  0  0  0  0  0  0  0  0  0  0
    0.4010   -0.5209    7.7547 H   0  0  0  0  0  0  0  0  0  0  0  0
   -0.5498   -1.1658    6.4733 H   0  0  0  0  0  0  0  0  0  0  0  0
    2.4227   -0.8781    6.6313 H   0  0  0  0  0  0  0  0  0  0  0  0
    1.4928   -2.0659    5.8056 H   0  0  0  0  0  0  0  0  0  0  0  0
    1.1470   -0.4407    3.8536 H   0  0  0  0  0  0  0  0  0  0  0  0
    3.6858    2.0069    4.4960 H   0  0  0  0  0  0  0  0  0  0  0  0
    5.3945   -0.2410    3.9407 H   0  0  0  0  0  0  0  0  0  0  0  0
    4.5089   -0.5141    5.4199 H   0  0  0  0  0  0  0  0  0  0  0  0
    3.9992   -4.6689    2.0913 H   0  0  0  0  0  0  0  0  0  0  0  0
    2.9738   -4.1507    3.4311 H   0  0  0  0  0  0  0  0  0  0  0  0
    4.7091   -4.4963    3.6638 H   0  0  0  0  0  0  0  0  0  0  0  0
    5.6566   -2.7159    1.0444 H   0  0  0  0  0  0  0  0  0  0  0  0
    6.4281   -2.8713    2.5860 H   0  0  0  0  0  0  0  0  0  0  0  0
    5.9724   -1.2887    2.0135 H   0  0  0  0  0  0  0  0  0  0  0  0
   -1.2335    2.1836    2.1755 H   0  0  0  0  0  0  0  0  0  0  0  0
   -2.6332    1.9202    3.1118 H   0  0  0  0  0  0  0  0  0  0  0  0
   -1.3817    4.7069    2.7030 H   0  0  0  0  0  0  0  0  0  0  0  0
   -5.4695    4.0180    2.6813 H   0  0  0  0  0  0  0  0  0  0  0  0
   -4.5221    2.5523    2.4622 H   0  0  0  0  0  0  0  0  0  0  0  0
   -4.9517    3.5268    1.0775 H   0  0  0  0  0  0  0  0  0  0  0  0
   -3.9539    5.9439    0.8315 H   0  0  0  0  0  0  0  0  0  0  0  0
   -2.6981    6.4663    1.9365 H   0  0  0  0  0  0  0  0  0  0  0  0
   -4.3896    6.3456    2.4786 H   0  0  0  0  0  0  0  0  0  0  0  0
  1  2  1  0
  1 38  1  0
  1 39  1  0
  1 40  1  0
  2  3  1  0
  3 23  1  0
  3  4  1  0
  3 41  1  1
  4 20  1  0
  4  5  1  0
  4 42  1  6
  5  6  1  0
  5 43  1  0
  5 44  1  0
  6  7  1  0
  6 45  1  0
  6 46  1  0
  7 19  1  0
  7  8  1  6
  7  9  1  0
  8 47  1  0
  8 48  1  0
  8 49  1  0
  9 30  1  0
  9 10  1  0
  9 50  1  6
 10 11  1  0
 10 12  1  0
 10 51  1  6
 11 52  1  0
 12 13  1  0
 12 14  1  0
 12 53  1  1
 13 54  1  0
 13 55  1  0
 13 56  1  0
 14 36  1  0
 14 15  1  1
 14 26  1  0
 15 16  1  0
 15 57  1  0
 15 58  1  0
 16 17  1  0
 16 59  1  0
 16 60  1  0
 17 20  1  0
 17 18  1  0
 17 61  1  6
 18 19  1  0
 19 20  1  0
 19 62  1  1
 20 21  1  1
 21 22  1  0
 21 63  1  0
 21 64  1  0
 22 23  1  0
 23 24  1  0
 23 25  1  0
 24 65  1  0
 24 66  1  0
 24 67  1  0
 25 68  1  0
 25 69  1  0
 25 70  1  0
 26 27  2  0
 26 28  1  0
 28 29  2  0
 28 30  1  0
 30 31  1  6
 30 36  1  0
 31 32  1  0
 31 71  1  0
 31 72  1  0
 32 33  2  3
 32 73  1  0
 33 34  1  0
 33 35  1  0
 34 74  1  0
 34 75  1  0
 34 76  1  0
 35 77  1  0
 35 78  1  0
 35 79  1  0
 36 37  2  0
M  END
>  <i_m_ct_stereo_status>  (4) 
1

>  <s_m_source_file>  (4) 
/var/tmp/pbs.5076255.sched01/tmpyb5u0fxv/0ob_ovo1_.sdf

>  <i_m_source_file_index>  (4) 
3

>  <i_lp_mmshare_version>  (4) 
48012

>  <i_f3d_flags>  (4) 
0

>  <s_epik_input>  (4) 
W0NIMl0xT0MoW0NIM10pKFtDSDNdKVtDQEhdKE9bQ0gzXSlbQ0BASF0oW0NIMl1bQ0gyXTIpW0NAXTEoW0NASF0oTzMpW0NIMl1bQ0gyXTQpW0NIXTNbQ0BdMihbQ0gzXSlbQ0BIXShbQ0BASF0oW09IXSlbQ0BIXShbQ0BAXTQ1NilbQ0gzXSlbQ0BAXShDNj1PKShDKD1PKUM1PU8pW0NIMl1bQ0hdPUMoW0NIM10pW0NIM10=

>  <s_epik_cmdline>  (4) 
J2VwaWtfcHl0aG9uJywgJy1waHQnLCAnMi4wJywgJy1waCcsICc3LjAnLCAnLXRuJywgJzgnLCAnLW1hJywgJzIwMCcsICctaW1hZScsICc8aW5maWxlLm1hZT4nLCAnLW9tYWUnLCAnPG91dGZpbGUubWFlPic=

>  <r_lp_tautomer_probability>  (4) 
1

>  <r_epik_Ionization_Penalty>  (4) 
2.0988e-06

>  <r_epik_Ionization_Penalty_Charging>  (4) 
0

>  <r_epik_Ionization_Penalty_Neutral>  (4) 
2.0988e-06

>  <r_epik_State_Penalty>  (4) 
-0

>  <r_epik_Charging_Adjusted_Penalty>  (4) 
0

>  <i_epik_Tot_Q>  (4) 
0

>  <i_epik_Tot_abs_Q>  (4) 
0

>  <s_lp_Force_Field>  (4) 
OPLS3e

>  <r_lp_Energy>  (4) 
151.86

>  <b_lp_Chiralities_Consistent>  (4) 
1

>  <s_lp_Variant>  (4) 
2:0-1

>  <s_i_glide_gridfile>  (4) 
pfpi4k_grid

>  <i_i_glide_lignum>  (4) 
3

>  <i_i_glide_rotatable_bonds>  (4) 
4

>  <r_i_docking_score>  (4) 
-2.34258

>  <r_i_glide_ligand_efficiency>  (4) 
-0.063313

>  <r_i_glide_ligand_efficiency_sa>  (4) 
-0.210973

>  <r_i_glide_ligand_efficiency_ln>  (4) 
-0.508051

>  <r_i_glide_gscore>  (4) 
-2.34258

>  <r_i_glide_lipo>  (4) 
-0.388371

>  <r_i_glide_hbond>  (4) 
-0.140881

>  <r_i_glide_metal>  (4) 
-0

>  <r_i_glide_rewards>  (4) 
-0.0780327

>  <r_i_glide_evdw>  (4) 
-24.5588

>  <r_i_glide_ecoul>  (4) 
-4.08586

>  <r_i_glide_erotb>  (4) 
0.154902

>  <r_i_glide_esite>  (4) 
-0.049377

>  <r_i_glide_emodel>  (4) 
-30.4139

>  <r_i_glide_energy>  (4) 
-28.6447

>  <r_i_glide_einternal>  (4) 
3.91661

>  <r_i_glide_intrahb_reward>  (4) 
-0

>  <i_i_glide_confnum>  (4) 
4

>  <i_i_glide_posenum>  (4) 
33

>  <r_i_glide_eff_state_penalty>  (4) 
0

>  <ligand_id>  (4) 
2

>  <original_smiles>  (4) 
COC1C2CCC3(C)C4C(O)C(C)C5(CCC6OC3C62COC1(C)C)C(=O)C(=O)C4(CC=C(C)C)C5=O

>  <smiles>  (4) 
[H]OC1([H])C([H])(C([H])([H])[H])C23C(=O)C(=O)C(C([H])([H])C([H])=C(C([H])([H])[H])C([H])([H])[H])(C2=O)C1([H])C1(C([H])([H])[H])C([H])([H])C([H])([H])C2([H])C([H])(OC([H])([H])[H])C(C([H])([H])[H])(C([H])([H])[H])OC([H])([H])C24C([H])(OC14[H])C([H])([H])C3([H])[H]

$$$$
2:0:1
     RDKit          3D

 79 84  0  0  1  0  0  0  0  0999 V2000
    3.1540   -1.3345    0.4146 C   0  0  0  0  0  0  0  0  0  0  0  0
    4.3932   -1.7242    0.9955 O   0  0  0  0  0  0  0  0  0  0  0  0
    4.5811   -3.1335    1.0408 C   0  0  2  0  0  0  0  0  0  0  0  0
    4.8014   -3.5961    2.4942 C   0  0  1  0  0  0  0  0  0  0  0  0
    3.7811   -3.0980    3.5660 C   0  0  0  0  0  0  0  0  0  0  0  0
    2.8884   -4.1341    4.2995 C   0  0  0  0  0  0  0  0  0  0  0  0
    3.6270   -5.3864    4.8774 C   0  0  1  0  0  0  0  0  0  0  0  0
    4.3547   -4.8954    6.1626 C   0  0  0  0  0  0  0  0  0  0  0  0
    2.6468   -6.6196    5.3900 C   0  0  2  0  0  0  0  0  0  0  0  0
    3.3719   -8.0113    5.4182 C   0  0  1  0  0  0  0  0  0  0  0  0
    2.9680   -8.6763    6.6045 O   0  0  0  0  0  0  0  0  0  0  0  0
    3.1695   -8.9226    4.1403 C   0  0  1  0  0  0  0  0  0  0  0  0
    3.1421  -10.4394    4.4993 C   0  0  0  0  0  0  0  0  0  0  0  0
    2.0778   -8.3777    3.0908 C   0  0  1  0  0  0  0  0  0  0  0  0
    2.5957   -8.3823    1.5833 C   0  0  0  0  0  0  0  0  0  0  0  0
    3.7699   -7.3494    1.1624 C   0  0  0  0  0  0  0  0  0  0  0  0
    3.9014   -6.0563    2.0279 C   0  0  1  0  0  0  0  0  0  0  0  0
    4.2571   -6.8349    3.1634 O   0  0  0  0  0  0  0  0  0  0  0  0
    4.7849   -5.7606    3.8613 C   0  0  1  0  0  0  0  0  0  0  0  0
    5.0321   -5.1033    2.4739 C   0  0  2  0  0  0  0  0  0  0  0  0
    6.3364   -5.3457    1.7137 C   0  0  0  0  0  0  0  0  0  0  0  0
    6.1551   -4.9089    0.3642 O   0  0  0  0  0  0  0  0  0  0  0  0
    5.8067   -3.5345    0.1538 C   0  0  0  0  0  0  0  0  0  0  0  0
    5.4322   -3.4571   -1.3353 C   0  0  0  0  0  0  0  0  0  0  0  0
    7.0651   -2.6736    0.4145 C   0  0  0  0  0  0  0  0  0  0  0  0
    0.8211   -9.0380    3.6052 C   0  0  0  0  0  0  0  0  0  0  0  0
    0.2442  -10.0266    3.1450 O   0  0  0  0  0  0  0  0  0  0  0  0
    0.4373   -8.1926    4.8642 C   0  0  0  0  0  0  0  0  0  0  0  0
   -0.3296   -8.5714    5.7423 O   0  0  0  0  0  0  0  0  0  0  0  0
    1.1533   -6.7948    4.8028 C   0  0  1  0  0  0  0  0  0  0  0  0
    0.1057   -5.6595    5.1470 C   0  0  0  0  0  0  0  0  0  0  0  0
    0.3386   -4.8776    6.4426 C   0  0  0  0  0  0  0  0  0  0  0  0
   -0.5561   -4.4166    7.3401 C   0  0  0  0  0  0  0  0  0  0  0  0
   -2.0588   -4.6188    7.2802 C   0  0  0  0  0  0  0  0  0  0  0  0
   -0.0909   -3.5949    8.5302 C   0  0  0  0  0  0  0  0  0  0  0  0
    1.3816   -7.0178    3.3367 C   0  0  0  0  0  0  0  0  0  0  0  0
    0.8357   -6.3352    2.4567 O   0  0  0  0  0  0  0  0  0  0  0  0
    3.0693   -0.2491    0.4200 H   0  0  0  0  0  0  0  0  0  0  0  0
    2.3075   -1.7342    0.9748 H   0  0  0  0  0  0  0  0  0  0  0  0
    3.0695   -1.6728   -0.6197 H   0  0  0  0  0  0  0  0  0  0  0  0
    3.6958   -3.6471    0.6619 H   0  0  0  0  0  0  0  0  0  0  0  0
    5.7300   -3.1292    2.8176 H   0  0  0  0  0  0  0  0  0  0  0  0
    4.3453   -2.5625    4.3293 H   0  0  0  0  0  0  0  0  0  0  0  0
    3.1327   -2.3413    3.1383 H   0  0  0  0  0  0  0  0  0  0  0  0
    2.3766   -3.5921    5.0933 H   0  0  0  0  0  0  0  0  0  0  0  0
    2.0937   -4.4098    3.6148 H   0  0  0  0  0  0  0  0  0  0  0  0
    4.9013   -5.7058    6.6467 H   0  0  0  0  0  0  0  0  0  0  0  0
    3.6601   -4.4935    6.9045 H   0  0  0  0  0  0  0  0  0  0  0  0
    5.0789   -4.1104    5.9455 H   0  0  0  0  0  0  0  0  0  0  0  0
    2.4863   -6.4100    6.4500 H   0  0  0  0  0  0  0  0  0  0  0  0
    4.4453   -7.8457    5.5448 H   0  0  0  0  0  0  0  0  0  0  0  0
    3.3800   -9.5242    6.6260 H   0  0  0  0  0  0  0  0  0  0  0  0
    4.1212   -8.9646    3.6125 H   0  0  0  0  0  0  0  0  0  0  0  0
    2.3043  -10.7230    5.1430 H   0  0  0  0  0  0  0  0  0  0  0  0
    4.0583  -10.7146    5.0286 H   0  0  0  0  0  0  0  0  0  0  0  0
    3.0911  -11.0519    3.5967 H   0  0  0  0  0  0  0  0  0  0  0  0
    2.9175   -9.3942    1.3220 H   0  0  0  0  0  0  0  0  0  0  0  0
    1.7393   -8.2119    0.9291 H   0  0  0  0  0  0  0  0  0  0  0  0
    4.7131   -7.8990    1.1512 H   0  0  0  0  0  0  0  0  0  0  0  0
    3.6256   -7.0461    0.1247 H   0  0  0  0  0  0  0  0  0  0  0  0
    2.9778   -5.4974    2.0607 H   0  0  0  0  0  0  0  0  0  0  0  0
    5.7182   -6.0516    4.3424 H   0  0  0  0  0  0  0  0  0  0  0  0
    7.1895   -4.8594    2.1853 H   0  0  0  0  0  0  0  0  0  0  0  0
    6.5724   -6.4097    1.6834 H   0  0  0  0  0  0  0  0  0  0  0  0
    5.1967   -2.4359   -1.6350 H   0  0  0  0  0  0  0  0  0  0  0  0
    4.5624   -4.0796   -1.5489 H   0  0  0  0  0  0  0  0  0  0  0  0
    6.2474   -3.8102   -1.9681 H   0  0  0  0  0  0  0  0  0  0  0  0
    6.8823   -1.6183    0.2063 H   0  0  0  0  0  0  0  0  0  0  0  0
    7.9024   -2.9986   -0.2054 H   0  0  0  0  0  0  0  0  0  0  0  0
    7.3987   -2.7426    1.4455 H   0  0  0  0  0  0  0  0  0  0  0  0
    0.0239   -4.9177    4.3551 H   0  0  0  0  0  0  0  0  0  0  0  0
   -0.8949   -6.0887    5.1877 H   0  0  0  0  0  0  0  0  0  0  0  0
    1.3632   -4.6317    6.6468 H   0  0  0  0  0  0  0  0  0  0  0  0
   -2.4114   -5.0485    8.2192 H   0  0  0  0  0  0  0  0  0  0  0  0
   -2.3750   -5.2883    6.4828 H   0  0  0  0  0  0  0  0  0  0  0  0
   -2.5527   -3.6598    7.1266 H   0  0  0  0  0  0  0  0  0  0  0  0
   -0.5401   -2.6055    8.4974 H   0  0  0  0  0  0  0  0  0  0  0  0
    0.9920   -3.4580    8.5367 H   0  0  0  0  0  0  0  0  0  0  0  0
   -0.3753   -4.0748    9.4663 H   0  0  0  0  0  0  0  0  0  0  0  0
  1  2  1  0
  1 38  1  0
  1 39  1  0
  1 40  1  0
  2  3  1  0
  3 23  1  0
  3  4  1  0
  3 41  1  6
  4 20  1  0
  4  5  1  0
  4 42  1  1
  5  6  1  0
  5 43  1  0
  5 44  1  0
  6  7  1  0
  6 45  1  0
  6 46  1  0
  7 19  1  0
  7  8  1  1
  7  9  1  0
  8 47  1  0
  8 48  1  0
  8 49  1  0
  9 30  1  0
  9 10  1  0
  9 50  1  1
 10 11  1  0
 10 12  1  0
 10 51  1  1
 11 52  1  0
 12 13  1  0
 12 14  1  0
 12 53  1  6
 13 54  1  0
 13 55  1  0
 13 56  1  0
 14 36  1  0
 14 15  1  6
 14 26  1  0
 15 16  1  0
 15 57  1  0
 15 58  1  0
 16 17  1  0
 16 59  1  0
 16 60  1  0
 17 20  1  0
 17 18  1  0
 17 61  1  1
 18 19  1  0
 19 20  1  0
 19 62  1  1
 20 21  1  6
 21 22  1  0
 21 63  1  0
 21 64  1  0
 22 23  1  0
 23 24  1  0
 23 25  1  0
 24 65  1  0
 24 66  1  0
 24 67  1  0
 25 68  1  0
 25 69  1  0
 25 70  1  0
 26 27  2  0
 26 28  1  0
 28 29  2  0
 28 30  1  0
 30 31  1  6
 30 36  1  0
 31 32  1  0
 31 71  1  0
 31 72  1  0
 32 33  2  3
 32 73  1  0
 33 34  1  0
 33 35  1  0
 34 74  1  0
 34 75  1  0
 34 76  1  0
 35 77  1  0
 35 78  1  0
 35 79  1  0
 36 37  2  0
M  END
>  <i_m_ct_stereo_status>  (5) 
1

>  <s_m_source_file>  (5) 
/var/tmp/pbs.5076255.sched01/tmpyb5u0fxv/0ob_ovo1_.sdf

>  <i_m_source_file_index>  (5) 
3

>  <i_lp_mmshare_version>  (5) 
48012

>  <i_f3d_flags>  (5) 
0

>  <s_epik_input>  (5) 
W0NIMl0xT0MoW0NIM10pKFtDSDNdKVtDQEhdKE9bQ0gzXSlbQ0BASF0oW0NIMl1bQ0gyXTIpW0NAXTEoW0NASF0oTzMpW0NIMl1bQ0gyXTQpW0NIXTNbQ0BdMihbQ0gzXSlbQ0BIXShbQ0BASF0oW09IXSlbQ0BIXShbQ0BAXTQ1NilbQ0gzXSlbQ0BAXShDNj1PKShDKD1PKUM1PU8pW0NIMl1bQ0hdPUMoW0NIM10pW0NIM10=

>  <s_epik_cmdline>  (5) 
J2VwaWtfcHl0aG9uJywgJy1waHQnLCAnMi4wJywgJy1waCcsICc3LjAnLCAnLXRuJywgJzgnLCAnLW1hJywgJzIwMCcsICctaW1hZScsICc8aW5maWxlLm1hZT4nLCAnLW9tYWUnLCAnPG91dGZpbGUubWFlPic=

>  <r_lp_tautomer_probability>  (5) 
1

>  <r_epik_Ionization_Penalty>  (5) 
2.0988e-06

>  <r_epik_Ionization_Penalty_Charging>  (5) 
0

>  <r_epik_Ionization_Penalty_Neutral>  (5) 
2.0988e-06

>  <r_epik_State_Penalty>  (5) 
-0

>  <r_epik_Charging_Adjusted_Penalty>  (5) 
0

>  <i_epik_Tot_Q>  (5) 
0

>  <i_epik_Tot_abs_Q>  (5) 
0

>  <s_lp_Force_Field>  (5) 
OPLS3e

>  <r_lp_Energy>  (5) 
151.86

>  <b_lp_Chiralities_Consistent>  (5) 
1

>  <s_lp_Variant>  (5) 
2:0-1

>  <s_i_glide_gridfile>  (5) 
pfpi4k_grid

>  <i_i_glide_lignum>  (5) 
3

>  <i_i_glide_rotatable_bonds>  (5) 
4

>  <r_i_docking_score>  (5) 
-2.00678

>  <r_i_glide_ligand_efficiency>  (5) 
-0.0542374

>  <r_i_glide_ligand_efficiency_sa>  (5) 
-0.180731

>  <r_i_glide_ligand_efficiency_ln>  (5) 
-0.435225

>  <r_i_glide_gscore>  (5) 
-2.00678

>  <r_i_glide_lipo>  (5) 
-0.572477

>  <r_i_glide_hbond>  (5) 
0

>  <r_i_glide_metal>  (5) 
-0

>  <r_i_glide_rewards>  (5) 
0

>  <r_i_glide_evdw>  (5) 
-26.3806

>  <r_i_glide_ecoul>  (5) 
-1.36495

>  <r_i_glide_erotb>  (5) 
0.154902

>  <r_i_glide_esite>  (5) 
-0.0654382

>  <r_i_glide_emodel>  (5) 
-27.5625

>  <r_i_glide_energy>  (5) 
-27.7455

>  <r_i_glide_einternal>  (5) 
7.28199

>  <r_i_glide_intrahb_reward>  (5) 
-0

>  <i_i_glide_confnum>  (5) 
2

>  <i_i_glide_posenum>  (5) 
4

>  <r_i_glide_eff_state_penalty>  (5) 
0

>  <ligand_id>  (5) 
2

>  <original_smiles>  (5) 
COC1C2CCC3(C)C4C(O)C(C)C5(CCC6OC3C62COC1(C)C)C(=O)C(=O)C4(CC=C(C)C)C5=O

>  <smiles>  (5) 
[H]OC1([H])C([H])(C([H])([H])[H])C23C(=O)C(=O)C(C([H])([H])C([H])=C(C([H])([H])[H])C([H])([H])[H])(C2=O)C1([H])C1(C([H])([H])[H])C([H])([H])C([H])([H])C2([H])C([H])(OC([H])([H])[H])C(C([H])([H])[H])(C([H])([H])[H])OC([H])([H])C24C([H])(OC14[H])C([H])([H])C3([H])[H]

$$$$
2:0:2
     RDKit          3D

 79 84  0  0  1  0  0  0  0  0999 V2000
    4.1888   -1.1978   -2.0326 C   0  0  0  0  0  0  0  0  0  0  0  0
    5.1831   -1.3422   -1.0154 O   0  0  0  0  0  0  0  0  0  0  0  0
    4.7603   -2.1658    0.0693 C   0  0  2  0  0  0  0  0  0  0  0  0
    5.1655   -1.5428    1.4186 C   0  0  1  0  0  0  0  0  0  0  0  0
    4.8173   -0.0370    1.6370 C   0  0  0  0  0  0  0  0  0  0  0  0
    3.8080    0.3459    2.7582 C   0  0  0  0  0  0  0  0  0  0  0  0
    4.0773   -0.2703    4.1543 C   0  0  1  0  0  0  0  0  0  0  0  0
    5.2868    0.5178    4.7597 C   0  0  0  0  0  0  0  0  0  0  0  0
    2.8873   -0.0699    5.2974 C   0  0  2  0  0  0  0  0  0  0  0  0
    2.9566   -1.1645    6.4211 C   0  0  1  0  0  0  0  0  0  0  0  0
    2.6874   -0.4934    7.6369 O   0  0  0  0  0  0  0  0  0  0  0  0
    2.0360   -2.4383    6.2164 C   0  0  1  0  0  0  0  0  0  0  0  0
    1.4855   -2.9989    7.5617 C   0  0  0  0  0  0  0  0  0  0  0  0
    1.0087   -2.3530    4.9947 C   0  0  1  0  0  0  0  0  0  0  0  0
    1.0539   -3.6488    4.0633 C   0  0  0  0  0  0  0  0  0  0  0  0
    2.3598   -3.9575    3.1749 C   0  0  0  0  0  0  0  0  0  0  0  0
    3.2564   -2.7359    2.8363 C   0  0  1  0  0  0  0  0  0  0  0  0
    3.5604   -2.5461    4.1858 O   0  0  0  0  0  0  0  0  0  0  0  0
    4.6188   -1.7316    3.9240 C   0  0  1  0  0  0  0  0  0  0  0  0
    4.7366   -2.4579    2.5544 C   0  0  2  0  0  0  0  0  0  0  0  0
    5.5265   -3.7410    2.3846 C   0  0  0  0  0  0  0  0  0  0  0  0
    5.1760   -4.3506    1.1477 O   0  0  0  0  0  0  0  0  0  0  0  0
    5.3992   -3.5846   -0.0366 C   0  0  0  0  0  0  0  0  0  0  0  0
    4.7122   -4.4268   -1.1195 C   0  0  0  0  0  0  0  0  0  0  0  0
    6.9236   -3.5522   -0.3111 C   0  0  0  0  0  0  0  0  0  0  0  0
   -0.1890   -1.7203    5.6526 C   0  0  0  0  0  0  0  0  0  0  0  0
   -1.2215   -2.3188    5.9842 O   0  0  0  0  0  0  0  0  0  0  0  0
    0.1494   -0.2378    5.8045 C   0  0  0  0  0  0  0  0  0  0  0  0
   -0.4281    0.5379    6.5677 O   0  0  0  0  0  0  0  0  0  0  0  0
    1.3436    0.1545    4.8680 C   0  0  1  0  0  0  0  0  0  0  0  0
    1.0193    1.4860    4.1055 C   0  0  0  0  0  0  0  0  0  0  0  0
    0.9878    2.7101    5.0138 C   0  0  0  0  0  0  0  0  0  0  0  0
    0.0493    3.6862    5.0680 C   0  0  0  0  0  0  0  0  0  0  0  0
   -1.2142    3.7470    4.2238 C   0  0  0  0  0  0  0  0  0  0  0  0
    0.2035    4.8801    5.9978 C   0  0  0  0  0  0  0  0  0  0  0  0
    1.1225   -1.1031    4.0996 C   0  0  0  0  0  0  0  0  0  0  0  0
    0.7619   -1.0694    2.9231 O   0  0  0  0  0  0  0  0  0  0  0  0
    4.5639   -0.5475   -2.8221 H   0  0  0  0  0  0  0  0  0  0  0  0
    3.2675   -0.7661   -1.6435 H   0  0  0  0  0  0  0  0  0  0  0  0
    3.9102   -2.1300   -2.5137 H   0  0  0  0  0  0  0  0  0  0  0  0
    3.6763   -2.2532    0.0834 H   0  0  0  0  0  0  0  0  0  0  0  0
    6.2543   -1.5057    1.4209 H   0  0  0  0  0  0  0  0  0  0  0  0
    5.7512    0.4804    1.8173 H   0  0  0  0  0  0  0  0  0  0  0  0
    4.4221    0.3879    0.7138 H   0  0  0  0  0  0  0  0  0  0  0  0
    3.8121    1.4301    2.8664 H   0  0  0  0  0  0  0  0  0  0  0  0
    2.8221    0.1084    2.3869 H   0  0  0  0  0  0  0  0  0  0  0  0
    5.5734    0.1516    5.7488 H   0  0  0  0  0  0  0  0  0  0  0  0
    5.0570    1.5837    4.8769 H   0  0  0  0  0  0  0  0  0  0  0  0
    6.1770    0.4529    4.1330 H   0  0  0  0  0  0  0  0  0  0  0  0
    3.1339    0.8821    5.7661 H   0  0  0  0  0  0  0  0  0  0  0  0
    3.9883   -1.5101    6.5142 H   0  0  0  0  0  0  0  0  0  0  0  0
    3.4030    0.0906    7.7994 H   0  0  0  0  0  0  0  0  0  0  0  0
    2.6925   -3.2836    6.0284 H   0  0  0  0  0  0  0  0  0  0  0  0
    0.8348   -2.3027    8.0963 H   0  0  0  0  0  0  0  0  0  0  0  0
    2.3172   -3.2278    8.2379 H   0  0  0  0  0  0  0  0  0  0  0  0
    0.9374   -3.9306    7.4066 H   0  0  0  0  0  0  0  0  0  0  0  0
    0.8177   -4.5313    4.6578 H   0  0  0  0  0  0  0  0  0  0  0  0
    0.2433   -3.5555    3.3631 H   0  0  0  0  0  0  0  0  0  0  0  0
    2.9462   -4.7216    3.6828 H   0  0  0  0  0  0  0  0  0  0  0  0
    2.0343   -4.4359    2.2458 H   0  0  0  0  0  0  0  0  0  0  0  0
    2.7337   -1.9763    2.2785 H   0  0  0  0  0  0  0  0  0  0  0  0
    5.4707   -2.0075    4.5503 H   0  0  0  0  0  0  0  0  0  0  0  0
    6.5889   -3.5749    2.4295 H   0  0  0  0  0  0  0  0  0  0  0  0
    5.2965   -4.4486    3.1814 H   0  0  0  0  0  0  0  0  0  0  0  0
    4.8930   -4.0529   -2.1244 H   0  0  0  0  0  0  0  0  0  0  0  0
    3.6347   -4.4473   -0.9496 H   0  0  0  0  0  0  0  0  0  0  0  0
    5.0540   -5.4611   -1.1273 H   0  0  0  0  0  0  0  0  0  0  0  0
    7.1505   -3.0827   -1.2712 H   0  0  0  0  0  0  0  0  0  0  0  0
    7.3389   -4.5596   -0.3045 H   0  0  0  0  0  0  0  0  0  0  0  0
    7.4847   -3.0039    0.4446 H   0  0  0  0  0  0  0  0  0  0  0  0
    1.7209    1.7432    3.3370 H   0  0  0  0  0  0  0  0  0  0  0  0
    0.0769    1.3532    3.5752 H   0  0  0  0  0  0  0  0  0  0  0  0
    1.8372    2.8045    5.6690 H   0  0  0  0  0  0  0  0  0  0  0  0
   -2.0848    3.8588    4.8715 H   0  0  0  0  0  0  0  0  0  0  0  0
   -1.3839    2.8705    3.6034 H   0  0  0  0  0  0  0  0  0  0  0  0
   -1.1711    4.6085    3.5570 H   0  0  0  0  0  0  0  0  0  0  0  0
    0.2259    5.8057    5.4208 H   0  0  0  0  0  0  0  0  0  0  0  0
    1.1246    4.8291    6.5803 H   0  0  0  0  0  0  0  0  0  0  0  0
   -0.6357    4.9376    6.6918 H   0  0  0  0  0  0  0  0  0  0  0  0
  1  2  1  0
  1 38  1  0
  1 39  1  0
  1 40  1  0
  2  3  1  0
  3 23  1  0
  3  4  1  0
  3 41  1  1
  4 20  1  0
  4  5  1  0
  4 42  1  6
  5  6  1  0
  5 43  1  0
  5 44  1  0
  6  7  1  0
  6 45  1  0
  6 46  1  0
  7 19  1  0
  7  8  1  1
  7  9  1  0
  8 47  1  0
  8 48  1  0
  8 49  1  0
  9 30  1  0
  9 10  1  0
  9 50  1  1
 10 11  1  0
 10 12  1  0
 10 51  1  1
 11 52  1  0
 12 13  1  0
 12 14  1  0
 12 53  1  6
 13 54  1  0
 13 55  1  0
 13 56  1  0
 14 36  1  0
 14 15  1  6
 14 26  1  0
 15 16  1  0
 15 57  1  0
 15 58  1  0
 16 17  1  0
 16 59  1  0
 16 60  1  0
 17 20  1  0
 17 18  1  0
 17 61  1  6
 18 19  1  0
 19 20  1  0
 19 62  1  1
 20 21  1  1
 21 22  1  0
 21 63  1  0
 21 64  1  0
 22 23  1  0
 23 24  1  0
 23 25  1  0
 24 65  1  0
 24 66  1  0
 24 67  1  0
 25 68  1  0
 25 69  1  0
 25 70  1  0
 26 27  2  0
 26 28  1  0
 28 29  2  0
 28 30  1  0
 30 31  1  6
 30 36  1  0
 31 32  1  0
 31 71  1  0
 31 72  1  0
 32 33  2  3
 32 73  1  0
 33 34  1  0
 33 35  1  0
 34 74  1  0
 34 75  1  0
 34 76  1  0
 35 77  1  0
 35 78  1  0
 35 79  1  0
 36 37  2  0
M  END
>  <i_m_ct_stereo_status>  (6) 
1

>  <s_m_source_file>  (6) 
/var/tmp/pbs.5076255.sched01/tmpyb5u0fxv/0ob_ovo1_.sdf

>  <i_m_source_file_index>  (6) 
3

>  <i_lp_mmshare_version>  (6) 
48012

>  <i_f3d_flags>  (6) 
0

>  <s_epik_input>  (6) 
W0NIMl0xT0MoW0NIM10pKFtDSDNdKVtDQEhdKE9bQ0gzXSlbQ0BASF0oW0NIMl1bQ0gyXTIpW0NAXTEoW0NASF0oTzMpW0NIMl1bQ0gyXTQpW0NIXTNbQ0BdMihbQ0gzXSlbQ0BIXShbQ0BASF0oW09IXSlbQ0BIXShbQ0BAXTQ1NilbQ0gzXSlbQ0BAXShDNj1PKShDKD1PKUM1PU8pW0NIMl1bQ0hdPUMoW0NIM10pW0NIM10=

>  <s_epik_cmdline>  (6) 
J2VwaWtfcHl0aG9uJywgJy1waHQnLCAnMi4wJywgJy1waCcsICc3LjAnLCAnLXRuJywgJzgnLCAnLW1hJywgJzIwMCcsICctaW1hZScsICc8aW5maWxlLm1hZT4nLCAnLW9tYWUnLCAnPG91dGZpbGUubWFlPic=

>  <r_lp_tautomer_probability>  (6) 
1

>  <r_epik_Ionization_Penalty>  (6) 
2.0988e-06

>  <r_epik_Ionization_Penalty_Charging>  (6) 
0

>  <r_epik_Ionization_Penalty_Neutral>  (6) 
2.0988e-06

>  <r_epik_State_Penalty>  (6) 
-0

>  <r_epik_Charging_Adjusted_Penalty>  (6) 
0

>  <i_epik_Tot_Q>  (6) 
0

>  <i_epik_Tot_abs_Q>  (6) 
0

>  <s_lp_Force_Field>  (6) 
OPLS3e

>  <r_lp_Energy>  (6) 
151.86

>  <b_lp_Chiralities_Consistent>  (6) 
1

>  <s_lp_Variant>  (6) 
2:0-1

>  <s_i_glide_gridfile>  (6) 
pfpi4k_grid

>  <i_i_glide_lignum>  (6) 
3

>  <i_i_glide_rotatable_bonds>  (6) 
4

>  <r_i_docking_score>  (6) 
-1.92213

>  <r_i_glide_ligand_efficiency>  (6) 
-0.0519495

>  <r_i_glide_ligand_efficiency_sa>  (6) 
-0.173107

>  <r_i_glide_ligand_efficiency_ln>  (6) 
-0.416865

>  <r_i_glide_gscore>  (6) 
-1.92213

>  <r_i_glide_lipo>  (6) 
-0.584635

>  <r_i_glide_hbond>  (6) 
0

>  <r_i_glide_metal>  (6) 
-0

>  <r_i_glide_rewards>  (6) 
0

>  <r_i_glide_evdw>  (6) 
-23.8688

>  <r_i_glide_ecoul>  (6) 
-1.71228

>  <r_i_glide_erotb>  (6) 
0.154902

>  <r_i_glide_esite>  (6) 
-0.0421148

>  <r_i_glide_emodel>  (6) 
-27.5243

>  <r_i_glide_energy>  (6) 
-25.5811

>  <r_i_glide_einternal>  (6) 
2.08299

>  <r_i_glide_intrahb_reward>  (6) 
-0

>  <i_i_glide_confnum>  (6) 
2

>  <i_i_glide_posenum>  (6) 
3

>  <r_i_glide_eff_state_penalty>  (6) 
0

>  <ligand_id>  (6) 
2

>  <original_smiles>  (6) 
COC1C2CCC3(C)C4C(O)C(C)C5(CCC6OC3C62COC1(C)C)C(=O)C(=O)C4(CC=C(C)C)C5=O

>  <smiles>  (6) 
[H]OC1([H])C([H])(C([H])([H])[H])C23C(=O)C(=O)C(C([H])([H])C([H])=C(C([H])([H])[H])C([H])([H])[H])(C2=O)C1([H])C1(C([H])([H])[H])C([H])([H])C([H])([H])C2([H])C([H])(OC([H])([H])[H])C(C([H])([H])[H])(C([H])([H])[H])OC([H])([H])C24C([H])(OC14[H])C([H])([H])C3([H])[H]

$$$$
2:1:0
     RDKit          3D

 79 84  0  0  1  0  0  0  0  0999 V2000
   -1.3299    0.8831    3.3821 C   0  0  0  0  0  0  0  0  0  0  0  0
   -0.3668   -0.0222    3.9638 O   0  0  0  0  0  0  0  0  0  0  0  0
    0.7483   -0.4026    3.1383 C   0  0  2  0  0  0  0  0  0  0  0  0
    1.5236   -1.5680    3.8147 C   0  0  1  0  0  0  0  0  0  0  0  0
    0.8204   -2.7041    4.6943 C   0  0  0  0  0  0  0  0  0  0  0  0
    1.7869   -3.8347    5.3165 C   0  0  0  0  0  0  0  0  0  0  0  0
    3.1505   -4.0916    4.5671 C   0  0  1  0  0  0  0  0  0  0  0  0
    4.2192   -3.2681    5.3460 C   0  0  0  0  0  0  0  0  0  0  0  0
    3.6197   -5.6527    4.3042 C   0  0  2  0  0  0  0  0  0  0  0  0
    5.1188   -5.7050    3.8560 C   0  0  1  0  0  0  0  0  0  0  0  0
    5.7008   -6.8719    4.4106 O   0  0  0  0  0  0  0  0  0  0  0  0
    5.3898   -5.5610    2.3198 C   0  0  1  0  0  0  0  0  0  0  0  0
    6.7545   -6.1550    1.8903 C   0  0  0  0  0  0  0  0  0  0  0  0
    4.1626   -5.9144    1.3429 C   0  0  1  0  0  0  0  0  0  0  0  0
    4.0698   -4.9045    0.1030 C   0  0  0  0  0  0  0  0  0  0  0  0
    3.8381   -3.2916    0.3495 C   0  0  0  0  0  0  0  0  0  0  0  0
    2.7809   -2.7771    1.4330 C   0  0  1  0  0  0  0  0  0  0  0  0
    3.7066   -3.5343    2.2236 O   0  0  0  0  0  0  0  0  0  0  0  0
    2.8518   -3.4525    3.2674 C   0  0  2  0  0  0  0  0  0  0  0  0
    2.6779   -2.0151    2.8828 C   0  0  2  0  0  0  0  0  0  0  0  0
    3.6738   -0.8629    2.9588 C   0  0  0  0  0  0  0  0  0  0  0  0
    3.0318    0.2679    2.3519 O   0  0  0  0  0  0  0  0  0  0  0  0
    1.7917    0.7531    2.8812 C   0  0  0  0  0  0  0  0  0  0  0  0
    1.3260    1.7318    1.7478 C   0  0  0  0  0  0  0  0  0  0  0  0
    2.1281    1.5392    4.1699 C   0  0  0  0  0  0  0  0  0  0  0  0
    4.1827   -7.4371    1.3206 C   0  0  0  0  0  0  0  0  0  0  0  0
    4.6280   -8.1635    0.4325 O   0  0  0  0  0  0  0  0  0  0  0  0
    3.5460   -7.8838    2.6831 C   0  0  0  0  0  0  0  0  0  0  0  0
    3.6082   -9.0081    3.1601 O   0  0  0  0  0  0  0  0  0  0  0  0
    2.7935   -6.6643    3.3266 C   0  0  1  0  0  0  0  0  0  0  0  0
    1.4027   -7.0516    3.8976 C   0  0  0  0  0  0  0  0  0  0  0  0
    0.5815   -8.1630    3.2139 C   0  0  0  0  0  0  0  0  0  0  0  0
   -0.7461   -8.1788    2.9933 C   0  0  0  0  0  0  0  0  0  0  0  0
   -1.7051   -7.0674    3.3806 C   0  0  0  0  0  0  0  0  0  0  0  0
   -1.4234   -9.3670    2.3320 C   0  0  0  0  0  0  0  0  0  0  0  0
    2.7512   -6.0418    1.9556 C   0  0  0  0  0  0  0  0  0  0  0  0
    1.6953   -5.7999    1.3488 O   0  0  0  0  0  0  0  0  0  0  0  0
   -2.2180    0.9369    4.0103 H   0  0  0  0  0  0  0  0  0  0  0  0
   -1.6393    0.5278    2.3904 H   0  0  0  0  0  0  0  0  0  0  0  0
   -0.9825    1.8779    3.3130 H   0  0  0  0  0  0  0  0  0  0  0  0
    0.3733   -0.7852    2.1939 H   0  0  0  0  0  0  0  0  0  0  0  0
    1.9976   -1.0789    4.6652 H   0  0  0  0  0  0  0  0  0  0  0  0
    0.2757   -2.2263    5.5028 H   0  0  0  0  0  0  0  0  0  0  0  0
    0.0574   -3.1986    4.0966 H   0  0  0  0  0  0  0  0  0  0  0  0
    1.9860   -3.5818    6.3529 H   0  0  0  0  0  0  0  0  0  0  0  0
    1.2214   -4.7595    5.4072 H   0  0  0  0  0  0  0  0  0  0  0  0
    5.0639   -2.9684    4.7283 H   0  0  0  0  0  0  0  0  0  0  0  0
    4.6080   -3.8150    6.2036 H   0  0  0  0  0  0  0  0  0  0  0  0
    3.8143   -2.3372    5.7388 H   0  0  0  0  0  0  0  0  0  0  0  0
    3.5621   -6.1040    5.2974 H   0  0  0  0  0  0  0  0  0  0  0  0
    5.7135   -4.9386    4.3376 H   0  0  0  0  0  0  0  0  0  0  0  0
    5.6355   -6.8193    5.3460 H   0  0  0  0  0  0  0  0  0  0  0  0
    5.6443   -4.5166    2.1645 H   0  0  0  0  0  0  0  0  0  0  0  0
    6.8240   -7.2339    2.0389 H   0  0  0  0  0  0  0  0  0  0  0  0
    7.5555   -5.7094    2.4805 H   0  0  0  0  0  0  0  0  0  0  0  0
    6.9708   -5.9412    0.8434 H   0  0  0  0  0  0  0  0  0  0  0  0
    4.9678   -5.0272   -0.5080 H   0  0  0  0  0  0  0  0  0  0  0  0
    3.2626   -5.2348   -0.5537 H   0  0  0  0  0  0  0  0  0  0  0  0
    4.8140   -2.8172    0.4950 H   0  0  0  0  0  0  0  0  0  0  0  0
    3.5192   -2.8952   -0.6140 H   0  0  0  0  0  0  0  0  0  0  0  0
    1.8170   -3.2420    1.1857 H   0  0  0  0  0  0  0  0  0  0  0  0
    1.9010   -3.9554    3.0182 H   0  0  0  0  0  0  0  0  0  0  0  0
    4.0009   -0.6482    3.9766 H   0  0  0  0  0  0  0  0  0  0  0  0
    4.5695   -1.0910    2.3790 H   0  0  0  0  0  0  0  0  0  0  0  0
    0.4520    2.3010    1.9191 H   0  0  0  0  0  0  0  0  0  0  0  0
    1.1486    1.1073    0.8678 H   0  0  0  0  0  0  0  0  0  0  0  0
    2.1288    2.4568    1.5297 H   0  0  0  0  0  0  0  0  0  0  0  0
    1.2367    1.9723    4.6243 H   0  0  0  0  0  0  0  0  0  0  0  0
    2.8284    2.3476    3.9691 H   0  0  0  0  0  0  0  0  0  0  0  0
    2.5916    0.9241    4.9435 H   0  0  0  0  0  0  0  0  0  0  0  0
    1.4933   -7.3258    4.9505 H   0  0  0  0  0  0  0  0  0  0  0  0
    0.8349   -6.1264    3.8615 H   0  0  0  0  0  0  0  0  0  0  0  0
    1.1177   -9.0504    2.9058 H   0  0  0  0  0  0  0  0  0  0  0  0
   -2.4659   -7.4585    4.0548 H   0  0  0  0  0  0  0  0  0  0  0  0
   -2.1838   -6.6853    2.4828 H   0  0  0  0  0  0  0  0  0  0  0  0
   -1.2346   -6.2460    3.9131 H   0  0  0  0  0  0  0  0  0  0  0  0
   -2.1812   -9.7855    2.9961 H   0  0  0  0  0  0  0  0  0  0  0  0
   -0.7206  -10.1652    2.0820 H   0  0  0  0  0  0  0  0  0  0  0  0
   -1.9188   -9.0533    1.4127 H   0  0  0  0  0  0  0  0  0  0  0  0
  1  2  1  0
  1 38  1  0
  1 39  1  0
  1 40  1  0
  2  3  1  0
  3 23  1  0
  3  4  1  0
  3 41  1  6
  4 20  1  0
  4  5  1  0
  4 42  1  1
  5  6  1  0
  5 43  1  0
  5 44  1  0
  6  7  1  0
  6 45  1  0
  6 46  1  0
  7 19  1  0
  7  8  1  1
  7  9  1  0
  8 47  1  0
  8 48  1  0
  8 49  1  0
  9 30  1  0
  9 10  1  0
  9 50  1  1
 10 11  1  0
 10 12  1  0
 10 51  1  1
 11 52  1  0
 12 13  1  0
 12 14  1  0
 12 53  1  1
 13 54  1  0
 13 55  1  0
 13 56  1  0
 14 36  1  0
 14 15  1  6
 14 26  1  0
 15 16  1  0
 15 57  1  0
 15 58  1  0
 16 17  1  0
 16 59  1  0
 16 60  1  0
 17 20  1  0
 17 18  1  0
 17 61  1  6
 18 19  1  0
 19 20  1  0
 19 62  1  6
 20 21  1  1
 21 22  1  0
 21 63  1  0
 21 64  1  0
 22 23  1  0
 23 24  1  0
 23 25  1  0
 24 65  1  0
 24 66  1  0
 24 67  1  0
 25 68  1  0
 25 69  1  0
 25 70  1  0
 26 27  2  0
 26 28  1  0
 28 29  2  0
 28 30  1  0
 30 31  1  1
 30 36  1  0
 31 32  1  0
 31 71  1  0
 31 72  1  0
 32 33  2  3
 32 73  1  0
 33 34  1  0
 33 35  1  0
 34 74  1  0
 34 75  1  0
 34 76  1  0
 35 77  1  0
 35 78  1  0
 35 79  1  0
 36 37  2  0
M  END
>  <i_m_ct_stereo_status>  (7) 
1

>  <s_m_source_file>  (7) 
/var/tmp/pbs.5076255.sched01/tmpyb5u0fxv/0ob_ovo1_.sdf

>  <i_m_source_file_index>  (7) 
4

>  <i_lp_mmshare_version>  (7) 
48012

>  <i_f3d_flags>  (7) 
0

>  <s_epik_input>  (7) 
W0NIMl0xT0MoW0NIM10pKFtDSDNdKVtDQEhdKE9bQ0gzXSlbQ0BASF0oW0NIMl1bQ0gyXTIpW0NAXTEoW0NASF0oTzMpW0NIMl1bQ0gyXTQpW0NIXTNbQ0BdMihbQ0gzXSlbQ0BIXShbQ0BASF0oW09IXSlbQ0BIXShbQ0BAXTQ1NilbQ0gzXSlbQ0BAXShDNj1PKShDKD1PKUM1PU8pW0NIMl1bQ0hdPUMoW0NIM10pW0NIM10=

>  <s_epik_cmdline>  (7) 
J2VwaWtfcHl0aG9uJywgJy1waHQnLCAnMi4wJywgJy1waCcsICc3LjAnLCAnLXRuJywgJzgnLCAnLW1hJywgJzIwMCcsICctaW1hZScsICc8aW5maWxlLm1hZT4nLCAnLW9tYWUnLCAnPG91dGZpbGUubWFlPic=

>  <r_lp_tautomer_probability>  (7) 
1

>  <r_epik_Ionization_Penalty>  (7) 
2.0988e-06

>  <r_epik_Ionization_Penalty_Charging>  (7) 
0

>  <r_epik_Ionization_Penalty_Neutral>  (7) 
2.0988e-06

>  <r_epik_State_Penalty>  (7) 
-0

>  <r_epik_Charging_Adjusted_Penalty>  (7) 
0

>  <i_epik_Tot_Q>  (7) 
0

>  <i_epik_Tot_abs_Q>  (7) 
0

>  <s_lp_Force_Field>  (7) 
OPLS3e

>  <r_lp_Energy>  (7) 
230.393

>  <b_lp_Chiralities_Consistent>  (7) 
1

>  <s_lp_Variant>  (7) 
2:0-2

>  <s_i_glide_gridfile>  (7) 
pfpi4k_grid

>  <i_i_glide_lignum>  (7) 
4

>  <i_i_glide_rotatable_bonds>  (7) 
4

>  <r_i_docking_score>  (7) 
-2.34883

>  <r_i_glide_ligand_efficiency>  (7) 
-0.063482

>  <r_i_glide_ligand_efficiency_sa>  (7) 
-0.211536

>  <r_i_glide_ligand_efficiency_ln>  (7) 
-0.509407

>  <r_i_glide_gscore>  (7) 
-2.34883

>  <r_i_glide_lipo>  (7) 
-0.448447

>  <r_i_glide_hbond>  (7) 
-0.0739887

>  <r_i_glide_metal>  (7) 
-0

>  <r_i_glide_rewards>  (7) 
-0.110892

>  <r_i_glide_evdw>  (7) 
-28.0453

>  <r_i_glide_ecoul>  (7) 
-3.0754

>  <r_i_glide_erotb>  (7) 
0.154902

>  <r_i_glide_esite>  (7) 
-0.00683144

>  <r_i_glide_emodel>  (7) 
-33.2208

>  <r_i_glide_energy>  (7) 
-31.1207

>  <r_i_glide_einternal>  (7) 
3.51626

>  <r_i_glide_intrahb_reward>  (7) 
-0

>  <i_i_glide_confnum>  (7) 
3

>  <i_i_glide_posenum>  (7) 
23

>  <r_i_glide_eff_state_penalty>  (7) 
0

>  <ligand_id>  (7) 
2

>  <original_smiles>  (7) 
COC1C2CCC3(C)C4C(O)C(C)C5(CCC6OC3C62COC1(C)C)C(=O)C(=O)C4(CC=C(C)C)C5=O

>  <smiles>  (7) 
[H]OC1([H])C([H])(C([H])([H])[H])C23C(=O)C(=O)C(C([H])([H])C([H])=C(C([H])([H])[H])C([H])([H])[H])(C2=O)C1([H])C1(C([H])([H])[H])C([H])([H])C([H])([H])C2([H])C([H])(OC([H])([H])[H])C(C([H])([H])[H])(C([H])([H])[H])OC([H])([H])C24C([H])(OC14[H])C([H])([H])C3([H])[H]

$$$$
2:1:1
     RDKit          3D

 79 84  0  0  1  0  0  0  0  0999 V2000
   -1.2835    0.9984    3.2501 C   0  0  0  0  0  0  0  0  0  0  0  0
   -0.2955    0.1688    3.9007 O   0  0  0  0  0  0  0  0  0  0  0  0
    0.8330   -0.2443    3.1064 C   0  0  2  0  0  0  0  0  0  0  0  0
    1.5546   -1.4302    3.7933 C   0  0  1  0  0  0  0  0  0  0  0  0
    0.8024   -2.5578    4.6351 C   0  0  0  0  0  0  0  0  0  0  0  0
    1.7228   -3.7104    5.2787 C   0  0  0  0  0  0  0  0  0  0  0  0
    3.0987   -4.0096    4.5553 C   0  0  1  0  0  0  0  0  0  0  0  0
    4.1646   -3.2265    5.3727 C   0  0  0  0  0  0  0  0  0  0  0  0
    3.5233   -5.5806    4.2775 C   0  0  2  0  0  0  0  0  0  0  0  0
    5.0385   -5.6787    3.8665 C   0  0  1  0  0  0  0  0  0  0  0  0
    5.6208   -6.8452    4.4301 O   0  0  0  0  0  0  0  0  0  0  0  0
    5.3629   -5.5033    2.3423 C   0  0  1  0  0  0  0  0  0  0  0  0
    6.7253   -6.1243    1.9449 C   0  0  0  0  0  0  0  0  0  0  0  0
    4.1573   -5.8065    1.3291 C   0  0  1  0  0  0  0  0  0  0  0  0
    4.1239   -4.7764    0.0995 C   0  0  0  0  0  0  0  0  0  0  0  0
    3.9213   -3.1640    0.3687 C   0  0  0  0  0  0  0  0  0  0  0  0
    2.8427   -2.6349    1.4305 C   0  0  1  0  0  0  0  0  0  0  0  0
    3.7319   -3.4265    2.2307 O   0  0  0  0  0  0  0  0  0  0  0  0
    2.8483   -3.3384    3.2568 C   0  0  2  0  0  0  0  0  0  0  0  0
    2.7250   -1.8960    2.8846 C   0  0  2  0  0  0  0  0  0  0  0  0
    3.7484   -0.7724    3.0073 C   0  0  0  0  0  0  0  0  0  0  0  0
    3.1555    0.3787    2.3958 O   0  0  0  0  0  0  0  0  0  0  0  0
    1.9113    0.8925    2.9052 C   0  0  0  0  0  0  0  0  0  0  0  0
    1.4961    1.9029    1.7975 C   0  0  0  0  0  0  0  0  0  0  0  0
    2.2299    1.6489    4.2118 C   0  0  0  0  0  0  0  0  0  0  0  0
    4.1206   -7.3231    1.2789 C   0  0  0  0  0  0  0  0  0  0  0  0
    4.6029   -8.0520    0.4110 O   0  0  0  0  0  0  0  0  0  0  0  0
    3.4109   -7.7671    2.6155 C   0  0  0  0  0  0  0  0  0  0  0  0
    3.4268   -8.8928    3.0916 O   0  0  0  0  0  0  0  0  0  0  0  0
    2.6882   -6.5336    3.2524 C   0  0  1  0  0  0  0  0  0  0  0  0
    1.2689   -6.9223    3.7721 C   0  0  0  0  0  0  0  0  0  0  0  0
    0.3371   -7.7305    2.8690 C   0  0  0  0  0  0  0  0  0  0  0  0
   -0.9366   -8.0555    3.1702 C   0  0  0  0  0  0  0  0  0  0  0  0
   -1.6233   -7.6754    4.4622 C   0  0  0  0  0  0  0  0  0  0  0  0
   -1.8079   -8.8427    2.2198 C   0  0  0  0  0  0  0  0  0  0  0  0
    2.7249   -5.8907    1.8942 C   0  0  0  0  0  0  0  0  0  0  0  0
    1.7075   -5.5957    1.2501 O   0  0  0  0  0  0  0  0  0  0  0  0
   -2.1641    1.0881    3.9004 H   0  0  0  0  0  0  0  0  0  0  0  0
   -1.6127    0.5335    2.3117 H   0  0  0  0  0  0  0  0  0  0  0  0
   -0.9704    1.9864    3.0560 H   0  0  0  0  0  0  0  0  0  0  0  0
    0.4734   -0.6112    2.1468 H   0  0  0  0  0  0  0  0  0  0  0  0
    2.0181   -0.9642    4.6643 H   0  0  0  0  0  0  0  0  0  0  0  0
    0.2442   -2.0763    5.4339 H   0  0  0  0  0  0  0  0  0  0  0  0
    0.0451   -3.0290    4.0093 H   0  0  0  0  0  0  0  0  0  0  0  0
    1.9093   -3.4671    6.3197 H   0  0  0  0  0  0  0  0  0  0  0  0
    1.1267   -4.6124    5.3789 H   0  0  0  0  0  0  0  0  0  0  0  0
    5.0350   -2.9388    4.7844 H   0  0  0  0  0  0  0  0  0  0  0  0
    4.5114   -3.7964    6.2330 H   0  0  0  0  0  0  0  0  0  0  0  0
    3.7730   -2.2905    5.7676 H   0  0  0  0  0  0  0  0  0  0  0  0
    3.4380   -6.0479    5.2613 H   0  0  0  0  0  0  0  0  0  0  0  0
    5.6298   -4.9298    4.3723 H   0  0  0  0  0  0  0  0  0  0  0  0
    5.2080   -7.6237    4.0907 H   0  0  0  0  0  0  0  0  0  0  0  0
    5.6490   -4.4620    2.2153 H   0  0  0  0  0  0  0  0  0  0  0  0
    6.7616   -7.2066    2.0758 H   0  0  0  0  0  0  0  0  0  0  0  0
    7.5160   -5.7066    2.5681 H   0  0  0  0  0  0  0  0  0  0  0  0
    6.9771   -5.9007    0.9078 H   0  0  0  0  0  0  0  0  0  0  0  0
    5.0382   -4.9114   -0.4845 H   0  0  0  0  0  0  0  0  0  0  0  0
    3.3332   -5.0740   -0.5917 H   0  0  0  0  0  0  0  0  0  0  0  0
    4.9050   -2.7163    0.5517 H   0  0  0  0  0  0  0  0  0  0  0  0
    3.6459   -2.7429   -0.5984 H   0  0  0  0  0  0  0  0  0  0  0  0
    1.8722   -3.0653    1.1530 H   0  0  0  0  0  0  0  0  0  0  0  0
    1.8962   -3.8107    2.9744 H   0  0  0  0  0  0  0  0  0  0  0  0
    4.0487   -0.5782    4.0382 H   0  0  0  0  0  0  0  0  0  0  0  0
    4.6558   -1.0142    2.4512 H   0  0  0  0  0  0  0  0  0  0  0  0
    0.6522    2.5091    2.0008 H   0  0  0  0  0  0  0  0  0  0  0  0
    1.3065    1.3084    0.8830 H   0  0  0  0  0  0  0  0  0  0  0  0
    2.3317    2.6015    1.6148 H   0  0  0  0  0  0  0  0  0  0  0  0
    1.3346    2.1017    4.6400 H   0  0  0  0  0  0  0  0  0  0  0  0
    2.9577    2.4417    4.0398 H   0  0  0  0  0  0  0  0  0  0  0  0
    2.6534    1.0149    4.9892 H   0  0  0  0  0  0  0  0  0  0  0  0
    1.3689   -7.4518    4.7239 H   0  0  0  0  0  0  0  0  0  0  0  0
    0.7046   -6.0132    3.9550 H   0  0  0  0  0  0  0  0  0  0  0  0
    0.7275   -8.0525    1.9135 H   0  0  0  0  0  0  0  0  0  0  0  0
   -1.9426   -8.5908    4.9688 H   0  0  0  0  0  0  0  0  0  0  0  0
   -2.5028   -7.0618    4.2676 H   0  0  0  0  0  0  0  0  0  0  0  0
   -0.9787   -7.1272    5.1529 H   0  0  0  0  0  0  0  0  0  0  0  0
   -2.1291   -9.7791    2.6796 H   0  0  0  0  0  0  0  0  0  0  0  0
   -1.2972   -9.0693    1.2860 H   0  0  0  0  0  0  0  0  0  0  0  0
   -2.6937   -8.2649    1.9700 H   0  0  0  0  0  0  0  0  0  0  0  0
  1  2  1  0
  1 38  1  0
  1 39  1  0
  1 40  1  0
  2  3  1  0
  3 23  1  0
  3  4  1  0
  3 41  1  6
  4 20  1  0
  4  5  1  0
  4 42  1  1
  5  6  1  0
  5 43  1  0
  5 44  1  0
  6  7  1  0
  6 45  1  0
  6 46  1  0
  7 19  1  0
  7  8  1  1
  7  9  1  0
  8 47  1  0
  8 48  1  0
  8 49  1  0
  9 30  1  0
  9 10  1  0
  9 50  1  1
 10 11  1  0
 10 12  1  0
 10 51  1  1
 11 52  1  0
 12 13  1  0
 12 14  1  0
 12 53  1  1
 13 54  1  0
 13 55  1  0
 13 56  1  0
 14 36  1  0
 14 15  1  6
 14 26  1  0
 15 16  1  0
 15 57  1  0
 15 58  1  0
 16 17  1  0
 16 59  1  0
 16 60  1  0
 17 20  1  0
 17 18  1  0
 17 61  1  6
 18 19  1  0
 19 20  1  0
 19 62  1  6
 20 21  1  1
 21 22  1  0
 21 63  1  0
 21 64  1  0
 22 23  1  0
 23 24  1  0
 23 25  1  0
 24 65  1  0
 24 66  1  0
 24 67  1  0
 25 68  1  0
 25 69  1  0
 25 70  1  0
 26 27  2  0
 26 28  1  0
 28 29  2  0
 28 30  1  0
 30 31  1  1
 30 36  1  0
 31 32  1  0
 31 71  1  0
 31 72  1  0
 32 33  2  3
 32 73  1  0
 33 34  1  0
 33 35  1  0
 34 74  1  0
 34 75  1  0
 34 76  1  0
 35 77  1  0
 35 78  1  0
 35 79  1  0
 36 37  2  0
M  END
>  <i_m_ct_stereo_status>  (8) 
1

>  <s_m_source_file>  (8) 
/var/tmp/pbs.5076255.sched01/tmpyb5u0fxv/0ob_ovo1_.sdf

>  <i_m_source_file_index>  (8) 
4

>  <i_lp_mmshare_version>  (8) 
48012

>  <i_f3d_flags>  (8) 
0

>  <s_epik_input>  (8) 
W0NIMl0xT0MoW0NIM10pKFtDSDNdKVtDQEhdKE9bQ0gzXSlbQ0BASF0oW0NIMl1bQ0gyXTIpW0NAXTEoW0NASF0oTzMpW0NIMl1bQ0gyXTQpW0NIXTNbQ0BdMihbQ0gzXSlbQ0BIXShbQ0BASF0oW09IXSlbQ0BIXShbQ0BAXTQ1NilbQ0gzXSlbQ0BAXShDNj1PKShDKD1PKUM1PU8pW0NIMl1bQ0hdPUMoW0NIM10pW0NIM10=

>  <s_epik_cmdline>  (8) 
J2VwaWtfcHl0aG9uJywgJy1waHQnLCAnMi4wJywgJy1waCcsICc3LjAnLCAnLXRuJywgJzgnLCAnLW1hJywgJzIwMCcsICctaW1hZScsICc8aW5maWxlLm1hZT4nLCAnLW9tYWUnLCAnPG91dGZpbGUubWFlPic=

>  <r_lp_tautomer_probability>  (8) 
1

>  <r_epik_Ionization_Penalty>  (8) 
2.0988e-06

>  <r_epik_Ionization_Penalty_Charging>  (8) 
0

>  <r_epik_Ionization_Penalty_Neutral>  (8) 
2.0988e-06

>  <r_epik_State_Penalty>  (8) 
-0

>  <r_epik_Charging_Adjusted_Penalty>  (8) 
0

>  <i_epik_Tot_Q>  (8) 
0

>  <i_epik_Tot_abs_Q>  (8) 
0

>  <s_lp_Force_Field>  (8) 
OPLS3e

>  <r_lp_Energy>  (8) 
230.393

>  <b_lp_Chiralities_Consistent>  (8) 
1

>  <s_lp_Variant>  (8) 
2:0-2

>  <s_i_glide_gridfile>  (8) 
pfpi4k_grid

>  <i_i_glide_lignum>  (8) 
4

>  <i_i_glide_rotatable_bonds>  (8) 
4

>  <r_i_docking_score>  (8) 
-2.31865

>  <r_i_glide_ligand_efficiency>  (8) 
-0.0626662

>  <r_i_glide_ligand_efficiency_sa>  (8) 
-0.208818

>  <r_i_glide_ligand_efficiency_ln>  (8) 
-0.502861

>  <r_i_glide_gscore>  (8) 
-2.31865

>  <r_i_glide_lipo>  (8) 
-0.366434

>  <r_i_glide_hbond>  (8) 
-0.100536

>  <r_i_glide_metal>  (8) 
-0

>  <r_i_glide_rewards>  (8) 
-0.132758

>  <r_i_glide_evdw>  (8) 
-26.4575

>  <r_i_glide_ecoul>  (8) 
-3.6161

>  <r_i_glide_erotb>  (8) 
0.154902

>  <r_i_glide_esite>  (8) 
-0.0085321

>  <r_i_glide_emodel>  (8) 
-32.2588

>  <r_i_glide_energy>  (8) 
-30.0736

>  <r_i_glide_einternal>  (8) 
3.19803

>  <r_i_glide_intrahb_reward>  (8) 
-0

>  <i_i_glide_confnum>  (8) 
1

>  <i_i_glide_posenum>  (8) 
11

>  <r_i_glide_eff_state_penalty>  (8) 
0

>  <ligand_id>  (8) 
2

>  <original_smiles>  (8) 
COC1C2CCC3(C)C4C(O)C(C)C5(CCC6OC3C62COC1(C)C)C(=O)C(=O)C4(CC=C(C)C)C5=O

>  <smiles>  (8) 
[H]OC1([H])C([H])(C([H])([H])[H])C23C(=O)C(=O)C(C([H])([H])C([H])=C(C([H])([H])[H])C([H])([H])[H])(C2=O)C1([H])C1(C([H])([H])[H])C([H])([H])C([H])([H])C2([H])C([H])(OC([H])([H])[H])C(C([H])([H])[H])(C([H])([H])[H])OC([H])([H])C24C([H])(OC14[H])C([H])([H])C3([H])[H]

$$$$
2:1:2
     RDKit          3D

 79 84  0  0  1  0  0  0  0  0999 V2000
   -1.1270    0.8860    3.5997 C   0  0  0  0  0  0  0  0  0  0  0  0
   -0.0047    0.2033    4.1831 O   0  0  0  0  0  0  0  0  0  0  0  0
    1.0302   -0.2159    3.2807 C   0  0  2  0  0  0  0  0  0  0  0  0
    1.8414   -1.3811    3.8914 C   0  0  1  0  0  0  0  0  0  0  0  0
    1.2084   -2.5083    4.8170 C   0  0  0  0  0  0  0  0  0  0  0  0
    2.2173   -3.6405    5.3635 C   0  0  0  0  0  0  0  0  0  0  0  0
    3.5110   -3.9249    4.4871 C   0  0  1  0  0  0  0  0  0  0  0  0
    4.6451   -3.1185    5.1751 C   0  0  0  0  0  0  0  0  0  0  0  0
    3.9222   -5.4848    4.1738 C   0  0  2  0  0  0  0  0  0  0  0  0
    5.3861   -5.5585    3.6010 C   0  0  1  0  0  0  0  0  0  0  0  0
    5.9971   -6.7361    4.0849 O   0  0  0  0  0  0  0  0  0  0  0  0
    5.5323   -5.4020    2.0436 C   0  0  1  0  0  0  0  0  0  0  0  0
    6.8510   -6.0066    1.5031 C   0  0  0  0  0  0  0  0  0  0  0  0
    4.2308   -5.7364    1.1833 C   0  0  1  0  0  0  0  0  0  0  0  0
    4.0362   -4.7179   -0.0506 C   0  0  0  0  0  0  0  0  0  0  0  0
    3.8379   -3.1063    0.2323 C   0  0  0  0  0  0  0  0  0  0  0  0
    2.8672   -2.5759    1.4009 C   0  0  1  0  0  0  0  0  0  0  0  0
    3.8721   -3.3566    2.1021 O   0  0  0  0  0  0  0  0  0  0  0  0
    3.0971   -3.2683    3.2258 C   0  0  2  0  0  0  0  0  0  0  0  0
    2.9151   -1.8288    2.8573 C   0  0  2  0  0  0  0  0  0  0  0  0
    3.9260   -0.6940    2.8527 C   0  0  0  0  0  0  0  0  0  0  0  0
    3.2443    0.4428    2.3013 O   0  0  0  0  0  0  0  0  0  0  0  0
    2.0556    0.9445    2.9442 C   0  0  0  0  0  0  0  0  0  0  0  0
    1.4840    1.9332    1.9034 C   0  0  0  0  0  0  0  0  0  0  0  0
    2.5114    1.7128    4.2069 C   0  0  0  0  0  0  0  0  0  0  0  0
    4.2146   -7.2525    1.1476 C   0  0  0  0  0  0  0  0  0  0  0  0
    4.6163   -7.9892    0.2263 O   0  0  0  0  0  0  0  0  0  0  0  0
    3.6526   -7.6871    2.5564 C   0  0  0  0  0  0  0  0  0  0  0  0
    3.7172   -8.8374    3.0261 O   0  0  0  0  0  0  0  0  0  0  0  0
    3.0055   -6.4617    3.2480 C   0  0  1  0  0  0  0  0  0  0  0  0
    1.6546   -6.8454    3.9409 C   0  0  0  0  0  0  0  0  0  0  0  0
    0.6506   -7.7148    3.1724 C   0  0  0  0  0  0  0  0  0  0  0  0
    0.1974   -8.9394    3.5095 C   0  0  0  0  0  0  0  0  0  0  0  0
    0.6495   -9.7249    4.7325 C   0  0  0  0  0  0  0  0  0  0  0  0
   -0.8491   -9.6462    2.6622 C   0  0  0  0  0  0  0  0  0  0  0  0
    2.8752   -5.8317    1.8921 C   0  0  0  0  0  0  0  0  0  0  0  0
    1.7888   -5.5360    1.3663 O   0  0  0  0  0  0  0  0  0  0  0  0
   -1.9014    1.0133    4.3750 H   0  0  0  0  0  0  0  0  0  0  0  0
   -1.5713    0.2574    2.8204 H   0  0  0  0  0  0  0  0  0  0  0  0
   -0.9010    1.8467    3.1980 H   0  0  0  0  0  0  0  0  0  0  0  0
    0.5752   -0.5995    2.3675 H   0  0  0  0  0  0  0  0  0  0  0  0
    2.3978   -0.8957    4.7008 H   0  0  0  0  0  0  0  0  0  0  0  0
    0.7403   -2.0311    5.6711 H   0  0  0  0  0  0  0  0  0  0  0  0
    0.3973   -2.9961    4.2790 H   0  0  0  0  0  0  0  0  0  0  0  0
    2.5187   -3.3827    6.3721 H   0  0  0  0  0  0  0  0  0  0  0  0
    1.6517   -4.5572    5.5336 H   0  0  0  0  0  0  0  0  0  0  0  0
    5.4369   -2.8227    4.4854 H   0  0  0  0  0  0  0  0  0  0  0  0
    5.0981   -3.6773    5.9939 H   0  0  0  0  0  0  0  0  0  0  0  0
    4.2852   -2.1851    5.6034 H   0  0  0  0  0  0  0  0  0  0  0  0
    3.9509   -5.9491    5.1645 H   0  0  0  0  0  0  0  0  0  0  0  0
    6.0278   -4.8002    4.0353 H   0  0  0  0  0  0  0  0  0  0  0  0
    6.0268   -6.6823    5.0336 H   0  0  0  0  0  0  0  0  0  0  0  0
    5.7860   -4.3593    1.8779 H   0  0  0  0  0  0  0  0  0  0  0  0
    6.9151   -7.0885    1.6356 H   0  0  0  0  0  0  0  0  0  0  0  0
    7.7016   -5.5723    2.0266 H   0  0  0  0  0  0  0  0  0  0  0  0
    6.9752   -5.7900    0.4407 H   0  0  0  0  0  0  0  0  0  0  0  0
    4.8784   -4.8424   -0.7333 H   0  0  0  0  0  0  0  0  0  0  0  0
    3.1804   -5.0430   -0.6400 H   0  0  0  0  0  0  0  0  0  0  0  0
    4.8260   -2.6408    0.2965 H   0  0  0  0  0  0  0  0  0  0  0  0
    3.4452   -2.6979   -0.7014 H   0  0  0  0  0  0  0  0  0  0  0  0
    1.8893   -3.0310    1.2422 H   0  0  0  0  0  0  0  0  0  0  0  0
    2.1337   -3.7639    3.0549 H   0  0  0  0  0  0  0  0  0  0  0  0
    4.3355   -0.4839    3.8421 H   0  0  0  0  0  0  0  0  0  0  0  0
    4.7655   -0.9245    2.2004 H   0  0  0  0  0  0  0  0  0  0  0  0
    0.6540    2.5059    2.2520 H   0  0  0  0  0  0  0  0  0  0  0  0
    1.1963    1.3656    1.0069 H   0  0  0  0  0  0  0  0  0  0  0  0
    2.2765    2.6447    1.6147 H   0  0  0  0  0  0  0  0  0  0  0  0
    1.6640    2.1573    4.7292 H   0  0  0  0  0  0  0  0  0  0  0  0
    3.2023    2.5168    3.9453 H   0  0  0  0  0  0  0  0  0  0  0  0
    3.0334    1.0948    4.9359 H   0  0  0  0  0  0  0  0  0  0  0  0
    1.9112   -7.2653    4.9182 H   0  0  0  0  0  0  0  0  0  0  0  0
    1.0704   -5.9498    4.1431 H   0  0  0  0  0  0  0  0  0  0  0  0
    0.2530   -7.2765    2.2695 H   0  0  0  0  0  0  0  0  0  0  0  0
    1.0589  -10.6846    4.4153 H   0  0  0  0  0  0  0  0  0  0  0  0
   -0.1964   -9.9122    5.3917 H   0  0  0  0  0  0  0  0  0  0  0  0
    1.4110   -9.2329    5.3372 H   0  0  0  0  0  0  0  0  0  0  0  0
   -0.4566  -10.5975    2.3026 H   0  0  0  0  0  0  0  0  0  0  0  0
   -1.1585   -9.0599    1.7924 H   0  0  0  0  0  0  0  0  0  0  0  0
   -1.7404   -9.8527    3.2587 H   0  0  0  0  0  0  0  0  0  0  0  0
  1  2  1  0
  1 38  1  0
  1 39  1  0
  1 40  1  0
  2  3  1  0
  3 23  1  0
  3  4  1  0
  3 41  1  6
  4 20  1  0
  4  5  1  0
  4 42  1  1
  5  6  1  0
  5 43  1  0
  5 44  1  0
  6  7  1  0
  6 45  1  0
  6 46  1  0
  7 19  1  0
  7  8  1  1
  7  9  1  0
  8 47  1  0
  8 48  1  0
  8 49  1  0
  9 30  1  0
  9 10  1  0
  9 50  1  1
 10 11  1  0
 10 12  1  0
 10 51  1  1
 11 52  1  0
 12 13  1  0
 12 14  1  0
 12 53  1  1
 13 54  1  0
 13 55  1  0
 13 56  1  0
 14 36  1  0
 14 15  1  6
 14 26  1  0
 15 16  1  0
 15 57  1  0
 15 58  1  0
 16 17  1  0
 16 59  1  0
 16 60  1  0
 17 20  1  0
 17 18  1  0
 17 61  1  6
 18 19  1  0
 19 20  1  0
 19 62  1  6
 20 21  1  6
 21 22  1  0
 21 63  1  0
 21 64  1  0
 22 23  1  0
 23 24  1  0
 23 25  1  0
 24 65  1  0
 24 66  1  0
 24 67  1  0
 25 68  1  0
 25 69  1  0
 25 70  1  0
 26 27  2  0
 26 28  1  0
 28 29  2  0
 28 30  1  0
 30 31  1  1
 30 36  1  0
 31 32  1  0
 31 71  1  0
 31 72  1  0
 32 33  2  3
 32 73  1  0
 33 34  1  0
 33 35  1  0
 34 74  1  0
 34 75  1  0
 34 76  1  0
 35 77  1  0
 35 78  1  0
 35 79  1  0
 36 37  2  0
M  END
>  <i_m_ct_stereo_status>  (9) 
1

>  <s_m_source_file>  (9) 
/var/tmp/pbs.5076255.sched01/tmpyb5u0fxv/0ob_ovo1_.sdf

>  <i_m_source_file_index>  (9) 
4

>  <i_lp_mmshare_version>  (9) 
48012

>  <i_f3d_flags>  (9) 
0

>  <s_epik_input>  (9) 
W0NIMl0xT0MoW0NIM10pKFtDSDNdKVtDQEhdKE9bQ0gzXSlbQ0BASF0oW0NIMl1bQ0gyXTIpW0NAXTEoW0NASF0oTzMpW0NIMl1bQ0gyXTQpW0NIXTNbQ0BdMihbQ0gzXSlbQ0BIXShbQ0BASF0oW09IXSlbQ0BIXShbQ0BAXTQ1NilbQ0gzXSlbQ0BAXShDNj1PKShDKD1PKUM1PU8pW0NIMl1bQ0hdPUMoW0NIM10pW0NIM10=

>  <s_epik_cmdline>  (9) 
J2VwaWtfcHl0aG9uJywgJy1waHQnLCAnMi4wJywgJy1waCcsICc3LjAnLCAnLXRuJywgJzgnLCAnLW1hJywgJzIwMCcsICctaW1hZScsICc8aW5maWxlLm1hZT4nLCAnLW9tYWUnLCAnPG91dGZpbGUubWFlPic=

>  <r_lp_tautomer_probability>  (9) 
1

>  <r_epik_Ionization_Penalty>  (9) 
2.0988e-06

>  <r_epik_Ionization_Penalty_Charging>  (9) 
0

>  <r_epik_Ionization_Penalty_Neutral>  (9) 
2.0988e-06

>  <r_epik_State_Penalty>  (9) 
-0

>  <r_epik_Charging_Adjusted_Penalty>  (9) 
0

>  <i_epik_Tot_Q>  (9) 
0

>  <i_epik_Tot_abs_Q>  (9) 
0

>  <s_lp_Force_Field>  (9) 
OPLS3e

>  <r_lp_Energy>  (9) 
230.393

>  <b_lp_Chiralities_Consistent>  (9) 
1

>  <s_lp_Variant>  (9) 
2:0-2

>  <s_i_glide_gridfile>  (9) 
pfpi4k_grid

>  <i_i_glide_lignum>  (9) 
4

>  <i_i_glide_rotatable_bonds>  (9) 
4

>  <r_i_docking_score>  (9) 
-2.02937

>  <r_i_glide_ligand_efficiency>  (9) 
-0.0548479

>  <r_i_glide_ligand_efficiency_sa>  (9) 
-0.182765

>  <r_i_glide_ligand_efficiency_ln>  (9) 
-0.440124

>  <r_i_glide_gscore>  (9) 
-2.02937

>  <r_i_glide_lipo>  (9) 
-0.257092

>  <r_i_glide_hbond>  (9) 
-0.0725023

>  <r_i_glide_metal>  (9) 
-0

>  <r_i_glide_rewards>  (9) 
-0.146139

>  <r_i_glide_evdw>  (9) 
-25.7849

>  <r_i_glide_ecoul>  (9) 
-2.76612

>  <r_i_glide_erotb>  (9) 
0.154902

>  <r_i_glide_esite>  (9) 
-0.00437783

>  <r_i_glide_emodel>  (9) 
-31.0831

>  <r_i_glide_energy>  (9) 
-28.551

>  <r_i_glide_einternal>  (9) 
1.15536

>  <r_i_glide_intrahb_reward>  (9) 
-0

>  <i_i_glide_confnum>  (9) 
1

>  <i_i_glide_posenum>  (9) 
8

>  <r_i_glide_eff_state_penalty>  (9) 
0

>  <ligand_id>  (9) 
2

>  <original_smiles>  (9) 
COC1C2CCC3(C)C4C(O)C(C)C5(CCC6OC3C62COC1(C)C)C(=O)C(=O)C4(CC=C(C)C)C5=O

>  <smiles>  (9) 
[H]OC1([H])C([H])(C([H])([H])[H])C23C(=O)C(=O)C(C([H])([H])C([H])=C(C([H])([H])[H])C([H])([H])[H])(C2=O)C1([H])C1(C([H])([H])[H])C([H])([H])C([H])([H])C2([H])C([H])(OC([H])([H])[H])C(C([H])([H])[H])(C([H])([H])[H])OC([H])([H])C24C([H])(OC14[H])C([H])([H])C3([H])[H]

$$$$
3:0:0
     RDKit          3D

 48 53  0  0  1  0  0  0  0  0999 V2000
    8.7378   -5.5317    1.9376 C   0  0  0  0  0  0  0  0  0  0  0  0
    7.9819   -4.6194    0.9966 C   0  0  0  0  0  0  0  0  0  0  0  0
    8.2687   -4.5811   -0.2101 O   0  0  0  0  0  0  0  0  0  0  0  0
    7.0105   -3.9047    1.6111 O   0  0  0  0  0  0  0  0  0  0  0  0
    5.8750   -3.3303    0.9743 C   0  0  2  0  0  0  0  0  0  0  0  0
    6.0923   -2.1523   -0.0528 C   0  0  1  0  0  0  0  0  0  0  0  0
    7.2421   -2.2109   -0.8783 O   0  0  0  0  0  0  0  0  0  0  0  0
    4.8954   -2.3935   -0.9876 C   0  0  2  0  0  0  0  0  0  0  0  0
    4.0986   -1.2295   -1.5773 C   0  0  1  0  0  0  0  0  0  0  0  0
    4.9268   -0.2740   -2.1971 O   0  0  0  0  0  0  0  0  0  0  0  0
    3.0679   -1.7676   -2.5968 C   0  0  1  0  0  0  0  0  0  0  0  0
    3.6201   -1.9391   -4.0207 C   0  0  0  0  0  0  0  0  0  0  0  0
    2.4244   -3.0715   -2.1337 C   0  0  0  0  0  0  0  0  0  0  0  0
    2.8175   -3.7773   -1.0559 C   0  0  0  0  0  0  0  0  0  0  0  0
    3.9847   -3.3466   -0.1976 C   0  0  2  0  0  0  0  0  0  0  0  0
    3.5169   -2.7704    1.1601 C   0  0  0  0  0  0  0  0  0  0  0  0
    4.8104   -2.7839    1.9820 C   0  0  1  0  0  0  0  0  0  0  0  0
    4.7915   -3.3967    3.3997 C   0  0  1  0  0  0  0  0  0  0  0  0
    3.5942   -3.8279    4.1341 C   0  0  0  0  0  0  0  0  0  0  0  0
    4.6630   -4.8721    3.7681 C   0  0  2  0  0  0  0  0  0  0  0  0
    3.8305   -5.9878    3.3650 O   0  0  0  0  0  0  0  0  0  0  0  0
    4.9184   -5.7319    2.5190 C   0  0  1  0  0  0  0  0  0  0  0  0
    4.4191   -5.5468    1.0977 C   0  0  0  0  0  0  0  0  0  0  0  0
    5.0173   -4.3909    0.2424 C   0  0  2  0  0  0  0  0  0  0  0  0
    8.3527   -5.5018    2.9667 H   0  0  0  0  0  0  0  0  0  0  0  0
    9.8010   -5.2855    1.9556 H   0  0  0  0  0  0  0  0  0  0  0  0
    8.6402   -6.5543    1.5667 H   0  0  0  0  0  0  0  0  0  0  0  0
    6.0597   -1.1692    0.4214 H   0  0  0  0  0  0  0  0  0  0  0  0
    7.4378   -3.1275   -1.0663 H   0  0  0  0  0  0  0  0  0  0  0  0
    5.2597   -2.9743   -1.8377 H   0  0  0  0  0  0  0  0  0  0  0  0
    3.5780   -0.7187   -0.7669 H   0  0  0  0  0  0  0  0  0  0  0  0
    5.0263    0.4560   -1.5967 H   0  0  0  0  0  0  0  0  0  0  0  0
    2.2739   -1.0238   -2.6505 H   0  0  0  0  0  0  0  0  0  0  0  0
    2.8232   -2.2745   -4.6841 H   0  0  0  0  0  0  0  0  0  0  0  0
    4.4211   -2.6755   -4.0685 H   0  0  0  0  0  0  0  0  0  0  0  0
    3.9892   -0.9970   -4.4265 H   0  0  0  0  0  0  0  0  0  0  0  0
    1.6068   -3.4300   -2.7406 H   0  0  0  0  0  0  0  0  0  0  0  0
    2.3305   -4.7010   -0.7886 H   0  0  0  0  0  0  0  0  0  0  0  0
    3.0958   -1.7646    1.0660 H   0  0  0  0  0  0  0  0  0  0  0  0
    2.7242   -3.3887    1.5744 H   0  0  0  0  0  0  0  0  0  0  0  0
    5.0389   -1.7486    2.2090 H   0  0  0  0  0  0  0  0  0  0  0  0
    5.5241   -2.8815    4.0461 H   0  0  0  0  0  0  0  0  0  0  0  0
    3.5020   -3.5924    5.1974 H   0  0  0  0  0  0  0  0  0  0  0  0
    2.6565   -3.9342    3.6071 H   0  0  0  0  0  0  0  0  0  0  0  0
    5.7759   -6.3889    2.6345 H   0  0  0  0  0  0  0  0  0  0  0  0
    4.6266   -6.4855    0.5960 H   0  0  0  0  0  0  0  0  0  0  0  0
    3.3374   -5.4893    1.1435 H   0  0  0  0  0  0  0  0  0  0  0  0
    5.5600   -4.8281   -0.6007 H   0  0  0  0  0  0  0  0  0  0  0  0
  1  2  1  0
  1 25  1  0
  1 26  1  0
  1 27  1  0
  2  3  2  0
  2  4  1  0
  5  4  1  1
  5 17  1  0
  5 24  1  0
  5  6  1  0
  6  7  1  0
  6  8  1  0
  6 28  1  1
  7 29  1  0
  8 15  1  0
  8  9  1  0
  8 30  1  6
  9 10  1  0
  9 11  1  0
  9 31  1  1
 10 32  1  0
 11 12  1  0
 11 13  1  0
 11 33  1  6
 12 34  1  0
 12 35  1  0
 12 36  1  0
 13 14  2  0
 13 37  1  0
 14 15  1  0
 14 38  1  0
 15 24  1  0
 15 16  1  1
 16 17  1  0
 16 39  1  0
 16 40  1  0
 17 18  1  0
 17 41  1  1
 18 20  1  0
 18 19  1  0
 18 42  1  1
 19 20  1  0
 19 43  1  0
 19 44  1  0
 20 22  1  0
 20 21  1  1
 21 22  1  0
 22 23  1  0
 22 45  1  6
 23 24  1  0
 23 46  1  0
 23 47  1  0
 24 48  1  6
M  END
>  <i_m_ct_stereo_status>  (10) 
1

>  <s_m_source_file>  (10) 
/var/tmp/pbs.5076255.sched01/tmpyb5u0fxv/0ob_ovo1_.sdf

>  <i_m_source_file_index>  (10) 
5

>  <i_lp_mmshare_version>  (10) 
48012

>  <i_f3d_flags>  (10) 
0

>  <s_epik_input>  (10) 
W0NAQEhdMTJbQ0gyXVtDQEhdKE8zKUMzKFtDSDJdNClbQ0BIXTRbQ0BIXShbQ0gyXTUpW0NAXTEoT0MoPU8pW0NIM10pW0NAQEhdKFtPSF0pW0NAQEhdKFtDQEBdMjU2KVtDQEBIXShbT0hdKVtDQEBIXShbQ0gzXSlbQ0hdPVtDSF02

>  <s_epik_cmdline>  (10) 
J2VwaWtfcHl0aG9uJywgJy1waHQnLCAnMi4wJywgJy1waCcsICc3LjAnLCAnLXRuJywgJzgnLCAnLW1hJywgJzIwMCcsICctaW1hZScsICc8aW5maWxlLm1hZT4nLCAnLW9tYWUnLCAnPG91dGZpbGUubWFlPic=

>  <r_lp_tautomer_probability>  (10) 
1

>  <r_epik_Ionization_Penalty>  (10) 
3.0297e-07

>  <r_epik_Ionization_Penalty_Charging>  (10) 
0

>  <r_epik_Ionization_Penalty_Neutral>  (10) 
3.0297e-07

>  <r_epik_State_Penalty>  (10) 
-0

>  <r_epik_Charging_Adjusted_Penalty>  (10) 
0

>  <i_epik_Tot_Q>  (10) 
0

>  <i_epik_Tot_abs_Q>  (10) 
0

>  <s_epik_Chemistry_Notes>  (10) 
This compound has an ester and may undergo hydrolysis at high or low pH.

>  <s_lp_Force_Field>  (10) 
OPLS3e

>  <r_lp_Energy>  (10) 
79.0559

>  <b_lp_Chiralities_Consistent>  (10) 
1

>  <s_lp_Variant>  (10) 
3:0-1

>  <s_i_glide_gridfile>  (10) 
pfpi4k_grid

>  <i_i_glide_lignum>  (10) 
5

>  <i_i_glide_rotatable_bonds>  (10) 
4

>  <r_i_docking_score>  (10) 
-4.31954

>  <r_i_glide_ligand_efficiency>  (10) 
-0.179981

>  <r_i_glide_ligand_efficiency_sa>  (10) 
-0.519154

>  <r_i_glide_ligand_efficiency_ln>  (10) 
-1.03386

>  <r_i_glide_gscore>  (10) 
-4.31954

>  <r_i_glide_lipo>  (10) 
-0.3494

>  <r_i_glide_hbond>  (10) 
0

>  <r_i_glide_metal>  (10) 
-0

>  <r_i_glide_rewards>  (10) 
-1.83683

>  <r_i_glide_evdw>  (10) 
-19.6851

>  <r_i_glide_ecoul>  (10) 
-8.79683

>  <r_i_glide_erotb>  (10) 
0.170467

>  <r_i_glide_esite>  (10) 
0

>  <r_i_glide_emodel>  (10) 
-35.8306

>  <r_i_glide_energy>  (10) 
-28.4819

>  <r_i_glide_einternal>  (10) 
8.45776

>  <r_i_glide_intrahb_reward>  (10) 
-0.5

>  <i_i_glide_confnum>  (10) 
3

>  <i_i_glide_posenum>  (10) 
19

>  <r_i_glide_eff_state_penalty>  (10) 
0

>  <ligand_id>  (10) 
3

>  <original_smiles>  (10) 
CC(=O)OC12C(O)C3C(O)C(C)C=CC34CC1C1CC13OC3CC42

>  <smiles>  (10) 
[H]OC1([H])C([H])(C([H])([H])[H])C([H])=C([H])C23C([H])([H])C4([H])C5([H])C([H])([H])C56OC6([H])C([H])([H])C2([H])C4(OC(=O)C([H])([H])[H])C([H])(O[H])C13[H]

$$$$
3:0:1
     RDKit          3D

 48 53  0  0  1  0  0  0  0  0999 V2000
    9.1187   -5.6389    2.0890 C   0  0  0  0  0  0  0  0  0  0  0  0
    8.3166   -4.6592    1.2658 C   0  0  0  0  0  0  0  0  0  0  0  0
    8.8376   -3.6167    0.8702 O   0  0  0  0  0  0  0  0  0  0  0  0
    7.0556   -5.0949    1.0443 O   0  0  0  0  0  0  0  0  0  0  0  0
    5.9711   -4.2742    0.5902 C   0  0  2  0  0  0  0  0  0  0  0  0
    6.2978   -3.0705   -0.3638 C   0  0  1  0  0  0  0  0  0  0  0  0
    7.2983   -3.3366   -1.3242 O   0  0  0  0  0  0  0  0  0  0  0  0
    4.9929   -2.9203   -1.1426 C   0  0  2  0  0  0  0  0  0  0  0  0
    4.4077   -1.5332   -1.4216 C   0  0  1  0  0  0  0  0  0  0  0  0
    5.3886   -0.6642   -1.9257 O   0  0  0  0  0  0  0  0  0  0  0  0
    3.1824   -1.6935   -2.3681 C   0  0  1  0  0  0  0  0  0  0  0  0
    3.4981   -1.6950   -3.8720 C   0  0  0  0  0  0  0  0  0  0  0  0
    2.3455   -2.9358   -2.0266 C   0  0  0  0  0  0  0  0  0  0  0  0
    2.6967   -3.8468   -1.1064 C   0  0  0  0  0  0  0  0  0  0  0  0
    4.0071   -3.7920   -0.3568 C   0  0  2  0  0  0  0  0  0  0  0  0
    3.8070   -3.3408    1.1127 C   0  0  0  0  0  0  0  0  0  0  0  0
    5.1473   -3.7047    1.7755 C   0  0  1  0  0  0  0  0  0  0  0  0
    5.1531   -4.5556    3.0614 C   0  0  1  0  0  0  0  0  0  0  0  0
    3.9915   -4.8955    3.8787 C   0  0  0  0  0  0  0  0  0  0  0  0
    4.7835   -6.0467    3.2171 C   0  0  2  0  0  0  0  0  0  0  0  0
    3.7043   -6.9036    2.7758 O   0  0  0  0  0  0  0  0  0  0  0  0
    4.7236   -6.7139    1.8375 C   0  0  1  0  0  0  0  0  0  0  0  0
    4.1278   -6.1986    0.5447 C   0  0  0  0  0  0  0  0  0  0  0  0
    4.8716   -5.0516   -0.1777 C   0  0  2  0  0  0  0  0  0  0  0  0
    8.5712   -6.5656    2.2706 H   0  0  0  0  0  0  0  0  0  0  0  0
    9.3648   -5.1767    3.0422 H   0  0  0  0  0  0  0  0  0  0  0  0
   10.0517   -5.8533    1.5748 H   0  0  0  0  0  0  0  0  0  0  0  0
    6.5706   -2.1668    0.1807 H   0  0  0  0  0  0  0  0  0  0  0  0
    8.1129   -3.4400   -0.8465 H   0  0  0  0  0  0  0  0  0  0  0  0
    5.1300   -3.3922   -2.1221 H   0  0  0  0  0  0  0  0  0  0  0  0
    4.0746   -1.0797   -0.4904 H   0  0  0  0  0  0  0  0  0  0  0  0
    5.0582    0.2349   -1.8324 H   0  0  0  0  0  0  0  0  0  0  0  0
    2.5606   -0.8143   -2.2096 H   0  0  0  0  0  0  0  0  0  0  0  0
    2.5688   -1.7441   -4.4408 H   0  0  0  0  0  0  0  0  0  0  0  0
    4.1049   -2.5557   -4.1472 H   0  0  0  0  0  0  0  0  0  0  0  0
    4.0089   -0.7840   -4.1835 H   0  0  0  0  0  0  0  0  0  0  0  0
    1.3952   -3.0251   -2.5302 H   0  0  0  0  0  0  0  0  0  0  0  0
    2.0349   -4.6911   -0.9030 H   0  0  0  0  0  0  0  0  0  0  0  0
    3.5907   -2.2787    1.2153 H   0  0  0  0  0  0  0  0  0  0  0  0
    2.9643   -3.8597    1.5527 H   0  0  0  0  0  0  0  0  0  0  0  0
    5.6156   -2.7827    2.0990 H   0  0  0  0  0  0  0  0  0  0  0  0
    6.0453   -4.3410    3.6390 H   0  0  0  0  0  0  0  0  0  0  0  0
    4.0723   -4.8077    4.9651 H   0  0  0  0  0  0  0  0  0  0  0  0
    2.9983   -4.6750    3.4858 H   0  0  0  0  0  0  0  0  0  0  0  0
    5.4534   -7.5093    1.7256 H   0  0  0  0  0  0  0  0  0  0  0  0
    4.0671   -7.0504   -0.1250 H   0  0  0  0  0  0  0  0  0  0  0  0
    3.0864   -5.9474    0.7451 H   0  0  0  0  0  0  0  0  0  0  0  0
    5.2395   -5.4333   -1.1298 H   0  0  0  0  0  0  0  0  0  0  0  0
  1  2  1  0
  1 25  1  0
  1 26  1  0
  1 27  1  0
  2  3  2  0
  2  4  1  0
  5  4  1  1
  5 17  1  0
  5 24  1  0
  5  6  1  0
  6  7  1  0
  6  8  1  0
  6 28  1  1
  7 29  1  0
  8 15  1  0
  8  9  1  0
  8 30  1  6
  9 10  1  0
  9 11  1  0
  9 31  1  1
 10 32  1  0
 11 12  1  0
 11 13  1  0
 11 33  1  6
 12 34  1  0
 12 35  1  0
 12 36  1  0
 13 14  2  0
 13 37  1  0
 14 15  1  0
 14 38  1  0
 15 24  1  0
 15 16  1  1
 16 17  1  0
 16 39  1  0
 16 40  1  0
 17 18  1  0
 17 41  1  1
 18 20  1  0
 18 19  1  0
 18 42  1  1
 19 20  1  0
 19 43  1  0
 19 44  1  0
 20 22  1  0
 20 21  1  1
 21 22  1  0
 22 23  1  0
 22 45  1  6
 23 24  1  0
 23 46  1  0
 23 47  1  0
 24 48  1  6
M  END
>  <i_m_ct_stereo_status>  (11) 
1

>  <s_m_source_file>  (11) 
/var/tmp/pbs.5076255.sched01/tmpyb5u0fxv/0ob_ovo1_.sdf

>  <i_m_source_file_index>  (11) 
5

>  <i_lp_mmshare_version>  (11) 
48012

>  <i_f3d_flags>  (11) 
0

>  <s_epik_input>  (11) 
W0NAQEhdMTJbQ0gyXVtDQEhdKE8zKUMzKFtDSDJdNClbQ0BIXTRbQ0BIXShbQ0gyXTUpW0NAXTEoT0MoPU8pW0NIM10pW0NAQEhdKFtPSF0pW0NAQEhdKFtDQEBdMjU2KVtDQEBIXShbT0hdKVtDQEBIXShbQ0gzXSlbQ0hdPVtDSF02

>  <s_epik_cmdline>  (11) 
J2VwaWtfcHl0aG9uJywgJy1waHQnLCAnMi4wJywgJy1waCcsICc3LjAnLCAnLXRuJywgJzgnLCAnLW1hJywgJzIwMCcsICctaW1hZScsICc8aW5maWxlLm1hZT4nLCAnLW9tYWUnLCAnPG91dGZpbGUubWFlPic=

>  <r_lp_tautomer_probability>  (11) 
1

>  <r_epik_Ionization_Penalty>  (11) 
3.0297e-07

>  <r_epik_Ionization_Penalty_Charging>  (11) 
0

>  <r_epik_Ionization_Penalty_Neutral>  (11) 
3.0297e-07

>  <r_epik_State_Penalty>  (11) 
-0

>  <r_epik_Charging_Adjusted_Penalty>  (11) 
0

>  <i_epik_Tot_Q>  (11) 
0

>  <i_epik_Tot_abs_Q>  (11) 
0

>  <s_epik_Chemistry_Notes>  (11) 
This compound has an ester and may undergo hydrolysis at high or low pH.

>  <s_lp_Force_Field>  (11) 
OPLS3e

>  <r_lp_Energy>  (11) 
79.0559

>  <b_lp_Chiralities_Consistent>  (11) 
1

>  <s_lp_Variant>  (11) 
3:0-1

>  <s_i_glide_gridfile>  (11) 
pfpi4k_grid

>  <i_i_glide_lignum>  (11) 
5

>  <i_i_glide_rotatable_bonds>  (11) 
4

>  <r_i_docking_score>  (11) 
-3.8363

>  <r_i_glide_ligand_efficiency>  (11) 
-0.159846

>  <r_i_glide_ligand_efficiency_sa>  (11) 
-0.461075

>  <r_i_glide_ligand_efficiency_ln>  (11) 
-0.918203

>  <r_i_glide_gscore>  (11) 
-3.8363

>  <r_i_glide_lipo>  (11) 
-0.490039

>  <r_i_glide_hbond>  (11) 
0

>  <r_i_glide_metal>  (11) 
-0

>  <r_i_glide_rewards>  (11) 
-1.73696

>  <r_i_glide_evdw>  (11) 
-22.0212

>  <r_i_glide_ecoul>  (11) 
-4.52473

>  <r_i_glide_erotb>  (11) 
0.170467

>  <r_i_glide_esite>  (11) 
0

>  <r_i_glide_emodel>  (11) 
-34.623

>  <r_i_glide_energy>  (11) 
-26.5459

>  <r_i_glide_einternal>  (11) 
4.67274

>  <r_i_glide_intrahb_reward>  (11) 
-0.5

>  <i_i_glide_confnum>  (11) 
1

>  <i_i_glide_posenum>  (11) 
31

>  <r_i_glide_eff_state_penalty>  (11) 
0

>  <ligand_id>  (11) 
3

>  <original_smiles>  (11) 
CC(=O)OC12C(O)C3C(O)C(C)C=CC34CC1C1CC13OC3CC42

>  <smiles>  (11) 
[H]OC1([H])C([H])(C([H])([H])[H])C([H])=C([H])C23C([H])([H])C4([H])C5([H])C([H])([H])C56OC6([H])C([H])([H])C2([H])C4(OC(=O)C([H])([H])[H])C([H])(O[H])C13[H]

$$$$
3:0:2
     RDKit          3D

 48 53  0  0  1  0  0  0  0  0999 V2000
    2.1018    4.9860    3.1936 C   0  0  0  0  0  0  0  0  0  0  0  0
    1.8464    4.8113    4.7007 C   0  0  0  0  0  0  0  0  0  0  0  0
    1.9662    5.7898    5.4909 O   0  0  0  0  0  0  0  0  0  0  0  0
    1.4979    3.5933    5.1538 O   0  0  0  0  0  0  0  0  0  0  0  0
    1.2914    2.4128    4.3548 C   0  0  2  0  0  0  0  0  0  0  0  0
    2.5193    1.9644    3.4867 C   0  0  1  0  0  0  0  0  0  0  0  0
    3.7584    2.2352    4.1121 O   0  0  0  0  0  0  0  0  0  0  0  0
    2.3390    0.4613    3.4098 C   0  0  2  0  0  0  0  0  0  0  0  0
    2.5317   -0.2565    2.0637 C   0  0  1  0  0  0  0  0  0  0  0  0
    3.7713    0.0991    1.4803 O   0  0  0  0  0  0  0  0  0  0  0  0
    2.4023   -1.7901    2.2869 C   0  0  1  0  0  0  0  0  0  0  0  0
    3.7250   -2.4670    2.7034 C   0  0  0  0  0  0  0  0  0  0  0  0
    1.3090   -2.1318    3.3081 C   0  0  0  0  0  0  0  0  0  0  0  0
    0.6419   -1.2335    4.0626 C   0  0  0  0  0  0  0  0  0  0  0  0
    0.9157    0.2478    3.9480 C   0  0  2  0  0  0  0  0  0  0  0  0
   -0.2104    0.9621    3.1469 C   0  0  0  0  0  0  0  0  0  0  0  0
    0.0163    2.4635    3.4465 C   0  0  1  0  0  0  0  0  0  0  0  0
   -1.1166    3.3252    3.9611 C   0  0  1  0  0  0  0  0  0  0  0  0
   -2.5457    2.9681    3.9784 C   0  0  0  0  0  0  0  0  0  0  0  0
   -1.8327    3.2861    5.3350 C   0  0  2  0  0  0  0  0  0  0  0  0
   -2.3962    2.2333    6.1863 O   0  0  0  0  0  0  0  0  0  0  0  0
   -1.0013    2.4073    6.3041 C   0  0  1  0  0  0  0  0  0  0  0  0
   -0.2973    1.1162    6.0626 C   0  0  0  0  0  0  0  0  0  0  0  0
    0.9962    1.1488    5.1954 C   0  0  2  0  0  0  0  0  0  0  0  0
    1.8701    4.1238    2.6032 H   0  0  0  0  0  0  0  0  0  0  0  0
    3.1581    5.2054    3.0166 H   0  0  0  0  0  0  0  0  0  0  0  0
    1.5028    5.8118    2.7930 H   0  0  0  0  0  0  0  0  0  0  0  0
    2.5202    2.3670    2.4734 H   0  0  0  0  0  0  0  0  0  0  0  0
    4.3698    2.5047    3.4352 H   0  0  0  0  0  0  0  0  0  0  0  0
    3.0408   -0.0139    4.1203 H   0  0  0  0  0  0  0  0  0  0  0  0
    1.7676    0.0645    1.3575 H   0  0  0  0  0  0  0  0  0  0  0  0
    3.7983    1.0367    1.3734 H   0  0  0  0  0  0  0  0  0  0  0  0
    2.1069   -2.2288    1.3319 H   0  0  0  0  0  0  0  0  0  0  0  0
    3.5855   -3.5440    2.8102 H   0  0  0  0  0  0  0  0  0  0  0  0
    4.0949   -2.0890    3.6579 H   0  0  0  0  0  0  0  0  0  0  0  0
    4.5090   -2.3224    1.9618 H   0  0  0  0  0  0  0  0  0  0  0  0
    1.0910   -3.1908    3.4191 H   0  0  0  0  0  0  0  0  0  0  0  0
   -0.1201   -1.5476    4.7626 H   0  0  0  0  0  0  0  0  0  0  0  0
   -0.1395    0.8063    2.0676 H   0  0  0  0  0  0  0  0  0  0  0  0
   -1.1928    0.6236    3.4407 H   0  0  0  0  0  0  0  0  0  0  0  0
    0.2484    2.8887    2.5035 H   0  0  0  0  0  0  0  0  0  0  0  0
   -0.9404    4.3879    3.6885 H   0  0  0  0  0  0  0  0  0  0  0  0
   -3.2659    3.7159    3.6350 H   0  0  0  0  0  0  0  0  0  0  0  0
   -2.7911    1.9497    3.8045 H   0  0  0  0  0  0  0  0  0  0  0  0
   -0.6754    2.9796    7.1745 H   0  0  0  0  0  0  0  0  0  0  0  0
   -0.0567    0.7109    7.0383 H   0  0  0  0  0  0  0  0  0  0  0  0
   -1.0290    0.4090    5.6576 H   0  0  0  0  0  0  0  0  0  0  0  0
    1.8409    0.8883    5.8430 H   0  0  0  0  0  0  0  0  0  0  0  0
  1  2  1  0
  1 25  1  0
  1 26  1  0
  1 27  1  0
  2  3  2  0
  2  4  1  0
  5  4  1  1
  5 17  1  0
  5 24  1  0
  5  6  1  0
  6  7  1  0
  6  8  1  0
  6 28  1  6
  7 29  1  0
  8 15  1  0
  8  9  1  0
  8 30  1  1
  9 10  1  0
  9 11  1  0
  9 31  1  6
 10 32  1  0
 11 12  1  0
 11 13  1  0
 11 33  1  6
 12 34  1  0
 12 35  1  0
 12 36  1  0
 13 14  2  0
 13 37  1  0
 14 15  1  0
 14 38  1  0
 15 24  1  0
 15 16  1  6
 16 17  1  0
 16 39  1  0
 16 40  1  0
 17 18  1  0
 17 41  1  6
 18 20  1  0
 18 19  1  0
 18 42  1  6
 19 20  1  0
 19 43  1  0
 19 44  1  0
 20 22  1  0
 20 21  1  1
 21 22  1  0
 22 23  1  0
 22 45  1  1
 23 24  1  0
 23 46  1  0
 23 47  1  0
 24 48  1  1
M  END
>  <i_m_ct_stereo_status>  (12) 
1

>  <s_m_source_file>  (12) 
/var/tmp/pbs.5076255.sched01/tmpyb5u0fxv/0ob_ovo1_.sdf

>  <i_m_source_file_index>  (12) 
5

>  <i_lp_mmshare_version>  (12) 
48012

>  <i_f3d_flags>  (12) 
0

>  <s_epik_input>  (12) 
W0NAQEhdMTJbQ0gyXVtDQEhdKE8zKUMzKFtDSDJdNClbQ0BIXTRbQ0BIXShbQ0gyXTUpW0NAXTEoT0MoPU8pW0NIM10pW0NAQEhdKFtPSF0pW0NAQEhdKFtDQEBdMjU2KVtDQEBIXShbT0hdKVtDQEBIXShbQ0gzXSlbQ0hdPVtDSF02

>  <s_epik_cmdline>  (12) 
J2VwaWtfcHl0aG9uJywgJy1waHQnLCAnMi4wJywgJy1waCcsICc3LjAnLCAnLXRuJywgJzgnLCAnLW1hJywgJzIwMCcsICctaW1hZScsICc8aW5maWxlLm1hZT4nLCAnLW9tYWUnLCAnPG91dGZpbGUubWFlPic=

>  <r_lp_tautomer_probability>  (12) 
1

>  <r_epik_Ionization_Penalty>  (12) 
3.0297e-07

>  <r_epik_Ionization_Penalty_Charging>  (12) 
0

>  <r_epik_Ionization_Penalty_Neutral>  (12) 
3.0297e-07

>  <r_epik_State_Penalty>  (12) 
-0

>  <r_epik_Charging_Adjusted_Penalty>  (12) 
0

>  <i_epik_Tot_Q>  (12) 
0

>  <i_epik_Tot_abs_Q>  (12) 
0

>  <s_epik_Chemistry_Notes>  (12) 
This compound has an ester and may undergo hydrolysis at high or low pH.

>  <s_lp_Force_Field>  (12) 
OPLS3e

>  <r_lp_Energy>  (12) 
79.0559

>  <b_lp_Chiralities_Consistent>  (12) 
1

>  <s_lp_Variant>  (12) 
3:0-1

>  <s_i_glide_gridfile>  (12) 
pfpi4k_grid

>  <i_i_glide_lignum>  (12) 
5

>  <i_i_glide_rotatable_bonds>  (12) 
4

>  <r_i_docking_score>  (12) 
-3.09015

>  <r_i_glide_ligand_efficiency>  (12) 
-0.128756

>  <r_i_glide_ligand_efficiency_sa>  (12) 
-0.371397

>  <r_i_glide_ligand_efficiency_ln>  (12) 
-0.739614

>  <r_i_glide_gscore>  (12) 
-3.09015

>  <r_i_glide_lipo>  (12) 
-0.0346006

>  <r_i_glide_hbond>  (12) 
0

>  <r_i_glide_metal>  (12) 
-0

>  <r_i_glide_rewards>  (12) 
-1.14279

>  <r_i_glide_evdw>  (12) 
-22.1073

>  <r_i_glide_ecoul>  (12) 
-6.4319

>  <r_i_glide_erotb>  (12) 
0.170467

>  <r_i_glide_esite>  (12) 
-0.013076

>  <r_i_glide_emodel>  (12) 
-30.2122

>  <r_i_glide_energy>  (12) 
-28.5392

>  <r_i_glide_einternal>  (12) 
6.25602

>  <r_i_glide_intrahb_reward>  (12) 
-0

>  <i_i_glide_confnum>  (12) 
3

>  <i_i_glide_posenum>  (12) 
4

>  <r_i_glide_eff_state_penalty>  (12) 
0

>  <ligand_id>  (12) 
3

>  <original_smiles>  (12) 
CC(=O)OC12C(O)C3C(O)C(C)C=CC34CC1C1CC13OC3CC42

>  <smiles>  (12) 
[H]OC1([H])C([H])(C([H])([H])[H])C([H])=C([H])C23C([H])([H])C4([H])C5([H])C([H])([H])C56OC6([H])C([H])([H])C2([H])C4(OC(=O)C([H])([H])[H])C([H])(O[H])C13[H]

$$$$
5:0:0
     RDKit          3D

 32 31  0  0  1  0  0  0  0  0999 V2000
    1.7087   -2.0036    3.3447 C   0  0  0  0  0  0  0  0  0  0  0  0
    0.6814   -2.3612    4.3974 C   0  0  0  0  0  0  0  0  0  0  0  0
    0.8492   -3.3539    5.2864 C   0  0  0  0  0  0  0  0  0  0  0  0
   -0.1807   -3.6900    6.2865 C   0  0  0  0  0  0  0  0  0  0  0  0
   -1.1894   -3.0113    6.4801 O   0  0  0  0  0  0  0  0  0  0  0  0
    0.0198   -4.9628    7.1176 C   0  0  0  0  0  0  0  0  0  0  0  0
    0.2399   -6.2292    6.2652 C   0  0  0  0  0  0  0  0  0  0  0  0
   -0.7743   -6.4116    5.1158 C   0  0  0  0  0  0  0  0  0  0  0  0
   -0.6788   -7.7852    4.4619 C   0  0  0  0  0  0  0  0  0  0  0  0
   -1.3757   -7.8368    3.0947 C   0  0  0  0  0  0  0  0  0  0  0  0
   -1.4223   -9.2474    2.4875 C   0  0  0  0  0  0  0  0  0  0  0  0
   -0.0706   -9.9785    2.4806 C   0  0  0  0  0  0  0  0  0  0  0  0
    1.2778   -2.0983    2.3505 H   0  0  0  0  0  0  0  0  0  0  0  0
    2.5749   -2.6602    3.4043 H   0  0  0  0  0  0  0  0  0  0  0  0
    2.0452   -0.9781    3.4827 H   0  0  0  0  0  0  0  0  0  0  0  0
   -0.2212   -1.7622    4.4052 H   0  0  0  0  0  0  0  0  0  0  0  0
    1.7574   -3.9381    5.2811 H   0  0  0  0  0  0  0  0  0  0  0  0
    0.8564   -4.8181    7.8032 H   0  0  0  0  0  0  0  0  0  0  0  0
   -0.8694   -5.1044    7.7313 H   0  0  0  0  0  0  0  0  0  0  0  0
    1.2508   -6.2235    5.8534 H   0  0  0  0  0  0  0  0  0  0  0  0
    0.2045   -7.0919    6.9292 H   0  0  0  0  0  0  0  0  0  0  0  0
   -1.7953   -6.2527    5.4655 H   0  0  0  0  0  0  0  0  0  0  0  0
   -0.5790   -5.6555    4.3542 H   0  0  0  0  0  0  0  0  0  0  0  0
    0.3756   -8.0213    4.3345 H   0  0  0  0  0  0  0  0  0  0  0  0
   -1.0943   -8.5407    5.1278 H   0  0  0  0  0  0  0  0  0  0  0  0
   -2.3973   -7.4672    3.1806 H   0  0  0  0  0  0  0  0  0  0  0  0
   -0.8702   -7.1643    2.4016 H   0  0  0  0  0  0  0  0  0  0  0  0
   -2.1520   -9.8531    3.0242 H   0  0  0  0  0  0  0  0  0  0  0  0
   -1.7848   -9.1667    1.4630 H   0  0  0  0  0  0  0  0  0  0  0  0
   -0.1572  -10.9424    1.9774 H   0  0  0  0  0  0  0  0  0  0  0  0
    0.2955  -10.1729    3.4900 H   0  0  0  0  0  0  0  0  0  0  0  0
    0.6896   -9.3980    1.9567 H   0  0  0  0  0  0  0  0  0  0  0  0
  1  2  1  0
  1 13  1  0
  1 14  1  0
  1 15  1  0
  2  3  2  3
  2 16  1  0
  3  4  1  0
  3 17  1  0
  4  5  2  0
  4  6  1  0
  6  7  1  0
  6 18  1  0
  6 19  1  0
  7  8  1  0
  7 20  1  0
  7 21  1  0
  8  9  1  0
  8 22  1  0
  8 23  1  0
  9 10  1  0
  9 24  1  0
  9 25  1  0
 10 11  1  0
 10 26  1  0
 10 27  1  0
 11 12  1  0
 11 28  1  0
 11 29  1  0
 12 30  1  0
 12 31  1  0
 12 32  1  0
M  END
>  <i_m_ct_stereo_status>  (13) 
1

>  <s_m_source_file>  (13) 
/var/tmp/pbs.5076255.sched01/tmpyb5u0fxv/0ob_ovo1_.sdf

>  <i_m_source_file_index>  (13) 
7

>  <i_lp_mmshare_version>  (13) 
48012

>  <i_f3d_flags>  (13) 
0

>  <s_epik_input>  (13) 
W0NIM10vW0NIXT1bQ0hdL0MoPU8pW0NIMl1bQ0gyXVtDSDJdW0NIMl1bQ0gyXVtDSDJdW0NIM10=

>  <s_epik_cmdline>  (13) 
J2VwaWtfcHl0aG9uJywgJy1waHQnLCAnMi4wJywgJy1waCcsICc3LjAnLCAnLXRuJywgJzgnLCAnLW1hJywgJzIwMCcsICctaW1hZScsICc8aW5maWxlLm1hZT4nLCAnLW9tYWUnLCAnPG91dGZpbGUubWFlPic=

>  <r_lp_tautomer_probability>  (13) 
1

>  <r_epik_Ionization_Penalty>  (13) 
0

>  <r_epik_Ionization_Penalty_Charging>  (13) 
0

>  <r_epik_Ionization_Penalty_Neutral>  (13) 
0

>  <r_epik_State_Penalty>  (13) 
-0

>  <r_epik_Charging_Adjusted_Penalty>  (13) 
0

>  <i_epik_Tot_Q>  (13) 
0

>  <i_epik_Tot_abs_Q>  (13) 
0

>  <s_lp_Force_Field>  (13) 
OPLS3e

>  <r_lp_Energy>  (13) 
4.03671

>  <b_lp_Chiralities_Consistent>  (13) 
1

>  <s_lp_Variant>  (13) 
5:0-1

>  <s_i_glide_gridfile>  (13) 
pfpi4k_grid

>  <i_i_glide_lignum>  (13) 
7

>  <i_i_glide_rotatable_bonds>  (13) 
7

>  <r_i_docking_score>  (13) 
2.97954

>  <r_i_glide_ligand_efficiency>  (13) 
0.248295

>  <r_i_glide_ligand_efficiency_sa>  (13) 
0.568453

>  <r_i_glide_ligand_efficiency_ln>  (13) 
0.854983

>  <r_i_glide_gscore>  (13) 
2.97954

>  <r_i_glide_lipo>  (13) 
-0.362246

>  <r_i_glide_hbond>  (13) 
0

>  <r_i_glide_metal>  (13) 
-0

>  <r_i_glide_rewards>  (13) 
-2.25

>  <r_i_glide_evdw>  (13) 
-13.7785

>  <r_i_glide_ecoul>  (13) 
-1.45183

>  <r_i_glide_erotb>  (13) 
6.51244

>  <r_i_glide_esite>  (13) 
-0.0139585

>  <r_i_glide_emodel>  (13) 
-9.53813

>  <r_i_glide_energy>  (13) 
-15.2303

>  <r_i_glide_einternal>  (13) 
4.66214

>  <r_i_glide_intrahb_reward>  (13) 
-0

>  <i_i_glide_confnum>  (13) 
3

>  <i_i_glide_posenum>  (13) 
30

>  <r_i_glide_eff_state_penalty>  (13) 
0

>  <ligand_id>  (13) 
5

>  <original_smiles>  (13) 
CC=CC(=O)CCCCCCC

>  <smiles>  (13) 
[H]C(C(=O)C([H])([H])C([H])([H])C([H])([H])C([H])([H])C([H])([H])C([H])([H])C([H])([H])[H])=C([H])C([H])([H])[H]

$$$$
5:0:1
     RDKit          3D

 32 31  0  0  1  0  0  0  0  0999 V2000
    3.3537   -2.4960    4.5847 C   0  0  0  0  0  0  0  0  0  0  0  0
    2.1797   -2.8713    5.4708 C   0  0  0  0  0  0  0  0  0  0  0  0
    0.9382   -2.3694    5.3284 C   0  0  0  0  0  0  0  0  0  0  0  0
   -0.1746   -2.8143    6.1795 C   0  0  0  0  0  0  0  0  0  0  0  0
   -1.2976   -2.3154    6.0784 O   0  0  0  0  0  0  0  0  0  0  0  0
    0.0384   -3.9212    7.2148 C   0  0  0  0  0  0  0  0  0  0  0  0
    0.4507   -5.2950    6.6274 C   0  0  0  0  0  0  0  0  0  0  0  0
   -0.5142   -5.8165    5.5434 C   0  0  0  0  0  0  0  0  0  0  0  0
   -0.0757   -7.1697    4.9716 C   0  0  0  0  0  0  0  0  0  0  0  0
   -0.9942   -7.6480    3.8407 C   0  0  0  0  0  0  0  0  0  0  0  0
   -0.5559   -8.9947    3.2494 C   0  0  0  0  0  0  0  0  0  0  0  0
   -1.4713   -9.4533    2.1090 C   0  0  0  0  0  0  0  0  0  0  0  0
    4.1803   -2.1479    5.2022 H   0  0  0  0  0  0  0  0  0  0  0  0
    3.1053   -1.7269    3.8496 H   0  0  0  0  0  0  0  0  0  0  0  0
    3.6841   -3.3852    4.0502 H   0  0  0  0  0  0  0  0  0  0  0  0
    2.3954   -3.5816    6.2385 H   0  0  0  0  0  0  0  0  0  0  0  0
    0.7114   -1.6395    4.5635 H   0  0  0  0  0  0  0  0  0  0  0  0
    0.7906   -3.5897    7.9317 H   0  0  0  0  0  0  0  0  0  0  0  0
   -0.8804   -4.0358    7.7898 H   0  0  0  0  0  0  0  0  0  0  0  0
    1.4514   -5.2398    6.2173 H   0  0  0  0  0  0  0  0  0  0  0  0
    0.4745   -6.0299    7.4445 H   0  0  0  0  0  0  0  0  0  0  0  0
   -1.5379   -5.8633    5.9296 H   0  0  0  0  0  0  0  0  0  0  0  0
   -0.5412   -5.1104    4.7190 H   0  0  0  0  0  0  0  0  0  0  0  0
    0.9436   -7.0873    4.5948 H   0  0  0  0  0  0  0  0  0  0  0  0
   -0.0484   -7.9115    5.7685 H   0  0  0  0  0  0  0  0  0  0  0  0
   -2.0126   -7.7318    4.2215 H   0  0  0  0  0  0  0  0  0  0  0  0
   -1.0170   -6.9006    3.0461 H   0  0  0  0  0  0  0  0  0  0  0  0
    0.4654   -8.9223    2.8755 H   0  0  0  0  0  0  0  0  0  0  0  0
   -0.5475   -9.7520    4.0334 H   0  0  0  0  0  0  0  0  0  0  0  0
   -1.1416  -10.4167    1.7167 H   0  0  0  0  0  0  0  0  0  0  0  0
   -1.4595   -8.7420    1.2813 H   0  0  0  0  0  0  0  0  0  0  0  0
   -2.5015   -9.5653    2.4518 H   0  0  0  0  0  0  0  0  0  0  0  0
  1  2  1  0
  1 13  1  0
  1 14  1  0
  1 15  1  0
  2  3  2  3
  2 16  1  0
  3  4  1  0
  3 17  1  0
  4  5  2  0
  4  6  1  0
  6  7  1  0
  6 18  1  0
  6 19  1  0
  7  8  1  0
  7 20  1  0
  7 21  1  0
  8  9  1  0
  8 22  1  0
  8 23  1  0
  9 10  1  0
  9 24  1  0
  9 25  1  0
 10 11  1  0
 10 26  1  0
 10 27  1  0
 11 12  1  0
 11 28  1  0
 11 29  1  0
 12 30  1  0
 12 31  1  0
 12 32  1  0
M  END
>  <i_m_ct_stereo_status>  (14) 
1

>  <s_m_source_file>  (14) 
/var/tmp/pbs.5076255.sched01/tmpyb5u0fxv/0ob_ovo1_.sdf

>  <i_m_source_file_index>  (14) 
7

>  <i_lp_mmshare_version>  (14) 
48012

>  <i_f3d_flags>  (14) 
0

>  <s_epik_input>  (14) 
W0NIM10vW0NIXT1bQ0hdL0MoPU8pW0NIMl1bQ0gyXVtDSDJdW0NIMl1bQ0gyXVtDSDJdW0NIM10=

>  <s_epik_cmdline>  (14) 
J2VwaWtfcHl0aG9uJywgJy1waHQnLCAnMi4wJywgJy1waCcsICc3LjAnLCAnLXRuJywgJzgnLCAnLW1hJywgJzIwMCcsICctaW1hZScsICc8aW5maWxlLm1hZT4nLCAnLW9tYWUnLCAnPG91dGZpbGUubWFlPic=

>  <r_lp_tautomer_probability>  (14) 
1

>  <r_epik_Ionization_Penalty>  (14) 
0

>  <r_epik_Ionization_Penalty_Charging>  (14) 
0

>  <r_epik_Ionization_Penalty_Neutral>  (14) 
0

>  <r_epik_State_Penalty>  (14) 
-0

>  <r_epik_Charging_Adjusted_Penalty>  (14) 
0

>  <i_epik_Tot_Q>  (14) 
0

>  <i_epik_Tot_abs_Q>  (14) 
0

>  <s_lp_Force_Field>  (14) 
OPLS3e

>  <r_lp_Energy>  (14) 
4.03671

>  <b_lp_Chiralities_Consistent>  (14) 
1

>  <s_lp_Variant>  (14) 
5:0-1

>  <s_i_glide_gridfile>  (14) 
pfpi4k_grid

>  <i_i_glide_lignum>  (14) 
7

>  <i_i_glide_rotatable_bonds>  (14) 
7

>  <r_i_docking_score>  (14) 
3.2529

>  <r_i_glide_ligand_efficiency>  (14) 
0.271075

>  <r_i_glide_ligand_efficiency_sa>  (14) 
0.620607

>  <r_i_glide_ligand_efficiency_ln>  (14) 
0.933425

>  <r_i_glide_gscore>  (14) 
3.2529

>  <r_i_glide_lipo>  (14) 
-0.19897

>  <r_i_glide_hbond>  (14) 
0

>  <r_i_glide_metal>  (14) 
-0

>  <r_i_glide_rewards>  (14) 
-2.25

>  <r_i_glide_evdw>  (14) 
-11.7873

>  <r_i_glide_ecoul>  (14) 
-1.32562

>  <r_i_glide_erotb>  (14) 
6.51244

>  <r_i_glide_esite>  (14) 
-0.0223639

>  <r_i_glide_emodel>  (14) 
-8.72963

>  <r_i_glide_energy>  (14) 
-13.1129

>  <r_i_glide_einternal>  (14) 
1.05264

>  <r_i_glide_intrahb_reward>  (14) 
-0

>  <i_i_glide_confnum>  (14) 
3

>  <i_i_glide_posenum>  (14) 
1

>  <r_i_glide_eff_state_penalty>  (14) 
0

>  <ligand_id>  (14) 
5

>  <original_smiles>  (14) 
CC=CC(=O)CCCCCCC

>  <smiles>  (14) 
[H]C(C(=O)C([H])([H])C([H])([H])C([H])([H])C([H])([H])C([H])([H])C([H])([H])C([H])([H])[H])=C([H])C([H])([H])[H]

$$$$
6:0:0
     RDKit          3D

 32 35  0  0  1  0  0  0  0  0999 V2000
    2.8174   -3.5254    5.2159 O   0  0  0  0  0  0  0  0  0  0  0  0
    1.8743   -4.2240    5.6508 C   0  0  0  0  0  0  0  0  0  0  0  0
    1.0620   -3.3888    6.6440 C   0  0  0  0  0  0  0  0  0  0  0  0
   -0.3982   -3.8471    6.8099 C   0  0  0  0  0  0  0  0  0  0  0  0
   -0.5229   -5.3473    6.7425 C   0  0  0  0  0  0  0  0  0  0  0  0
    0.3779   -6.1260    6.1216 C   0  0  0  0  0  0  0  0  0  0  0  0
    0.2584   -7.5104    6.1606 N   0  0  0  0  0  0  0  0  0  0  0  0
    1.2749   -8.3419    5.7184 C   0  0  0  0  0  0  0  0  0  0  0  0
    1.4226   -9.6285    5.9745 N   0  0  0  0  0  0  0  0  0  0  0  0
    2.6376   -9.8384    5.3725 C   0  0  0  0  0  0  0  0  0  0  0  0
    3.1841   -8.7803    4.7651 N   0  0  0  0  0  0  0  0  0  0  0  0
    2.2608   -7.8152    4.9978 N   0  0  0  0  0  0  0  0  0  0  0  0
    2.3479   -6.4504    4.4922 C   0  0  1  0  0  0  0  0  0  0  0  0
    1.8769   -6.3891    3.0432 C   0  0  0  0  0  0  0  0  0  0  0  0
    0.6980   -7.0448    2.6294 C   0  0  0  0  0  0  0  0  0  0  0  0
    0.3211   -6.9704    1.2798 C   0  0  0  0  0  0  0  0  0  0  0  0
    1.0098   -6.2578    0.3621 N   0  0  0  0  0  0  0  0  0  0  0  0
    2.1430   -5.6390    0.7562 C   0  0  0  0  0  0  0  0  0  0  0  0
    2.6137   -5.6640    2.0801 C   0  0  0  0  0  0  0  0  0  0  0  0
    1.5164   -5.5440    5.4008 C   0  0  0  0  0  0  0  0  0  0  0  0
    1.0737   -2.3375    6.3531 H   0  0  0  0  0  0  0  0  0  0  0  0
    1.5579   -3.4360    7.6148 H   0  0  0  0  0  0  0  0  0  0  0  0
   -0.7839   -3.5019    7.7688 H   0  0  0  0  0  0  0  0  0  0  0  0
   -1.0208   -3.4189    6.0275 H   0  0  0  0  0  0  0  0  0  0  0  0
   -1.3800   -5.7781    7.2332 H   0  0  0  0  0  0  0  0  0  0  0  0
    3.1353  -10.7949    5.3876 H   0  0  0  0  0  0  0  0  0  0  0  0
    3.3928   -6.1495    4.5512 H   0  0  0  0  0  0  0  0  0  0  0  0
    0.0941   -7.6074    3.3221 H   0  0  0  0  0  0  0  0  0  0  0  0
   -0.5737   -7.4608    0.9277 H   0  0  0  0  0  0  0  0  0  0  0  0
    2.6734   -5.0847   -0.0069 H   0  0  0  0  0  0  0  0  0  0  0  0
    3.5117   -5.1287    2.3538 H   0  0  0  0  0  0  0  0  0  0  0  0
   -0.4460   -7.9479    6.7314 H   0  0  0  0  0  0  0  0  0  0  0  0
  1  2  1  0
  2  3  1  0
  2 20  2  0
  3  4  1  0
  3 21  1  0
  3 22  1  0
  4  5  1  0
  4 23  1  0
  4 24  1  0
  5 25  1  0
  5  6  2  0
  6 20  1  0
  6  7  1  0
  7  8  1  0
  7 32  1  0
  8 12  1  0
  8  9  2  0
  9 10  1  0
 10 11  2  0
 10 26  1  0
 11 12  1  0
 12 13  1  0
 13 14  1  0
 13 27  1  6
 13 20  1  0
 14 19  1  0
 14 15  2  0
 15 16  1  0
 15 28  1  0
 16 17  2  0
 16 29  1  0
 17 18  1  0
 18 19  2  0
 18 30  1  0
 19 31  1  0
M  CHG  1   1  -1
M  END
>  <i_m_ct_stereo_status>  (15) 
1

>  <s_m_source_file>  (15) 
/var/tmp/pbs.5076255.sched01/tmpyb5u0fxv/0ob_ovo1_.sdf

>  <i_m_source_file_index>  (15) 
9

>  <i_lp_mmshare_version>  (15) 
48012

>  <i_f3d_flags>  (15) 
0

>  <s_epik_input>  (15) 
W0NIMl0xW0NIMl1bQ0gyXUMoPU8pW0NAQEhdKEMxPTIpW0NAQEhdKG4zYyhOMiluW2NIXW4zKWM0W2NIXVtjSF1uW2NIXVtjSF00

>  <s_epik_cmdline>  (15) 
J2VwaWtfcHl0aG9uJywgJy1waHQnLCAnMi4wJywgJy1waCcsICc3LjAnLCAnLXRuJywgJzgnLCAnLW1hJywgJzIwMCcsICctaW1hZScsICc8aW5maWxlLm1hZT4nLCAnLW9tYWUnLCAnPG91dGZpbGUubWFlPic=

>  <r_epik_Ionization_Penalty>  (15) 
0.540224

>  <r_epik_Ionization_Penalty_Charging>  (15) 
0.538938

>  <r_epik_Ionization_Penalty_Neutral>  (15) 
0.00128574

>  <r_epik_State_Penalty>  (15) 
0.372075

>  <r_epik_Charging_Adjusted_Penalty>  (15) 
0.911013

>  <i_epik_Tot_Q>  (15) 
-1

>  <i_epik_Tot_abs_Q>  (15) 
1

>  <s_epik_Chemistry_Notes>  (15) 
This compound has an imine and may undergo hydrolysis.

>  <s_lp_Force_Field>  (15) 
OPLS3e

>  <r_lp_Energy>  (15) 
33.9901

>  <b_lp_Chiralities_Consistent>  (15) 
1

>  <s_lp_Variant>  (15) 
6:0-1

>  <s_i_glide_gridfile>  (15) 
pfpi4k_grid

>  <i_i_glide_lignum>  (15) 
9

>  <i_i_glide_rotatable_bonds>  (15) 
1

>  <r_i_docking_score>  (15) 
-2.71142

>  <r_i_glide_ligand_efficiency>  (15) 
-0.135571

>  <r_i_glide_ligand_efficiency_sa>  (15) 
-0.367997

>  <r_i_glide_ligand_efficiency_ln>  (15) 
-0.67858

>  <r_i_glide_gscore>  (15) 
-2.71142

>  <r_i_glide_lipo>  (15) 
-0.0715204

>  <r_i_glide_hbond>  (15) 
-0.264312

>  <r_i_glide_metal>  (15) 
-0

>  <r_i_glide_rewards>  (15) 
-1.59356

>  <r_i_glide_evdw>  (15) 
-16.022

>  <r_i_glide_ecoul>  (15) 
-1.05877

>  <r_i_glide_erotb>  (15) 
0.2512

>  <r_i_glide_esite>  (15) 
-0.0733161

>  <r_i_glide_emodel>  (15) 
-20.7998

>  <r_i_glide_energy>  (15) 
-17.0808

>  <r_i_glide_einternal>  (15) 
0.292226

>  <r_i_glide_intrahb_reward>  (15) 
-0

>  <i_i_glide_confnum>  (15) 
3

>  <i_i_glide_posenum>  (15) 
4

>  <r_i_glide_eff_state_penalty>  (15) 
0

>  <ligand_id>  (15) 
6

>  <original_smiles>  (15) 
O=C1CCCC2=Nc3ncnn3C(c3ccncc3)C12

>  <smiles>  (15) 
[H]C1=C2C(=C([O-])C([H])([H])C1([H])[H])C([H])(c1c([H])c([H])nc([H])c1[H])n1nc([H])nc1N2[H]

$$$$
6:0:1
     RDKit          3D

 32 35  0  0  1  0  0  0  0  0999 V2000
    0.3948   -5.4715    5.1655 O   0  0  0  0  0  0  0  0  0  0  0  0
    0.3035   -6.3796    4.3042 C   0  0  0  0  0  0  0  0  0  0  0  0
   -1.0620   -7.0550    4.4519 C   0  0  0  0  0  0  0  0  0  0  0  0
   -1.5795   -7.7224    3.1633 C   0  0  0  0  0  0  0  0  0  0  0  0
   -0.4602   -8.3519    2.3806 C   0  0  0  0  0  0  0  0  0  0  0  0
    0.8222   -7.9661    2.4904 C   0  0  0  0  0  0  0  0  0  0  0  0
    1.8207   -8.6434    1.8034 N   0  0  0  0  0  0  0  0  0  0  0  0
    3.1674   -8.4090    2.0580 C   0  0  0  0  0  0  0  0  0  0  0  0
    4.1962   -9.1623    1.7117 N   0  0  0  0  0  0  0  0  0  0  0  0
    5.1997   -8.4660    2.3394 C   0  0  0  0  0  0  0  0  0  0  0  0
    4.8387   -7.3445    2.9699 N   0  0  0  0  0  0  0  0  0  0  0  0
    3.4985   -7.3281    2.7643 N   0  0  0  0  0  0  0  0  0  0  0  0
    2.6118   -6.2642    3.2154 C   0  0  1  0  0  0  0  0  0  0  0  0
    2.6674   -5.0816    2.2535 C   0  0  0  0  0  0  0  0  0  0  0  0
    2.5584   -5.2670    0.8554 C   0  0  0  0  0  0  0  0  0  0  0  0
    2.6355   -4.1407    0.0149 C   0  0  0  0  0  0  0  0  0  0  0  0
    2.7959   -2.8868    0.4788 N   0  0  0  0  0  0  0  0  0  0  0  0
    2.8695   -2.7073    1.8128 C   0  0  0  0  0  0  0  0  0  0  0  0
    2.8154   -3.7662    2.7402 C   0  0  0  0  0  0  0  0  0  0  0  0
    1.1969   -6.8271    3.3378 C   0  0  0  0  0  0  0  0  0  0  0  0
   -1.8064   -6.3350    4.8020 H   0  0  0  0  0  0  0  0  0  0  0  0
   -0.9825   -7.8138    5.2358 H   0  0  0  0  0  0  0  0  0  0  0  0
   -2.3131   -8.4866    3.4221 H   0  0  0  0  0  0  0  0  0  0  0  0
   -2.0734   -6.9989    2.5205 H   0  0  0  0  0  0  0  0  0  0  0  0
   -0.7386   -9.1595    1.7229 H   0  0  0  0  0  0  0  0  0  0  0  0
    6.2287   -8.7975    2.3269 H   0  0  0  0  0  0  0  0  0  0  0  0
    2.9553   -5.9519    4.2004 H   0  0  0  0  0  0  0  0  0  0  0  0
    2.4303   -6.2491    0.4278 H   0  0  0  0  0  0  0  0  0  0  0  0
    2.5540   -4.2491   -1.0564 H   0  0  0  0  0  0  0  0  0  0  0  0
    2.9782   -1.6859    2.1493 H   0  0  0  0  0  0  0  0  0  0  0  0
    2.8839   -3.5690    3.8002 H   0  0  0  0  0  0  0  0  0  0  0  0
    1.5829   -9.4819    1.2921 H   0  0  0  0  0  0  0  0  0  0  0  0
  1  2  1  0
  2  3  1  0
  2 20  2  0
  3  4  1  0
  3 21  1  0
  3 22  1  0
  4  5  1  0
  4 23  1  0
  4 24  1  0
  5 25  1  0
  5  6  2  0
  6 20  1  0
  6  7  1  0
  7  8  1  0
  7 32  1  0
  8 12  1  0
  8  9  2  0
  9 10  1  0
 10 11  2  0
 10 26  1  0
 11 12  1  0
 12 13  1  0
 13 14  1  0
 13 27  1  1
 13 20  1  0
 14 19  1  0
 14 15  2  0
 15 16  1  0
 15 28  1  0
 16 17  2  0
 16 29  1  0
 17 18  1  0
 18 19  2  0
 18 30  1  0
 19 31  1  0
M  CHG  1   1  -1
M  END
>  <i_m_ct_stereo_status>  (16) 
1

>  <s_m_source_file>  (16) 
/var/tmp/pbs.5076255.sched01/tmpyb5u0fxv/0ob_ovo1_.sdf

>  <i_m_source_file_index>  (16) 
9

>  <i_lp_mmshare_version>  (16) 
48012

>  <i_f3d_flags>  (16) 
0

>  <s_epik_input>  (16) 
W0NIMl0xW0NIMl1bQ0gyXUMoPU8pW0NAQEhdKEMxPTIpW0NAQEhdKG4zYyhOMiluW2NIXW4zKWM0W2NIXVtjSF1uW2NIXVtjSF00

>  <s_epik_cmdline>  (16) 
J2VwaWtfcHl0aG9uJywgJy1waHQnLCAnMi4wJywgJy1waCcsICc3LjAnLCAnLXRuJywgJzgnLCAnLW1hJywgJzIwMCcsICctaW1hZScsICc8aW5maWxlLm1hZT4nLCAnLW9tYWUnLCAnPG91dGZpbGUubWFlPic=

>  <r_epik_Ionization_Penalty>  (16) 
0.540224

>  <r_epik_Ionization_Penalty_Charging>  (16) 
0.538938

>  <r_epik_Ionization_Penalty_Neutral>  (16) 
0.00128574

>  <r_epik_State_Penalty>  (16) 
0.372075

>  <r_epik_Charging_Adjusted_Penalty>  (16) 
0.911013

>  <i_epik_Tot_Q>  (16) 
-1

>  <i_epik_Tot_abs_Q>  (16) 
1

>  <s_epik_Chemistry_Notes>  (16) 
This compound has an imine and may undergo hydrolysis.

>  <s_lp_Force_Field>  (16) 
OPLS3e

>  <r_lp_Energy>  (16) 
33.9901

>  <b_lp_Chiralities_Consistent>  (16) 
1

>  <s_lp_Variant>  (16) 
6:0-1

>  <s_i_glide_gridfile>  (16) 
pfpi4k_grid

>  <i_i_glide_lignum>  (16) 
9

>  <i_i_glide_rotatable_bonds>  (16) 
1

>  <r_i_docking_score>  (16) 
-2.40634

>  <r_i_glide_ligand_efficiency>  (16) 
-0.120317

>  <r_i_glide_ligand_efficiency_sa>  (16) 
-0.32659

>  <r_i_glide_ligand_efficiency_ln>  (16) 
-0.602226

>  <r_i_glide_gscore>  (16) 
-2.40634

>  <r_i_glide_lipo>  (16) 
0

>  <r_i_glide_hbond>  (16) 
-0.0805018

>  <r_i_glide_metal>  (16) 
-0

>  <r_i_glide_rewards>  (16) 
-1.59356

>  <r_i_glide_evdw>  (16) 
-21.2757

>  <r_i_glide_ecoul>  (16) 
0.71181

>  <r_i_glide_erotb>  (16) 
0.2512

>  <r_i_glide_esite>  (16) 
-0.0264625

>  <r_i_glide_emodel>  (16) 
-23.8421

>  <r_i_glide_energy>  (16) 
-20.5639

>  <r_i_glide_einternal>  (16) 
0.227109

>  <r_i_glide_intrahb_reward>  (16) 
-0

>  <i_i_glide_confnum>  (16) 
1

>  <i_i_glide_posenum>  (16) 
15

>  <r_i_glide_eff_state_penalty>  (16) 
0

>  <ligand_id>  (16) 
6

>  <original_smiles>  (16) 
O=C1CCCC2=Nc3ncnn3C(c3ccncc3)C12

>  <smiles>  (16) 
[H]C1=C2C(=C([O-])C([H])([H])C1([H])[H])C([H])(c1c([H])c([H])nc([H])c1[H])n1nc([H])nc1N2[H]

$$$$
6:0:2
     RDKit          3D

 32 35  0  0  1  0  0  0  0  0999 V2000
   -0.6928   -6.2539    4.6891 O   0  0  0  0  0  0  0  0  0  0  0  0
   -0.3902   -7.2878    4.0546 C   0  0  0  0  0  0  0  0  0  0  0  0
   -1.6670   -8.0846    3.7985 C   0  0  0  0  0  0  0  0  0  0  0  0
   -1.5737   -9.0478    2.6033 C   0  0  0  0  0  0  0  0  0  0  0  0
   -0.2022   -9.6603    2.4906 C   0  0  0  0  0  0  0  0  0  0  0  0
    0.9015   -9.0833    2.9861 C   0  0  0  0  0  0  0  0  0  0  0  0
    2.1292   -9.7286    2.9183 N   0  0  0  0  0  0  0  0  0  0  0  0
    3.2362   -9.2630    3.6146 C   0  0  0  0  0  0  0  0  0  0  0  0
    4.3525   -9.9173    3.8879 N   0  0  0  0  0  0  0  0  0  0  0  0
    4.9769   -8.9721    4.6626 C   0  0  0  0  0  0  0  0  0  0  0  0
    4.3332   -7.8121    4.8221 N   0  0  0  0  0  0  0  0  0  0  0  0
    3.1933   -8.0266    4.1199 N   0  0  0  0  0  0  0  0  0  0  0  0
    2.1451   -7.0353    3.9358 C   0  0  1  0  0  0  0  0  0  0  0  0
    2.5191   -6.0522    2.8285 C   0  0  0  0  0  0  0  0  0  0  0  0
    3.0581   -6.5018    1.6014 C   0  0  0  0  0  0  0  0  0  0  0  0
    3.3903   -5.5541    0.6160 C   0  0  0  0  0  0  0  0  0  0  0  0
    3.2064   -4.2281    0.7756 N   0  0  0  0  0  0  0  0  0  0  0  0
    2.6823   -3.8003    1.9429 C   0  0  0  0  0  0  0  0  0  0  0  0
    2.3189   -4.6658    2.9943 C   0  0  0  0  0  0  0  0  0  0  0  0
    0.8403   -7.7637    3.6256 C   0  0  0  0  0  0  0  0  0  0  0  0
   -2.5246   -7.4206    3.6619 H   0  0  0  0  0  0  0  0  0  0  0  0
   -1.8803   -8.6610    4.7016 H   0  0  0  0  0  0  0  0  0  0  0  0
   -2.3067   -9.8441    2.7285 H   0  0  0  0  0  0  0  0  0  0  0  0
   -1.7961   -8.5301    1.6746 H   0  0  0  0  0  0  0  0  0  0  0  0
   -0.1506  -10.6119    1.9870 H   0  0  0  0  0  0  0  0  0  0  0  0
    5.9395   -9.1444    5.1217 H   0  0  0  0  0  0  0  0  0  0  0  0
    2.0371   -6.4997    4.8787 H   0  0  0  0  0  0  0  0  0  0  0  0
    3.2189   -7.5523    1.4135 H   0  0  0  0  0  0  0  0  0  0  0  0
    3.8160   -5.8740   -0.3230 H   0  0  0  0  0  0  0  0  0  0  0  0
    2.5455   -2.7322    2.0358 H   0  0  0  0  0  0  0  0  0  0  0  0
    1.8920   -4.2716    3.9042 H   0  0  0  0  0  0  0  0  0  0  0  0
    2.1752  -10.6739    2.5664 H   0  0  0  0  0  0  0  0  0  0  0  0
  1  2  1  0
  2  3  1  0
  2 20  2  0
  3  4  1  0
  3 21  1  0
  3 22  1  0
  4  5  1  0
  4 23  1  0
  4 24  1  0
  5 25  1  0
  5  6  2  0
  6 20  1  0
  6  7  1  0
  7  8  1  0
  7 32  1  0
  8 12  1  0
  8  9  2  0
  9 10  1  0
 10 11  2  0
 10 26  1  0
 11 12  1  0
 12 13  1  0
 13 14  1  0
 13 27  1  1
 13 20  1  0
 14 19  1  0
 14 15  2  0
 15 16  1  0
 15 28  1  0
 16 17  2  0
 16 29  1  0
 17 18  1  0
 18 19  2  0
 18 30  1  0
 19 31  1  0
M  CHG  1   1  -1
M  END
>  <i_m_ct_stereo_status>  (17) 
1

>  <s_m_source_file>  (17) 
/var/tmp/pbs.5076255.sched01/tmpyb5u0fxv/0ob_ovo1_.sdf

>  <i_m_source_file_index>  (17) 
9

>  <i_lp_mmshare_version>  (17) 
48012

>  <i_f3d_flags>  (17) 
0

>  <s_epik_input>  (17) 
W0NIMl0xW0NIMl1bQ0gyXUMoPU8pW0NAQEhdKEMxPTIpW0NAQEhdKG4zYyhOMiluW2NIXW4zKWM0W2NIXVtjSF1uW2NIXVtjSF00

>  <s_epik_cmdline>  (17) 
J2VwaWtfcHl0aG9uJywgJy1waHQnLCAnMi4wJywgJy1waCcsICc3LjAnLCAnLXRuJywgJzgnLCAnLW1hJywgJzIwMCcsICctaW1hZScsICc8aW5maWxlLm1hZT4nLCAnLW9tYWUnLCAnPG91dGZpbGUubWFlPic=

>  <r_epik_Ionization_Penalty>  (17) 
0.540224

>  <r_epik_Ionization_Penalty_Charging>  (17) 
0.538938

>  <r_epik_Ionization_Penalty_Neutral>  (17) 
0.00128574

>  <r_epik_State_Penalty>  (17) 
0.372075

>  <r_epik_Charging_Adjusted_Penalty>  (17) 
0.911013

>  <i_epik_Tot_Q>  (17) 
-1

>  <i_epik_Tot_abs_Q>  (17) 
1

>  <s_epik_Chemistry_Notes>  (17) 
This compound has an imine and may undergo hydrolysis.

>  <s_lp_Force_Field>  (17) 
OPLS3e

>  <r_lp_Energy>  (17) 
33.9901

>  <b_lp_Chiralities_Consistent>  (17) 
1

>  <s_lp_Variant>  (17) 
6:0-1

>  <s_i_glide_gridfile>  (17) 
pfpi4k_grid

>  <i_i_glide_lignum>  (17) 
9

>  <i_i_glide_rotatable_bonds>  (17) 
1

>  <r_i_docking_score>  (17) 
-2.3878

>  <r_i_glide_ligand_efficiency>  (17) 
-0.11939

>  <r_i_glide_ligand_efficiency_sa>  (17) 
-0.324075

>  <r_i_glide_ligand_efficiency_ln>  (17) 
-0.597589

>  <r_i_glide_gscore>  (17) 
-2.3878

>  <r_i_glide_lipo>  (17) 
-0.194513

>  <r_i_glide_hbond>  (17) 
0

>  <r_i_glide_metal>  (17) 
-0

>  <r_i_glide_rewards>  (17) 
-1.59356

>  <r_i_glide_evdw>  (17) 
-19.8884

>  <r_i_glide_ecoul>  (17) 
1.00194

>  <r_i_glide_erotb>  (17) 
0.2512

>  <r_i_glide_esite>  (17) 
-0.00680483

>  <r_i_glide_emodel>  (17) 
-22.1253

>  <r_i_glide_energy>  (17) 
-18.8864

>  <r_i_glide_einternal>  (17) 
0.295391

>  <r_i_glide_intrahb_reward>  (17) 
-0

>  <i_i_glide_confnum>  (17) 
1

>  <i_i_glide_posenum>  (17) 
19

>  <r_i_glide_eff_state_penalty>  (17) 
0

>  <ligand_id>  (17) 
6

>  <original_smiles>  (17) 
O=C1CCCC2=Nc3ncnn3C(c3ccncc3)C12

>  <smiles>  (17) 
[H]C1=C2C(=C([O-])C([H])([H])C1([H])[H])C([H])(c1c([H])c([H])nc([H])c1[H])n1nc([H])nc1N2[H]

$$$$
6:1:0
     RDKit          3D

 33 36  0  0  1  0  0  0  0  0999 V2000
    2.7937   -2.0725    1.6110 O   0  0  0  0  0  0  0  0  0  0  0  0
    3.4137   -3.2606    1.5588 C   0  0  0  0  0  0  0  0  0  0  0  0
    2.6567   -4.2909    2.3786 C   0  0  0  0  0  0  0  0  0  0  0  0
    3.0131   -5.7447    1.9933 C   0  0  0  0  0  0  0  0  0  0  0  0
    4.4246   -5.8800    1.4549 C   0  0  0  0  0  0  0  0  0  0  0  0
    5.1420   -4.8505    0.9737 C   0  0  0  0  0  0  0  0  0  0  0  0
    6.4594   -5.0414    0.5806 N   0  0  0  0  0  0  0  0  0  0  0  0
    7.2945   -3.9705    0.3081 C   0  0  0  0  0  0  0  0  0  0  0  0
    8.6135   -3.9849    0.2374 N   0  0  0  0  0  0  0  0  0  0  0  0
    8.8294   -2.6438    0.0736 C   0  0  0  0  0  0  0  0  0  0  0  0
    7.7480   -1.8613   -0.0021 N   0  0  0  0  0  0  0  0  0  0  0  0
    6.7483   -2.7605    0.1504 N   0  0  0  0  0  0  0  0  0  0  0  0
    5.3274   -2.4341    0.1079 C   0  0  1  0  0  0  0  0  0  0  0  0
    4.8647   -2.3428   -1.3434 C   0  0  0  0  0  0  0  0  0  0  0  0
    4.3331   -1.1488   -1.8726 C   0  0  0  0  0  0  0  0  0  0  0  0
    3.9026   -1.1394   -3.2169 C   0  0  0  0  0  0  0  0  0  0  0  0
    3.9889   -2.2102   -4.0370 N   0  0  0  0  0  0  0  0  0  0  0  0
    4.4927   -3.3517   -3.5211 C   0  0  0  0  0  0  0  0  0  0  0  0
    4.9442   -3.4651   -2.1970 C   0  0  0  0  0  0  0  0  0  0  0  0
    4.5562   -3.5097    0.8849 C   0  0  0  0  0  0  0  0  0  0  0  0
    1.5816   -4.1329    2.2783 H   0  0  0  0  0  0  0  0  0  0  0  0
    2.9032   -4.1204    3.4303 H   0  0  0  0  0  0  0  0  0  0  0  0
    2.9092   -6.3902    2.8677 H   0  0  0  0  0  0  0  0  0  0  0  0
    2.3351   -6.1189    1.2262 H   0  0  0  0  0  0  0  0  0  0  0  0
    4.8492   -6.8739    1.4946 H   0  0  0  0  0  0  0  0  0  0  0  0
    9.8249   -2.2326    0.0090 H   0  0  0  0  0  0  0  0  0  0  0  0
    5.2070   -1.4722    0.6044 H   0  0  0  0  0  0  0  0  0  0  0  0
    4.2389   -0.2562   -1.2728 H   0  0  0  0  0  0  0  0  0  0  0  0
    3.4899   -0.2422   -3.6600 H   0  0  0  0  0  0  0  0  0  0  0  0
    4.5441   -4.1985   -4.1911 H   0  0  0  0  0  0  0  0  0  0  0  0
    5.3295   -4.4132   -1.8533 H   0  0  0  0  0  0  0  0  0  0  0  0
    6.8957   -5.9395    0.7239 H   0  0  0  0  0  0  0  0  0  0  0  0
    3.2640   -1.4746    1.0528 H   0  0  0  0  0  0  0  0  0  0  0  0
  1  2  1  0
  1 33  1  0
  2  3  1  0
  2 20  2  0
  3  4  1  0
  3 21  1  0
  3 22  1  0
  4  5  1  0
  4 23  1  0
  4 24  1  0
  5 25  1  0
  5  6  2  0
  6 20  1  0
  6  7  1  0
  7  8  1  0
  7 32  1  0
  8 12  1  0
  8  9  2  0
  9 10  1  0
 10 11  2  0
 10 26  1  0
 11 12  1  0
 12 13  1  0
 13 14  1  0
 13 27  1  1
 13 20  1  0
 14 19  1  0
 14 15  2  0
 15 16  1  0
 15 28  1  0
 16 17  2  0
 16 29  1  0
 17 18  1  0
 18 19  2  0
 18 30  1  0
 19 31  1  0
M  END
>  <i_m_ct_stereo_status>  (18) 
1

>  <s_m_source_file>  (18) 
/var/tmp/pbs.5076255.sched01/tmpyb5u0fxv/0ob_ovo1_.sdf

>  <i_m_source_file_index>  (18) 
10

>  <i_lp_mmshare_version>  (18) 
48012

>  <i_f3d_flags>  (18) 
0

>  <s_epik_input>  (18) 
W0NIMl0xW0NIMl1bQ0gyXUMoPU8pW0NAQEhdKEMxPTIpW0NAQEhdKG4zYyhOMiluW2NIXW4zKWM0W2NIXVtjSF1uW2NIXVtjSF00

>  <s_epik_cmdline>  (18) 
J2VwaWtfcHl0aG9uJywgJy1waHQnLCAnMi4wJywgJy1waCcsICc3LjAnLCAnLXRuJywgJzgnLCAnLW1hJywgJzIwMCcsICctaW1hZScsICc8aW5maWxlLm1hZT4nLCAnLW9tYWUnLCAnPG91dGZpbGUubWFlPic=

>  <r_epik_Ionization_Penalty>  (18) 
0.311496

>  <r_epik_Ionization_Penalty_Charging>  (18) 
2.93331e-10

>  <r_epik_Ionization_Penalty_Neutral>  (18) 
0.311496

>  <r_epik_State_Penalty>  (18) 
0.456266

>  <r_epik_Charging_Adjusted_Penalty>  (18) 
0.456266

>  <i_epik_Tot_Q>  (18) 
0

>  <i_epik_Tot_abs_Q>  (18) 
0

>  <s_epik_Chemistry_Notes>  (18) 
This compound has an imine and may undergo hydrolysis.

>  <s_lp_Force_Field>  (18) 
OPLS3e

>  <r_lp_Energy>  (18) 
35.1058

>  <b_lp_Chiralities_Consistent>  (18) 
1

>  <s_lp_Variant>  (18) 
6:0-2

>  <s_i_glide_gridfile>  (18) 
pfpi4k_grid

>  <i_i_glide_lignum>  (18) 
10

>  <i_i_glide_rotatable_bonds>  (18) 
2

>  <r_i_docking_score>  (18) 
-4.65921

>  <r_i_glide_ligand_efficiency>  (18) 
-0.232961

>  <r_i_glide_ligand_efficiency_sa>  (18) 
-0.632353

>  <r_i_glide_ligand_efficiency_ln>  (18) 
-1.16605

>  <r_i_glide_gscore>  (18) 
-4.65921

>  <r_i_glide_lipo>  (18) 
-0.561319

>  <r_i_glide_hbond>  (18) 
-0.355929

>  <r_i_glide_metal>  (18) 
-0

>  <r_i_glide_rewards>  (18) 
-1.89587

>  <r_i_glide_evdw>  (18) 
-28.2885

>  <r_i_glide_ecoul>  (18) 
-4.33391

>  <r_i_glide_erotb>  (18) 
0.249566

>  <r_i_glide_esite>  (18) 
-0.0311553

>  <r_i_glide_emodel>  (18) 
-42.5129

>  <r_i_glide_energy>  (18) 
-32.6224

>  <r_i_glide_einternal>  (18) 
0.203844

>  <r_i_glide_intrahb_reward>  (18) 
-0

>  <i_i_glide_confnum>  (18) 
1

>  <i_i_glide_posenum>  (18) 
26

>  <r_i_glide_eff_state_penalty>  (18) 
0

>  <ligand_id>  (18) 
6

>  <original_smiles>  (18) 
O=C1CCCC2=Nc3ncnn3C(c3ccncc3)C12

>  <smiles>  (18) 
[H]OC1=C2C(=C([H])C([H])([H])C1([H])[H])N([H])c1nc([H])nn1C2([H])c1c([H])c([H])nc([H])c1[H]

$$$$
6:1:1
     RDKit          3D

 33 36  0  0  1  0  0  0  0  0999 V2000
    3.3780   -0.4229    1.2716 O   0  0  0  0  0  0  0  0  0  0  0  0
    3.5723   -1.7284    1.5095 C   0  0  0  0  0  0  0  0  0  0  0  0
    2.6630   -2.2080    2.6273 C   0  0  0  0  0  0  0  0  0  0  0  0
    2.5091   -3.7458    2.6588 C   0  0  0  0  0  0  0  0  0  0  0  0
    3.7151   -4.4735    2.0951 C   0  0  0  0  0  0  0  0  0  0  0  0
    4.6289   -3.8989    1.2961 C   0  0  0  0  0  0  0  0  0  0  0  0
    5.7613   -4.6026    0.9053 N   0  0  0  0  0  0  0  0  0  0  0  0
    6.8325   -3.9591    0.3067 C   0  0  0  0  0  0  0  0  0  0  0  0
    8.0674   -4.4060    0.1826 N   0  0  0  0  0  0  0  0  0  0  0  0
    8.6313   -3.3128   -0.4131 C   0  0  0  0  0  0  0  0  0  0  0  0
    7.8278   -2.2725   -0.6562 N   0  0  0  0  0  0  0  0  0  0  0  0
    6.6513   -2.7232   -0.1680 N   0  0  0  0  0  0  0  0  0  0  0  0
    5.4082   -1.9746   -0.2192 C   0  0  1  0  0  0  0  0  0  0  0  0
    4.7996   -2.0805   -1.6132 C   0  0  0  0  0  0  0  0  0  0  0  0
    4.6280   -3.3323   -2.2454 C   0  0  0  0  0  0  0  0  0  0  0  0
    4.0684   -3.3683   -3.5353 C   0  0  0  0  0  0  0  0  0  0  0  0
    3.6897   -2.2643   -4.2109 N   0  0  0  0  0  0  0  0  0  0  0  0
    3.8201   -1.0737   -3.5906 C   0  0  0  0  0  0  0  0  0  0  0  0
    4.3839   -0.9266   -2.3075 C   0  0  0  0  0  0  0  0  0  0  0  0
    4.4673   -2.5064    0.8637 C   0  0  0  0  0  0  0  0  0  0  0  0
    1.6806   -1.7373    2.5372 H   0  0  0  0  0  0  0  0  0  0  0  0
    3.0974   -1.8683    3.5718 H   0  0  0  0  0  0  0  0  0  0  0  0
    2.3419   -4.0797    3.6844 H   0  0  0  0  0  0  0  0  0  0  0  0
    1.6466   -4.0550    2.0723 H   0  0  0  0  0  0  0  0  0  0  0  0
    3.8228   -5.5066    2.3943 H   0  0  0  0  0  0  0  0  0  0  0  0
    9.6847   -3.2830   -0.6486 H   0  0  0  0  0  0  0  0  0  0  0  0
    5.6648   -0.9410    0.0032 H   0  0  0  0  0  0  0  0  0  0  0  0
    4.9130   -4.2602   -1.7714 H   0  0  0  0  0  0  0  0  0  0  0  0
    3.9271   -4.3084   -4.0477 H   0  0  0  0  0  0  0  0  0  0  0  0
    3.4844   -0.2107   -4.1480 H   0  0  0  0  0  0  0  0  0  0  0  0
    4.4797    0.0604   -1.8802 H   0  0  0  0  0  0  0  0  0  0  0  0
    5.9168   -5.5332    1.2656 H   0  0  0  0  0  0  0  0  0  0  0  0
    3.9293   -0.1775    0.5477 H   0  0  0  0  0  0  0  0  0  0  0  0
  1  2  1  0
  1 33  1  0
  2  3  1  0
  2 20  2  0
  3  4  1  0
  3 21  1  0
  3 22  1  0
  4  5  1  0
  4 23  1  0
  4 24  1  0
  5 25  1  0
  5  6  2  0
  6 20  1  0
  6  7  1  0
  7  8  1  0
  7 32  1  0
  8 12  1  0
  8  9  2  0
  9 10  1  0
 10 11  2  0
 10 26  1  0
 11 12  1  0
 12 13  1  0
 13 14  1  0
 13 27  1  1
 13 20  1  0
 14 19  1  0
 14 15  2  0
 15 16  1  0
 15 28  1  0
 16 17  2  0
 16 29  1  0
 17 18  1  0
 18 19  2  0
 18 30  1  0
 19 31  1  0
M  END
>  <i_m_ct_stereo_status>  (19) 
1

>  <s_m_source_file>  (19) 
/var/tmp/pbs.5076255.sched01/tmpyb5u0fxv/0ob_ovo1_.sdf

>  <i_m_source_file_index>  (19) 
10

>  <i_lp_mmshare_version>  (19) 
48012

>  <i_f3d_flags>  (19) 
0

>  <s_epik_input>  (19) 
W0NIMl0xW0NIMl1bQ0gyXUMoPU8pW0NAQEhdKEMxPTIpW0NAQEhdKG4zYyhOMiluW2NIXW4zKWM0W2NIXVtjSF1uW2NIXVtjSF00

>  <s_epik_cmdline>  (19) 
J2VwaWtfcHl0aG9uJywgJy1waHQnLCAnMi4wJywgJy1waCcsICc3LjAnLCAnLXRuJywgJzgnLCAnLW1hJywgJzIwMCcsICctaW1hZScsICc8aW5maWxlLm1hZT4nLCAnLW9tYWUnLCAnPG91dGZpbGUubWFlPic=

>  <r_epik_Ionization_Penalty>  (19) 
0.311496

>  <r_epik_Ionization_Penalty_Charging>  (19) 
2.93331e-10

>  <r_epik_Ionization_Penalty_Neutral>  (19) 
0.311496

>  <r_epik_State_Penalty>  (19) 
0.456266

>  <r_epik_Charging_Adjusted_Penalty>  (19) 
0.456266

>  <i_epik_Tot_Q>  (19) 
0

>  <i_epik_Tot_abs_Q>  (19) 
0

>  <s_epik_Chemistry_Notes>  (19) 
This compound has an imine and may undergo hydrolysis.

>  <s_lp_Force_Field>  (19) 
OPLS3e

>  <r_lp_Energy>  (19) 
35.1058

>  <b_lp_Chiralities_Consistent>  (19) 
1

>  <s_lp_Variant>  (19) 
6:0-2

>  <s_i_glide_gridfile>  (19) 
pfpi4k_grid

>  <i_i_glide_lignum>  (19) 
10

>  <i_i_glide_rotatable_bonds>  (19) 
2

>  <r_i_docking_score>  (19) 
-4.61073

>  <r_i_glide_ligand_efficiency>  (19) 
-0.230536

>  <r_i_glide_ligand_efficiency_sa>  (19) 
-0.625772

>  <r_i_glide_ligand_efficiency_ln>  (19) 
-1.15391

>  <r_i_glide_gscore>  (19) 
-4.61073

>  <r_i_glide_lipo>  (19) 
-0.483195

>  <r_i_glide_hbond>  (19) 
-0.48

>  <r_i_glide_metal>  (19) 
-0

>  <r_i_glide_rewards>  (19) 
-1.79942

>  <r_i_glide_evdw>  (19) 
-27.5075

>  <r_i_glide_ecoul>  (19) 
-4.81537

>  <r_i_glide_erotb>  (19) 
0.249566

>  <r_i_glide_esite>  (19) 
0

>  <r_i_glide_emodel>  (19) 
-42.1188

>  <r_i_glide_energy>  (19) 
-32.3229

>  <r_i_glide_einternal>  (19) 
0.254077

>  <r_i_glide_intrahb_reward>  (19) 
-0

>  <i_i_glide_confnum>  (19) 
1

>  <i_i_glide_posenum>  (19) 
10

>  <r_i_glide_eff_state_penalty>  (19) 
0

>  <ligand_id>  (19) 
6

>  <original_smiles>  (19) 
O=C1CCCC2=Nc3ncnn3C(c3ccncc3)C12

>  <smiles>  (19) 
[H]OC1=C2C(=C([H])C([H])([H])C1([H])[H])N([H])c1nc([H])nn1C2([H])c1c([H])c([H])nc([H])c1[H]

$$$$
6:1:2
     RDKit          3D

 33 36  0  0  1  0  0  0  0  0999 V2000
    3.7111    0.1205    1.6251 O   0  0  0  0  0  0  0  0  0  0  0  0
    3.8650   -1.1689    1.9613 C   0  0  0  0  0  0  0  0  0  0  0  0
    3.1243   -1.4765    3.2523 C   0  0  0  0  0  0  0  0  0  0  0  0
    2.8544   -2.9860    3.4422 C   0  0  0  0  0  0  0  0  0  0  0  0
    3.8939   -3.8615    2.7664 C   0  0  0  0  0  0  0  0  0  0  0  0
    4.7074   -3.4347    1.7846 C   0  0  0  0  0  0  0  0  0  0  0  0
    5.6850   -4.2726    1.2604 N   0  0  0  0  0  0  0  0  0  0  0  0
    6.6785   -3.7878    0.4238 C   0  0  0  0  0  0  0  0  0  0  0  0
    7.8430   -4.3486    0.1508 N   0  0  0  0  0  0  0  0  0  0  0  0
    8.3847   -3.3663   -0.6284 C   0  0  0  0  0  0  0  0  0  0  0  0
    7.6312   -2.2787   -0.8260 N   0  0  0  0  0  0  0  0  0  0  0  0
    6.5137   -2.5830   -0.1261 N   0  0  0  0  0  0  0  0  0  0  0  0
    5.3439   -1.7246   -0.0247 C   0  0  1  0  0  0  0  0  0  0  0  0
    4.4890   -1.8851   -1.2788 C   0  0  0  0  0  0  0  0  0  0  0  0
    3.5687   -2.9487   -1.4141 C   0  0  0  0  0  0  0  0  0  0  0  0
    2.8195   -3.0543   -2.6030 C   0  0  0  0  0  0  0  0  0  0  0  0
    2.9509   -2.1975   -3.6368 N   0  0  0  0  0  0  0  0  0  0  0  0
    3.8167   -1.1746   -3.4968 C   0  0  0  0  0  0  0  0  0  0  0  0
    4.6116   -0.9785   -2.3486 C   0  0  0  0  0  0  0  0  0  0  0  0
    4.5822   -2.0704    1.2588 C   0  0  0  0  0  0  0  0  0  0  0  0
    2.1817   -0.9262    3.2833 H   0  0  0  0  0  0  0  0  0  0  0  0
    3.7428   -1.1103    4.0768 H   0  0  0  0  0  0  0  0  0  0  0  0
    2.8426   -3.2248    4.5073 H   0  0  0  0  0  0  0  0  0  0  0  0
    1.8816   -3.2590    3.0291 H   0  0  0  0  0  0  0  0  0  0  0  0
    3.9639   -4.8768    3.1310 H   0  0  0  0  0  0  0  0  0  0  0  0
    9.3781   -3.4536   -1.0452 H   0  0  0  0  0  0  0  0  0  0  0  0
    5.7112   -0.7038    0.0522 H   0  0  0  0  0  0  0  0  0  0  0  0
    3.4241   -3.6813   -0.6355 H   0  0  0  0  0  0  0  0  0  0  0  0
    2.0956   -3.8452   -2.7267 H   0  0  0  0  0  0  0  0  0  0  0  0
    3.8823   -0.4961   -4.3368 H   0  0  0  0  0  0  0  0  0  0  0  0
    5.2950   -0.1449   -2.3074 H   0  0  0  0  0  0  0  0  0  0  0  0
    5.8246   -5.1835    1.6726 H   0  0  0  0  0  0  0  0  0  0  0  0
    4.1731    0.2643    0.8159 H   0  0  0  0  0  0  0  0  0  0  0  0
  1  2  1  0
  1 33  1  0
  2  3  1  0
  2 20  2  0
  3  4  1  0
  3 21  1  0
  3 22  1  0
  4  5  1  0
  4 23  1  0
  4 24  1  0
  5 25  1  0
  5  6  2  0
  6 20  1  0
  6  7  1  0
  7  8  1  0
  7 32  1  0
  8 12  1  0
  8  9  2  0
  9 10  1  0
 10 11  2  0
 10 26  1  0
 11 12  1  0
 12 13  1  0
 13 14  1  0
 13 27  1  1
 13 20  1  0
 14 19  1  0
 14 15  2  0
 15 16  1  0
 15 28  1  0
 16 17  2  0
 16 29  1  0
 17 18  1  0
 18 19  2  0
 18 30  1  0
 19 31  1  0
M  END
>  <i_m_ct_stereo_status>  (20) 
1

>  <s_m_source_file>  (20) 
/var/tmp/pbs.5076255.sched01/tmpyb5u0fxv/0ob_ovo1_.sdf

>  <i_m_source_file_index>  (20) 
10

>  <i_lp_mmshare_version>  (20) 
48012

>  <i_f3d_flags>  (20) 
0

>  <s_epik_input>  (20) 
W0NIMl0xW0NIMl1bQ0gyXUMoPU8pW0NAQEhdKEMxPTIpW0NAQEhdKG4zYyhOMiluW2NIXW4zKWM0W2NIXVtjSF1uW2NIXVtjSF00

>  <s_epik_cmdline>  (20) 
J2VwaWtfcHl0aG9uJywgJy1waHQnLCAnMi4wJywgJy1waCcsICc3LjAnLCAnLXRuJywgJzgnLCAnLW1hJywgJzIwMCcsICctaW1hZScsICc8aW5maWxlLm1hZT4nLCAnLW9tYWUnLCAnPG91dGZpbGUubWFlPic=

>  <r_epik_Ionization_Penalty>  (20) 
0.311496

>  <r_epik_Ionization_Penalty_Charging>  (20) 
2.93331e-10

>  <r_epik_Ionization_Penalty_Neutral>  (20) 
0.311496

>  <r_epik_State_Penalty>  (20) 
0.456266

>  <r_epik_Charging_Adjusted_Penalty>  (20) 
0.456266

>  <i_epik_Tot_Q>  (20) 
0

>  <i_epik_Tot_abs_Q>  (20) 
0

>  <s_epik_Chemistry_Notes>  (20) 
This compound has an imine and may undergo hydrolysis.

>  <s_lp_Force_Field>  (20) 
OPLS3e

>  <r_lp_Energy>  (20) 
35.1058

>  <b_lp_Chiralities_Consistent>  (20) 
1

>  <s_lp_Variant>  (20) 
6:0-2

>  <s_i_glide_gridfile>  (20) 
pfpi4k_grid

>  <i_i_glide_lignum>  (20) 
10

>  <i_i_glide_rotatable_bonds>  (20) 
2

>  <r_i_docking_score>  (20) 
-3.86266

>  <r_i_glide_ligand_efficiency>  (20) 
-0.193133

>  <r_i_glide_ligand_efficiency_sa>  (20) 
-0.524243

>  <r_i_glide_ligand_efficiency_ln>  (20) 
-0.966696

>  <r_i_glide_gscore>  (20) 
-3.86266

>  <r_i_glide_lipo>  (20) 
-0.243076

>  <r_i_glide_hbond>  (20) 
-0.16

>  <r_i_glide_metal>  (20) 
-0

>  <r_i_glide_rewards>  (20) 
-1.8779

>  <r_i_glide_evdw>  (20) 
-27.3823

>  <r_i_glide_ecoul>  (20) 
-3.08087

>  <r_i_glide_erotb>  (20) 
0.249566

>  <r_i_glide_esite>  (20) 
0

>  <r_i_glide_emodel>  (20) 
-38.7126

>  <r_i_glide_energy>  (20) 
-30.4632

>  <r_i_glide_einternal>  (20) 
0.0498736

>  <r_i_glide_intrahb_reward>  (20) 
-0

>  <i_i_glide_confnum>  (20) 
3

>  <i_i_glide_posenum>  (20) 
36

>  <r_i_glide_eff_state_penalty>  (20) 
0

>  <ligand_id>  (20) 
6

>  <original_smiles>  (20) 
O=C1CCCC2=Nc3ncnn3C(c3ccncc3)C12

>  <smiles>  (20) 
[H]OC1=C2C(=C([H])C([H])([H])C1([H])[H])N([H])c1nc([H])nn1C2([H])c1c([H])c([H])nc([H])c1[H]

$$$$
7:0:0
     RDKit          3D

 29 32  0  0  1  0  0  0  0  0999 V2000
    2.8749   -2.4177    3.1941 O   0  0  0  0  0  0  0  0  0  0  0  0
    3.4942   -2.7285    2.1799 C   0  0  0  0  0  0  0  0  0  0  0  0
    2.9379   -2.4966    0.8087 C   0  0  0  0  0  0  0  0  0  0  0  0
    2.6972   -3.5123   -0.0475 C   0  0  0  0  0  0  0  0  0  0  0  0
    2.9208   -4.7701    0.4237 O   0  0  0  0  0  0  0  0  0  0  0  0
    4.2345   -5.2475    0.1372 C   0  0  0  0  0  0  0  0  0  0  0  0
    5.2790   -4.1372   -0.0562 C   0  0  0  0  0  0  0  0  0  0  0  0
    5.7613   -3.4843    1.0909 C   0  0  0  0  0  0  0  0  0  0  0  0
    6.8767   -2.6612    0.8520 C   0  0  0  0  0  0  0  0  0  0  0  0
    7.3180   -2.3867   -0.4582 C   0  0  0  0  0  0  0  0  0  0  0  0
    6.5044   -2.7449   -1.5531 C   0  0  0  0  0  0  0  0  0  0  0  0
    5.3789   -3.5608   -1.3378 C   0  0  0  0  0  0  0  0  0  0  0  0
    4.1064   -3.3429   -2.0279 C   0  0  0  0  0  0  0  0  0  0  0  0
    2.8747   -3.3166   -1.4856 C   0  0  0  0  0  0  0  0  0  0  0  0
    1.8162   -3.1267   -2.4512 C   0  0  0  0  0  0  0  0  0  0  0  0
    2.2372   -3.0441   -3.7223 C   0  0  0  0  0  0  0  0  0  0  0  0
    4.0223   -3.1218   -3.7789 S   0  0  0  0  0  0  0  0  0  0  0  0
    4.5318   -1.7922   -4.1407 O   0  0  0  0  0  0  0  0  0  0  0  0
    4.4911   -4.3508   -4.4331 O   0  0  0  0  0  0  0  0  0  0  0  0
    4.9408   -3.3517    2.3317 C   0  0  0  0  0  0  0  0  0  0  0  0
    5.3780   -3.6075    3.4533 O   0  0  0  0  0  0  0  0  0  0  0  0
    2.9403   -1.4840    0.4398 H   0  0  0  0  0  0  0  0  0  0  0  0
    4.5419   -5.8793    0.9699 H   0  0  0  0  0  0  0  0  0  0  0  0
    4.2196   -5.9105   -0.7278 H   0  0  0  0  0  0  0  0  0  0  0  0
    7.3254   -2.1312    1.6710 H   0  0  0  0  0  0  0  0  0  0  0  0
    8.1590   -1.7308   -0.5849 H   0  0  0  0  0  0  0  0  0  0  0  0
    6.6606   -2.2718   -2.5082 H   0  0  0  0  0  0  0  0  0  0  0  0
    0.7771   -3.0739   -2.1783 H   0  0  0  0  0  0  0  0  0  0  0  0
    1.6603   -2.9132   -4.6265 H   0  0  0  0  0  0  0  0  0  0  0  0
  1  2  2  0
  2 20  1  0
  2  3  1  0
  3  4  2  3
  3 22  1  0
  4 14  1  0
  4  5  1  0
  5  6  1  0
  6  7  1  0
  6 23  1  0
  6 24  1  0
  7 12  2  0
  7  8  1  0
  8  9  2  0
  8 20  1  0
  9 10  1  0
  9 25  1  0
 10 11  2  0
 10 26  1  0
 11 12  1  0
 11 27  1  0
 12 13  1  0
 13 17  1  0
 13 14  2  0
 14 15  1  0
 15 16  2  0
 15 28  1  0
 16 17  1  0
 16 29  1  0
 17 18  2  0
 17 19  2  0
 20 21  2  0
M  END
>  <i_m_ct_stereo_status>  (21) 
1

>  <s_m_source_file>  (21) 
/var/tmp/pbs.5076255.sched01/tmpyb5u0fxv/0ob_ovo1_.sdf

>  <i_m_source_file_index>  (21) 
11

>  <i_lp_mmshare_version>  (21) 
48012

>  <i_f3d_flags>  (21) 
0

>  <s_epik_input>  (21) 
Tz1DKC9bQ0hdPTEpQyg9TyljKFtjSF1bY0hdW2NIXTIpYyhbQ0gyXU8zKWMyQyg9QzRDMVwzKVMoPU8pKD1PKVtDSF09W0NIXTQ=

>  <s_epik_cmdline>  (21) 
J2VwaWtfcHl0aG9uJywgJy1waHQnLCAnMi4wJywgJy1waCcsICc3LjAnLCAnLXRuJywgJzgnLCAnLW1hJywgJzIwMCcsICctaW1hZScsICc8aW5maWxlLm1hZT4nLCAnLW9tYWUnLCAnPG91dGZpbGUubWFlPic=

>  <r_lp_tautomer_probability>  (21) 
1

>  <r_epik_Ionization_Penalty>  (21) 
0

>  <r_epik_Ionization_Penalty_Charging>  (21) 
0

>  <r_epik_Ionization_Penalty_Neutral>  (21) 
0

>  <r_epik_State_Penalty>  (21) 
-0

>  <r_epik_Charging_Adjusted_Penalty>  (21) 
0

>  <i_epik_Tot_Q>  (21) 
0

>  <i_epik_Tot_abs_Q>  (21) 
0

>  <s_lp_Force_Field>  (21) 
OPLS3e

>  <r_lp_Energy>  (21) 
95.9802

>  <b_lp_Chiralities_Consistent>  (21) 
1

>  <s_lp_Variant>  (21) 
7:0-1

>  <s_i_glide_gridfile>  (21) 
pfpi4k_grid

>  <i_i_glide_lignum>  (21) 
11

>  <i_i_glide_rotatable_bonds>  (21) 
0

>  <r_i_docking_score>  (21) 
-4.02414

>  <r_i_glide_ligand_efficiency>  (21) 
-0.191626

>  <r_i_glide_ligand_efficiency_sa>  (21) 
-0.528681

>  <r_i_glide_ligand_efficiency_ln>  (21) 
-0.994962

>  <r_i_glide_gscore>  (21) 
-4.02414

>  <r_i_glide_lipo>  (21) 
-0.6854

>  <r_i_glide_hbond>  (21) 
0

>  <r_i_glide_metal>  (21) 
-0

>  <r_i_glide_rewards>  (21) 
-1.60454

>  <r_i_glide_evdw>  (21) 
-20.6814

>  <r_i_glide_ecoul>  (21) 
-4.14376

>  <r_i_glide_erotb>  (21) 
0

>  <r_i_glide_esite>  (21) 
-0.0785669

>  <r_i_glide_emodel>  (21) 
-31.4199

>  <r_i_glide_energy>  (21) 
-24.8252

>  <r_i_glide_einternal>  (21) 
0

>  <r_i_glide_intrahb_reward>  (21) 
-0

>  <i_i_glide_confnum>  (21) 
2

>  <i_i_glide_posenum>  (21) 
1

>  <r_i_glide_eff_state_penalty>  (21) 
0

>  <ligand_id>  (21) 
7

>  <original_smiles>  (21) 
O=C1C=C2OCc3c(cccc3C3=C2C=CS3(=O)=O)C1=O

>  <smiles>  (21) 
[H]C1=C2OC([H])([H])c3c(c([H])c([H])c([H])c3C3=C2C([H])=C([H])S3(=O)=O)C(=O)C1=O

$$$$
7:0:1
     RDKit          3D

 29 32  0  0  1  0  0  0  0  0999 V2000
    2.5865   -4.1957    3.6754 O   0  0  0  0  0  0  0  0  0  0  0  0
    3.2432   -3.8441    2.7035 C   0  0  0  0  0  0  0  0  0  0  0  0
    2.6121   -3.4999    1.3988 C   0  0  0  0  0  0  0  0  0  0  0  0
    2.8641   -4.1813    0.2608 C   0  0  0  0  0  0  0  0  0  0  0  0
    3.7006   -5.2540    0.3781 O   0  0  0  0  0  0  0  0  0  0  0  0
    5.0649   -4.9240    0.1367 C   0  0  0  0  0  0  0  0  0  0  0  0
    5.3976   -3.4473    0.3950 C   0  0  0  0  0  0  0  0  0  0  0  0
    5.5401   -3.0243    1.7353 C   0  0  0  0  0  0  0  0  0  0  0  0
    6.0581   -1.7229    1.8741 C   0  0  0  0  0  0  0  0  0  0  0  0
    6.2146   -0.8881    0.7494 C   0  0  0  0  0  0  0  0  0  0  0  0
    5.6847   -1.2640   -0.4943 C   0  0  0  0  0  0  0  0  0  0  0  0
    5.1582   -2.5534   -0.6674 C   0  0  0  0  0  0  0  0  0  0  0  0
    3.9215   -2.7624   -1.4217 C   0  0  0  0  0  0  0  0  0  0  0  0
    2.8586   -3.4793   -1.0276 C   0  0  0  0  0  0  0  0  0  0  0  0
    1.8155   -3.5068   -2.0189 C   0  0  0  0  0  0  0  0  0  0  0  0
    2.0939   -2.8545   -3.1597 C   0  0  0  0  0  0  0  0  0  0  0  0
    3.6941   -2.0948   -3.0482 S   0  0  0  0  0  0  0  0  0  0  0  0
    3.5452   -0.6350   -3.0006 O   0  0  0  0  0  0  0  0  0  0  0  0
    4.6158   -2.7778   -3.9597 O   0  0  0  0  0  0  0  0  0  0  0  0
    4.8110   -3.6921    2.8605 C   0  0  0  0  0  0  0  0  0  0  0  0
    5.3497   -4.0070    3.9203 O   0  0  0  0  0  0  0  0  0  0  0  0
    2.1018   -2.5478    1.3357 H   0  0  0  0  0  0  0  0  0  0  0  0
    5.6717   -5.5456    0.7939 H   0  0  0  0  0  0  0  0  0  0  0  0
    5.3468   -5.1986   -0.8822 H   0  0  0  0  0  0  0  0  0  0  0  0
    6.2431   -1.3248    2.8638 H   0  0  0  0  0  0  0  0  0  0  0  0
    6.5684    0.1263    0.8522 H   0  0  0  0  0  0  0  0  0  0  0  0
    5.5325   -0.4898   -1.2293 H   0  0  0  0  0  0  0  0  0  0  0  0
    0.9095   -4.0797   -1.9028 H   0  0  0  0  0  0  0  0  0  0  0  0
    1.5064   -2.7725   -4.0617 H   0  0  0  0  0  0  0  0  0  0  0  0
  1  2  2  0
  2 20  1  0
  2  3  1  0
  3  4  2  3
  3 22  1  0
  4 14  1  0
  4  5  1  0
  5  6  1  0
  6  7  1  0
  6 23  1  0
  6 24  1  0
  7 12  2  0
  7  8  1  0
  8  9  2  0
  8 20  1  0
  9 10  1  0
  9 25  1  0
 10 11  2  0
 10 26  1  0
 11 12  1  0
 11 27  1  0
 12 13  1  0
 13 17  1  0
 13 14  2  0
 14 15  1  0
 15 16  2  0
 15 28  1  0
 16 17  1  0
 16 29  1  0
 17 18  2  0
 17 19  2  0
 20 21  2  0
M  END
>  <i_m_ct_stereo_status>  (22) 
1

>  <s_m_source_file>  (22) 
/var/tmp/pbs.5076255.sched01/tmpyb5u0fxv/0ob_ovo1_.sdf

>  <i_m_source_file_index>  (22) 
11

>  <i_lp_mmshare_version>  (22) 
48012

>  <i_f3d_flags>  (22) 
0

>  <s_epik_input>  (22) 
Tz1DKC9bQ0hdPTEpQyg9TyljKFtjSF1bY0hdW2NIXTIpYyhbQ0gyXU8zKWMyQyg9QzRDMVwzKVMoPU8pKD1PKVtDSF09W0NIXTQ=

>  <s_epik_cmdline>  (22) 
J2VwaWtfcHl0aG9uJywgJy1waHQnLCAnMi4wJywgJy1waCcsICc3LjAnLCAnLXRuJywgJzgnLCAnLW1hJywgJzIwMCcsICctaW1hZScsICc8aW5maWxlLm1hZT4nLCAnLW9tYWUnLCAnPG91dGZpbGUubWFlPic=

>  <r_lp_tautomer_probability>  (22) 
1

>  <r_epik_Ionization_Penalty>  (22) 
0

>  <r_epik_Ionization_Penalty_Charging>  (22) 
0

>  <r_epik_Ionization_Penalty_Neutral>  (22) 
0

>  <r_epik_State_Penalty>  (22) 
-0

>  <r_epik_Charging_Adjusted_Penalty>  (22) 
0

>  <i_epik_Tot_Q>  (22) 
0

>  <i_epik_Tot_abs_Q>  (22) 
0

>  <s_lp_Force_Field>  (22) 
OPLS3e

>  <r_lp_Energy>  (22) 
95.9802

>  <b_lp_Chiralities_Consistent>  (22) 
1

>  <s_lp_Variant>  (22) 
7:0-1

>  <s_i_glide_gridfile>  (22) 
pfpi4k_grid

>  <i_i_glide_lignum>  (22) 
11

>  <i_i_glide_rotatable_bonds>  (22) 
0

>  <r_i_docking_score>  (22) 
-3.83419

>  <r_i_glide_ligand_efficiency>  (22) 
-0.18258

>  <r_i_glide_ligand_efficiency_sa>  (22) 
-0.503725

>  <r_i_glide_ligand_efficiency_ln>  (22) 
-0.947995

>  <r_i_glide_gscore>  (22) 
-3.83419

>  <r_i_glide_lipo>  (22) 
-0.627014

>  <r_i_glide_hbond>  (22) 
0

>  <r_i_glide_metal>  (22) 
-0

>  <r_i_glide_rewards>  (22) 
-1.50471

>  <r_i_glide_evdw>  (22) 
-21.6606

>  <r_i_glide_ecoul>  (22) 
-4.12955

>  <r_i_glide_erotb>  (22) 
0

>  <r_i_glide_esite>  (22) 
0

>  <r_i_glide_emodel>  (22) 
-32.0651

>  <r_i_glide_energy>  (22) 
-25.7902

>  <r_i_glide_einternal>  (22) 
0

>  <r_i_glide_intrahb_reward>  (22) 
-0

>  <i_i_glide_confnum>  (22) 
1

>  <i_i_glide_posenum>  (22) 
5

>  <r_i_glide_eff_state_penalty>  (22) 
0

>  <ligand_id>  (22) 
7

>  <original_smiles>  (22) 
O=C1C=C2OCc3c(cccc3C3=C2C=CS3(=O)=O)C1=O

>  <smiles>  (22) 
[H]C1=C2OC([H])([H])c3c(c([H])c([H])c([H])c3C3=C2C([H])=C([H])S3(=O)=O)C(=O)C1=O

$$$$
7:0:2
     RDKit          3D

 29 32  0  0  1  0  0  0  0  0999 V2000
   -2.1811    4.3621    3.6712 O   0  0  0  0  0  0  0  0  0  0  0  0
   -1.5182    3.4164    4.0932 C   0  0  0  0  0  0  0  0  0  0  0  0
   -0.3673    2.8544    3.3203 C   0  0  0  0  0  0  0  0  0  0  0  0
   -0.2992    1.5550    2.9391 C   0  0  0  0  0  0  0  0  0  0  0  0
   -1.3883    0.7820    3.2249 O   0  0  0  0  0  0  0  0  0  0  0  0
   -1.3003    0.1244    4.4817 C   0  0  0  0  0  0  0  0  0  0  0  0
   -0.3559    0.8084    5.4832 C   0  0  0  0  0  0  0  0  0  0  0  0
   -0.8211    1.9489    6.1656 C   0  0  0  0  0  0  0  0  0  0  0  0
   -0.0113    2.3637    7.2426 C   0  0  0  0  0  0  0  0  0  0  0  0
    1.2651    1.7919    7.4381 C   0  0  0  0  0  0  0  0  0  0  0  0
    1.8064    0.9315    6.4573 C   0  0  0  0  0  0  0  0  0  0  0  0
    1.0147    0.4985    5.3772 C   0  0  0  0  0  0  0  0  0  0  0  0
    1.5426    0.3694    4.0068 C   0  0  0  0  0  0  0  0  0  0  0  0
    0.9780    0.8519    2.8809 C   0  0  0  0  0  0  0  0  0  0  0  0
    1.7251    0.5494    1.6818 C   0  0  0  0  0  0  0  0  0  0  0  0
    2.8536   -0.1506    1.8865 C   0  0  0  0  0  0  0  0  0  0  0  0
    3.0600   -0.4876    3.6345 S   0  0  0  0  0  0  0  0  0  0  0  0
    4.2049    0.2774    4.1516 O   0  0  0  0  0  0  0  0  0  0  0  0
    2.8780   -1.9239    3.8940 O   0  0  0  0  0  0  0  0  0  0  0  0
   -1.8263    2.8679    5.5460 C   0  0  0  0  0  0  0  0  0  0  0  0
   -2.8010    3.3050    6.1593 O   0  0  0  0  0  0  0  0  0  0  0  0
    0.5115    3.4707    3.2518 H   0  0  0  0  0  0  0  0  0  0  0  0
   -2.3100    0.0855    4.8947 H   0  0  0  0  0  0  0  0  0  0  0  0
   -1.0117   -0.9172    4.3286 H   0  0  0  0  0  0  0  0  0  0  0  0
   -0.3050    3.2133    7.8448 H   0  0  0  0  0  0  0  0  0  0  0  0
    1.8968    2.1713    8.2228 H   0  0  0  0  0  0  0  0  0  0  0  0
    2.8693    0.7479    6.4607 H   0  0  0  0  0  0  0  0  0  0  0  0
    1.3846    0.8381    0.7004 H   0  0  0  0  0  0  0  0  0  0  0  0
    3.5718   -0.5182    1.1717 H   0  0  0  0  0  0  0  0  0  0  0  0
  1  2  2  0
  2 20  1  0
  2  3  1  0
  3  4  2  3
  3 22  1  0
  4 14  1  0
  4  5  1  0
  5  6  1  0
  6  7  1  0
  6 23  1  0
  6 24  1  0
  7 12  2  0
  7  8  1  0
  8  9  2  0
  8 20  1  0
  9 10  1  0
  9 25  1  0
 10 11  2  0
 10 26  1  0
 11 12  1  0
 11 27  1  0
 12 13  1  0
 13 17  1  0
 13 14  2  0
 14 15  1  0
 15 16  2  0
 15 28  1  0
 16 17  1  0
 16 29  1  0
 17 18  2  0
 17 19  2  0
 20 21  2  0
M  END
>  <i_m_ct_stereo_status>  (23) 
1

>  <s_m_source_file>  (23) 
/var/tmp/pbs.5076255.sched01/tmpyb5u0fxv/0ob_ovo1_.sdf

>  <i_m_source_file_index>  (23) 
11

>  <i_lp_mmshare_version>  (23) 
48012

>  <i_f3d_flags>  (23) 
0

>  <s_epik_input>  (23) 
Tz1DKC9bQ0hdPTEpQyg9TyljKFtjSF1bY0hdW2NIXTIpYyhbQ0gyXU8zKWMyQyg9QzRDMVwzKVMoPU8pKD1PKVtDSF09W0NIXTQ=

>  <s_epik_cmdline>  (23) 
J2VwaWtfcHl0aG9uJywgJy1waHQnLCAnMi4wJywgJy1waCcsICc3LjAnLCAnLXRuJywgJzgnLCAnLW1hJywgJzIwMCcsICctaW1hZScsICc8aW5maWxlLm1hZT4nLCAnLW9tYWUnLCAnPG91dGZpbGUubWFlPic=

>  <r_lp_tautomer_probability>  (23) 
1

>  <r_epik_Ionization_Penalty>  (23) 
0

>  <r_epik_Ionization_Penalty_Charging>  (23) 
0

>  <r_epik_Ionization_Penalty_Neutral>  (23) 
0

>  <r_epik_State_Penalty>  (23) 
-0

>  <r_epik_Charging_Adjusted_Penalty>  (23) 
0

>  <i_epik_Tot_Q>  (23) 
0

>  <i_epik_Tot_abs_Q>  (23) 
0

>  <s_lp_Force_Field>  (23) 
OPLS3e

>  <r_lp_Energy>  (23) 
95.9802

>  <b_lp_Chiralities_Consistent>  (23) 
1

>  <s_lp_Variant>  (23) 
7:0-1

>  <s_i_glide_gridfile>  (23) 
pfpi4k_grid

>  <i_i_glide_lignum>  (23) 
11

>  <i_i_glide_rotatable_bonds>  (23) 
0

>  <r_i_docking_score>  (23) 
-3.17198

>  <r_i_glide_ligand_efficiency>  (23) 
-0.151047

>  <r_i_glide_ligand_efficiency_sa>  (23) 
-0.416727

>  <r_i_glide_ligand_efficiency_ln>  (23) 
-0.784266

>  <r_i_glide_gscore>  (23) 
-3.17198

>  <r_i_glide_lipo>  (23) 
0

>  <r_i_glide_hbond>  (23) 
-0.16

>  <r_i_glide_metal>  (23) 
-0

>  <r_i_glide_rewards>  (23) 
-1.40639

>  <r_i_glide_evdw>  (23) 
-20.3984

>  <r_i_glide_ecoul>  (23) 
-3.57915

>  <r_i_glide_erotb>  (23) 
0

>  <r_i_glide_esite>  (23) 
-0.0487973

>  <r_i_glide_emodel>  (23) 
-29.1928

>  <r_i_glide_energy>  (23) 
-23.9776

>  <r_i_glide_einternal>  (23) 
0

>  <r_i_glide_intrahb_reward>  (23) 
-0

>  <i_i_glide_confnum>  (23) 
2

>  <i_i_glide_posenum>  (23) 
8

>  <r_i_glide_eff_state_penalty>  (23) 
0

>  <ligand_id>  (23) 
7

>  <original_smiles>  (23) 
O=C1C=C2OCc3c(cccc3C3=C2C=CS3(=O)=O)C1=O

>  <smiles>  (23) 
[H]C1=C2OC([H])([H])c3c(c([H])c([H])c([H])c3C3=C2C([H])=C([H])S3(=O)=O)C(=O)C1=O

$$$$
7:1:0
     RDKit          3D

 29 32  0  0  1  0  0  0  0  0999 V2000
   -2.4445    0.9644    6.8755 O   0  0  0  0  0  0  0  0  0  0  0  0
   -2.0856    2.1310    6.7036 C   0  0  0  0  0  0  0  0  0  0  0  0
   -2.4523    2.9756    5.5524 C   0  0  0  0  0  0  0  0  0  0  0  0
   -1.5804    3.2570    4.5543 C   0  0  0  0  0  0  0  0  0  0  0  0
   -1.1851    4.5535    4.5876 O   0  0  0  0  0  0  0  0  0  0  0  0
   -0.1689    4.7980    5.5794 C   0  0  0  0  0  0  0  0  0  0  0  0
    0.5605    3.5731    6.1987 C   0  0  0  0  0  0  0  0  0  0  0  0
    0.1863    3.0829    7.4657 C   0  0  0  0  0  0  0  0  0  0  0  0
    1.1708    2.2999    8.1055 C   0  0  0  0  0  0  0  0  0  0  0  0
    2.3158    1.8730    7.4000 C   0  0  0  0  0  0  0  0  0  0  0  0
    2.3677    2.0504    6.0040 C   0  0  0  0  0  0  0  0  0  0  0  0
    1.3698    2.8097    5.3462 C   0  0  0  0  0  0  0  0  0  0  0  0
    0.6899    2.2986    4.1524 C   0  0  0  0  0  0  0  0  0  0  0  0
   -0.6265    2.3824    3.8624 C   0  0  0  0  0  0  0  0  0  0  0  0
   -1.0074    1.6053    2.7014 C   0  0  0  0  0  0  0  0  0  0  0  0
   -0.0088    0.9146    2.1341 C   0  0  0  0  0  0  0  0  0  0  0  0
    1.5103    1.1745    3.0228 S   0  0  0  0  0  0  0  0  0  0  0  0
    2.4598    1.9162    2.1834 O   0  0  0  0  0  0  0  0  0  0  0  0
    1.8738   -0.0721    3.7143 O   0  0  0  0  0  0  0  0  0  0  0  0
   -1.2423    2.8604    7.8016 C   0  0  0  0  0  0  0  0  0  0  0  0
   -1.7540    3.1246    8.8868 O   0  0  0  0  0  0  0  0  0  0  0  0
   -3.0294    3.8211    5.8956 H   0  0  0  0  0  0  0  0  0  0  0  0
    0.5829    5.4295    5.1024 H   0  0  0  0  0  0  0  0  0  0  0  0
   -0.5861    5.4099    6.3813 H   0  0  0  0  0  0  0  0  0  0  0  0
    0.9780    1.8951    9.0871 H   0  0  0  0  0  0  0  0  0  0  0  0
    3.0245    1.2253    7.8893 H   0  0  0  0  0  0  0  0  0  0  0  0
    3.0711    1.4510    5.4444 H   0  0  0  0  0  0  0  0  0  0  0  0
   -2.0100    1.6023    2.3017 H   0  0  0  0  0  0  0  0  0  0  0  0
   -0.0148    0.2789    1.2662 H   0  0  0  0  0  0  0  0  0  0  0  0
  1  2  2  0
  2 20  1  0
  2  3  1  0
  3  4  2  3
  3 22  1  0
  4 14  1  0
  4  5  1  0
  5  6  1  0
  6  7  1  0
  6 23  1  0
  6 24  1  0
  7 12  2  0
  7  8  1  0
  8  9  2  0
  8 20  1  0
  9 10  1  0
  9 25  1  0
 10 11  2  0
 10 26  1  0
 11 12  1  0
 11 27  1  0
 12 13  1  0
 13 17  1  0
 13 14  2  0
 14 15  1  0
 15 16  2  0
 15 28  1  0
 16 17  1  0
 16 29  1  0
 17 18  2  0
 17 19  2  0
 20 21  2  0
M  END
>  <i_m_ct_stereo_status>  (24) 
1

>  <s_m_source_file>  (24) 
/var/tmp/pbs.5076255.sched01/tmpyb5u0fxv/0ob_ovo1_.sdf

>  <i_m_source_file_index>  (24) 
12

>  <i_lp_mmshare_version>  (24) 
48012

>  <i_f3d_flags>  (24) 
0

>  <s_epik_input>  (24) 
Tz1DKC9bQ0hdPTEpQyg9TyljKFtjSF1bY0hdW2NIXTIpYyhbQ0gyXU8zKWMyQyg9QzRDMVwzKVMoPU8pKD1PKVtDSF09W0NIXTQ=

>  <s_epik_cmdline>  (24) 
J2VwaWtfcHl0aG9uJywgJy1waHQnLCAnMi4wJywgJy1waCcsICc3LjAnLCAnLXRuJywgJzgnLCAnLW1hJywgJzIwMCcsICctaW1hZScsICc8aW5maWxlLm1hZT4nLCAnLW9tYWUnLCAnPG91dGZpbGUubWFlPic=

>  <r_lp_tautomer_probability>  (24) 
1

>  <r_epik_Ionization_Penalty>  (24) 
0

>  <r_epik_Ionization_Penalty_Charging>  (24) 
0

>  <r_epik_Ionization_Penalty_Neutral>  (24) 
0

>  <r_epik_State_Penalty>  (24) 
-0

>  <r_epik_Charging_Adjusted_Penalty>  (24) 
0

>  <i_epik_Tot_Q>  (24) 
0

>  <i_epik_Tot_abs_Q>  (24) 
0

>  <s_lp_Force_Field>  (24) 
OPLS3e

>  <r_lp_Energy>  (24) 
125.896

>  <b_lp_Chiralities_Consistent>  (24) 
1

>  <s_lp_Variant>  (24) 
7:0-2

>  <s_i_glide_gridfile>  (24) 
pfpi4k_grid

>  <i_i_glide_lignum>  (24) 
12

>  <i_i_glide_rotatable_bonds>  (24) 
0

>  <r_i_docking_score>  (24) 
-3.06472

>  <r_i_glide_ligand_efficiency>  (24) 
-0.145939

>  <r_i_glide_ligand_efficiency_sa>  (24) 
-0.402634

>  <r_i_glide_ligand_efficiency_ln>  (24) 
-0.757745

>  <r_i_glide_gscore>  (24) 
-3.06472

>  <r_i_glide_lipo>  (24) 
-0.0121842

>  <r_i_glide_hbond>  (24) 
-0.195034

>  <r_i_glide_metal>  (24) 
-0

>  <r_i_glide_rewards>  (24) 
-1.36168

>  <r_i_glide_evdw>  (24) 
-19.6507

>  <r_i_glide_ecoul>  (24) 
-3.22109

>  <r_i_glide_erotb>  (24) 
0

>  <r_i_glide_esite>  (24) 
-0.0301173

>  <r_i_glide_emodel>  (24) 
-27.3805

>  <r_i_glide_energy>  (24) 
-22.8718

>  <r_i_glide_einternal>  (24) 
0

>  <r_i_glide_intrahb_reward>  (24) 
-0

>  <i_i_glide_confnum>  (24) 
2

>  <i_i_glide_posenum>  (24) 
6

>  <r_i_glide_eff_state_penalty>  (24) 
0

>  <ligand_id>  (24) 
7

>  <original_smiles>  (24) 
O=C1C=C2OCc3c(cccc3C3=C2C=CS3(=O)=O)C1=O

>  <smiles>  (24) 
[H]C1=C2OC([H])([H])c3c(c([H])c([H])c([H])c3C3=C2C([H])=C([H])S3(=O)=O)C(=O)C1=O

$$$$
7:1:1
     RDKit          3D

 29 32  0  0  1  0  0  0  0  0999 V2000
   -2.1585    2.7825    2.9208 O   0  0  0  0  0  0  0  0  0  0  0  0
   -1.3739    1.9837    3.4294 C   0  0  0  0  0  0  0  0  0  0  0  0
   -1.6982    1.0725    4.5431 C   0  0  0  0  0  0  0  0  0  0  0  0
   -1.3043    1.3052    5.8193 C   0  0  0  0  0  0  0  0  0  0  0  0
   -0.3629    0.4170    6.2209 O   0  0  0  0  0  0  0  0  0  0  0  0
    0.9431    0.7252    5.6865 C   0  0  0  0  0  0  0  0  0  0  0  0
    1.1785    2.1473    5.1007 C   0  0  0  0  0  0  0  0  0  0  0  0
    1.1622    2.3588    3.7074 C   0  0  0  0  0  0  0  0  0  0  0  0
    1.8193    3.5333    3.2863 C   0  0  0  0  0  0  0  0  0  0  0  0
    2.2271    4.5035    4.2274 C   0  0  0  0  0  0  0  0  0  0  0  0
    1.7876    4.3928    5.5611 C   0  0  0  0  0  0  0  0  0  0  0  0
    1.1010    3.2305    5.9906 C   0  0  0  0  0  0  0  0  0  0  0  0
   -0.1554    3.3187    6.7405 C   0  0  0  0  0  0  0  0  0  0  0  0
   -1.2608    2.5586    6.5834 C   0  0  0  0  0  0  0  0  0  0  0  0
   -2.3961    3.0259    7.3569 C   0  0  0  0  0  0  0  0  0  0  0  0
   -2.1747    4.1373    8.0746 C   0  0  0  0  0  0  0  0  0  0  0  0
   -0.5010    4.7105    7.8163 S   0  0  0  0  0  0  0  0  0  0  0  0
    0.2725    4.5797    9.0601 O   0  0  0  0  0  0  0  0  0  0  0  0
   -0.5457    5.9591    7.0378 O   0  0  0  0  0  0  0  0  0  0  0  0
    0.0766    1.8007    2.8638 C   0  0  0  0  0  0  0  0  0  0  0  0
    0.2534    1.2635    1.7763 O   0  0  0  0  0  0  0  0  0  0  0  0
   -1.6091    0.0458    4.2196 H   0  0  0  0  0  0  0  0  0  0  0  0
    1.6484    0.5908    6.5095 H   0  0  0  0  0  0  0  0  0  0  0  0
    1.2266   -0.0215    4.9407 H   0  0  0  0  0  0  0  0  0  0  0  0
    1.8594    3.7710    2.2338 H   0  0  0  0  0  0  0  0  0  0  0  0
    2.6590    5.4228    3.8729 H   0  0  0  0  0  0  0  0  0  0  0  0
    1.8239    5.2794    6.1792 H   0  0  0  0  0  0  0  0  0  0  0  0
   -3.3438    2.5105    7.3677 H   0  0  0  0  0  0  0  0  0  0  0  0
   -2.8380    4.6789    8.7356 H   0  0  0  0  0  0  0  0  0  0  0  0
  1  2  2  0
  2 20  1  0
  2  3  1  0
  3  4  2  3
  3 22  1  0
  4 14  1  0
  4  5  1  0
  5  6  1  0
  6  7  1  0
  6 23  1  0
  6 24  1  0
  7 12  2  0
  7  8  1  0
  8  9  2  0
  8 20  1  0
  9 10  1  0
  9 25  1  0
 10 11  2  0
 10 26  1  0
 11 12  1  0
 11 27  1  0
 12 13  1  0
 13 17  1  0
 13 14  2  0
 14 15  1  0
 15 16  2  0
 15 28  1  0
 16 17  1  0
 16 29  1  0
 17 18  2  0
 17 19  2  0
 20 21  2  0
M  END
>  <i_m_ct_stereo_status>  (25) 
1

>  <s_m_source_file>  (25) 
/var/tmp/pbs.5076255.sched01/tmpyb5u0fxv/0ob_ovo1_.sdf

>  <i_m_source_file_index>  (25) 
12

>  <i_lp_mmshare_version>  (25) 
48012

>  <i_f3d_flags>  (25) 
0

>  <s_epik_input>  (25) 
Tz1DKC9bQ0hdPTEpQyg9TyljKFtjSF1bY0hdW2NIXTIpYyhbQ0gyXU8zKWMyQyg9QzRDMVwzKVMoPU8pKD1PKVtDSF09W0NIXTQ=

>  <s_epik_cmdline>  (25) 
J2VwaWtfcHl0aG9uJywgJy1waHQnLCAnMi4wJywgJy1waCcsICc3LjAnLCAnLXRuJywgJzgnLCAnLW1hJywgJzIwMCcsICctaW1hZScsICc8aW5maWxlLm1hZT4nLCAnLW9tYWUnLCAnPG91dGZpbGUubWFlPic=

>  <r_lp_tautomer_probability>  (25) 
1

>  <r_epik_Ionization_Penalty>  (25) 
0

>  <r_epik_Ionization_Penalty_Charging>  (25) 
0

>  <r_epik_Ionization_Penalty_Neutral>  (25) 
0

>  <r_epik_State_Penalty>  (25) 
-0

>  <r_epik_Charging_Adjusted_Penalty>  (25) 
0

>  <i_epik_Tot_Q>  (25) 
0

>  <i_epik_Tot_abs_Q>  (25) 
0

>  <s_lp_Force_Field>  (25) 
OPLS3e

>  <r_lp_Energy>  (25) 
125.896

>  <b_lp_Chiralities_Consistent>  (25) 
1

>  <s_lp_Variant>  (25) 
7:0-2

>  <s_i_glide_gridfile>  (25) 
pfpi4k_grid

>  <i_i_glide_lignum>  (25) 
12

>  <i_i_glide_rotatable_bonds>  (25) 
0

>  <r_i_docking_score>  (25) 
-2.84709

>  <r_i_glide_ligand_efficiency>  (25) 
-0.135576

>  <r_i_glide_ligand_efficiency_sa>  (25) 
-0.374043

>  <r_i_glide_ligand_efficiency_ln>  (25) 
-0.703937

>  <r_i_glide_gscore>  (25) 
-2.84709

>  <r_i_glide_lipo>  (25) 
-0.149558

>  <r_i_glide_hbond>  (25) 
0

>  <r_i_glide_metal>  (25) 
-0

>  <r_i_glide_rewards>  (25) 
-1.36168

>  <r_i_glide_evdw>  (25) 
-21.0008

>  <r_i_glide_ecoul>  (25) 
-1.14632

>  <r_i_glide_erotb>  (25) 
0

>  <r_i_glide_esite>  (25) 
-0.113865

>  <r_i_glide_emodel>  (25) 
-26.3216

>  <r_i_glide_energy>  (25) 
-22.1471

>  <r_i_glide_einternal>  (25) 
0

>  <r_i_glide_intrahb_reward>  (25) 
-0

>  <i_i_glide_confnum>  (25) 
2

>  <i_i_glide_posenum>  (25) 
35

>  <r_i_glide_eff_state_penalty>  (25) 
0

>  <ligand_id>  (25) 
7

>  <original_smiles>  (25) 
O=C1C=C2OCc3c(cccc3C3=C2C=CS3(=O)=O)C1=O

>  <smiles>  (25) 
[H]C1=C2OC([H])([H])c3c(c([H])c([H])c([H])c3C3=C2C([H])=C([H])S3(=O)=O)C(=O)C1=O

$$$$
7:1:2
     RDKit          3D

 29 32  0  0  1  0  0  0  0  0999 V2000
   -0.2671    0.7587    2.9440 O   0  0  0  0  0  0  0  0  0  0  0  0
   -1.0657    1.1844    3.7764 C   0  0  0  0  0  0  0  0  0  0  0  0
   -1.8729    2.4094    3.6295 C   0  0  0  0  0  0  0  0  0  0  0  0
   -1.6057    3.5380    4.3292 C   0  0  0  0  0  0  0  0  0  0  0  0
   -2.5446    3.7452    5.2847 O   0  0  0  0  0  0  0  0  0  0  0  0
   -2.3284    2.9735    6.4735 C   0  0  0  0  0  0  0  0  0  0  0  0
   -0.9586    2.2698    6.6395 C   0  0  0  0  0  0  0  0  0  0  0  0
   -0.8266    0.9013    6.3347 C   0  0  0  0  0  0  0  0  0  0  0  0
    0.2828    0.2719    6.9385 C   0  0  0  0  0  0  0  0  0  0  0  0
    1.2753    1.0389    7.5836 C   0  0  0  0  0  0  0  0  0  0  0  0
    1.2656    2.4414    7.4364 C   0  0  0  0  0  0  0  0  0  0  0  0
    0.1735    3.0801    6.8048 C   0  0  0  0  0  0  0  0  0  0  0  0
    0.3821    4.0715    5.7438 C   0  0  0  0  0  0  0  0  0  0  0  0
   -0.3229    4.1994    4.6004 C   0  0  0  0  0  0  0  0  0  0  0  0
    0.2581    5.1620    3.6825 C   0  0  0  0  0  0  0  0  0  0  0  0
    1.4038    5.7320    4.0897 C   0  0  0  0  0  0  0  0  0  0  0  0
    1.8525    5.0997    5.6972 S   0  0  0  0  0  0  0  0  0  0  0  0
    1.7315    6.1652    6.7023 O   0  0  0  0  0  0  0  0  0  0  0  0
    3.0597    4.2657    5.5689 O   0  0  0  0  0  0  0  0  0  0  0  0
   -1.3702    0.3481    5.0679 C   0  0  0  0  0  0  0  0  0  0  0  0
   -1.9567   -0.7310    4.9889 O   0  0  0  0  0  0  0  0  0  0  0  0
   -2.9227    2.1469    3.6033 H   0  0  0  0  0  0  0  0  0  0  0  0
   -2.4655    3.6524    7.3172 H   0  0  0  0  0  0  0  0  0  0  0  0
   -3.1310    2.2413    6.5634 H   0  0  0  0  0  0  0  0  0  0  0  0
    0.4652   -0.7785    6.7649 H   0  0  0  0  0  0  0  0  0  0  0  0
    2.1472    0.5473    7.9798 H   0  0  0  0  0  0  0  0  0  0  0  0
    2.1799    2.9761    7.6461 H   0  0  0  0  0  0  0  0  0  0  0  0
   -0.1942    5.4158    2.7385 H   0  0  0  0  0  0  0  0  0  0  0  0
    2.0120    6.4776    3.5982 H   0  0  0  0  0  0  0  0  0  0  0  0
  1  2  2  0
  2 20  1  0
  2  3  1  0
  3  4  2  3
  3 22  1  0
  4 14  1  0
  4  5  1  0
  5  6  1  0
  6  7  1  0
  6 23  1  0
  6 24  1  0
  7 12  2  0
  7  8  1  0
  8  9  2  0
  8 20  1  0
  9 10  1  0
  9 25  1  0
 10 11  2  0
 10 26  1  0
 11 12  1  0
 11 27  1  0
 12 13  1  0
 13 17  1  0
 13 14  2  0
 14 15  1  0
 15 16  2  0
 15 28  1  0
 16 17  1  0
 16 29  1  0
 17 18  2  0
 17 19  2  0
 20 21  2  0
M  END
>  <i_m_ct_stereo_status>  (26) 
1

>  <s_m_source_file>  (26) 
/var/tmp/pbs.5076255.sched01/tmpyb5u0fxv/0ob_ovo1_.sdf

>  <i_m_source_file_index>  (26) 
12

>  <i_lp_mmshare_version>  (26) 
48012

>  <i_f3d_flags>  (26) 
0

>  <s_epik_input>  (26) 
Tz1DKC9bQ0hdPTEpQyg9TyljKFtjSF1bY0hdW2NIXTIpYyhbQ0gyXU8zKWMyQyg9QzRDMVwzKVMoPU8pKD1PKVtDSF09W0NIXTQ=

>  <s_epik_cmdline>  (26) 
J2VwaWtfcHl0aG9uJywgJy1waHQnLCAnMi4wJywgJy1waCcsICc3LjAnLCAnLXRuJywgJzgnLCAnLW1hJywgJzIwMCcsICctaW1hZScsICc8aW5maWxlLm1hZT4nLCAnLW9tYWUnLCAnPG91dGZpbGUubWFlPic=

>  <r_lp_tautomer_probability>  (26) 
1

>  <r_epik_Ionization_Penalty>  (26) 
0

>  <r_epik_Ionization_Penalty_Charging>  (26) 
0

>  <r_epik_Ionization_Penalty_Neutral>  (26) 
0

>  <r_epik_State_Penalty>  (26) 
-0

>  <r_epik_Charging_Adjusted_Penalty>  (26) 
0

>  <i_epik_Tot_Q>  (26) 
0

>  <i_epik_Tot_abs_Q>  (26) 
0

>  <s_lp_Force_Field>  (26) 
OPLS3e

>  <r_lp_Energy>  (26) 
125.896

>  <b_lp_Chiralities_Consistent>  (26) 
1

>  <s_lp_Variant>  (26) 
7:0-2

>  <s_i_glide_gridfile>  (26) 
pfpi4k_grid

>  <i_i_glide_lignum>  (26) 
12

>  <i_i_glide_rotatable_bonds>  (26) 
0

>  <r_i_docking_score>  (26) 
-2.84139

>  <r_i_glide_ligand_efficiency>  (26) 
-0.135304

>  <r_i_glide_ligand_efficiency_sa>  (26) 
-0.373294

>  <r_i_glide_ligand_efficiency_ln>  (26) 
-0.702527

>  <r_i_glide_gscore>  (26) 
-2.84139

>  <r_i_glide_lipo>  (26) 
-0.117956

>  <r_i_glide_hbond>  (26) 
0

>  <r_i_glide_metal>  (26) 
-0

>  <r_i_glide_rewards>  (26) 
-1.36168

>  <r_i_glide_evdw>  (26) 
-20.6044

>  <r_i_glide_ecoul>  (26) 
-1.77314

>  <r_i_glide_erotb>  (26) 
0

>  <r_i_glide_esite>  (26) 
-0.0655622

>  <r_i_glide_emodel>  (26) 
-26.4843

>  <r_i_glide_energy>  (26) 
-22.3775

>  <r_i_glide_einternal>  (26) 
0

>  <r_i_glide_intrahb_reward>  (26) 
-0

>  <i_i_glide_confnum>  (26) 
1

>  <i_i_glide_posenum>  (26) 
5

>  <r_i_glide_eff_state_penalty>  (26) 
0

>  <ligand_id>  (26) 
7

>  <original_smiles>  (26) 
O=C1C=C2OCc3c(cccc3C3=C2C=CS3(=O)=O)C1=O

>  <smiles>  (26) 
[H]C1=C2OC([H])([H])c3c(c([H])c([H])c([H])c3C3=C2C([H])=C([H])S3(=O)=O)C(=O)C1=O

$$$$
10:0:0
     RDKit          3D

 55 59  0  0  1  0  0  0  0  0999 V2000
    3.0515   -0.2202   -3.8317 N   0  0  0  0  0  0  0  0  0  0  0  0
    3.6649   -1.3587   -3.4917 C   0  0  0  0  0  0  0  0  0  0  0  0
    4.2136   -2.0778   -4.2993 O   0  0  0  0  0  0  0  0  0  0  0  0
    3.6466   -1.7450   -2.0200 C   0  0  0  0  0  0  0  0  0  0  0  0
    5.0817   -1.9595   -1.5029 C   0  0  0  0  0  0  0  0  0  0  0  0
    5.0779   -2.5034   -0.0673 C   0  0  0  0  0  0  0  0  0  0  0  0
    4.3484   -3.7751    0.0185 N   0  0  0  0  0  0  0  0  0  0  0  0
    4.3996   -4.3812    1.3795 C   0  0  2  0  0  0  0  0  0  0  0  0
    3.6013   -3.5954    2.4263 C   0  0  0  0  0  0  0  0  0  0  0  0
    3.9585   -2.3925    2.8597 N   0  0  0  0  0  0  0  0  0  0  0  0
    2.9312   -1.9681    3.6830 N   0  0  0  0  0  0  0  0  0  0  0  0
    2.0061   -2.9092    3.7864 N   0  0  0  0  0  0  0  0  0  0  0  0
    2.4261   -3.9411    2.9946 N   0  0  0  0  0  0  0  0  0  0  0  0
    1.6945   -5.1578    2.8487 C   0  0  0  0  0  0  0  0  0  0  0  0
    1.7052   -5.8963    1.6003 C   0  0  0  0  0  0  0  0  0  0  0  0
    0.9268   -7.0691    1.4521 C   0  0  0  0  0  0  0  0  0  0  0  0
    0.1797   -7.4988    2.5410 C   0  0  0  0  0  0  0  0  0  0  0  0
    0.1632   -6.8126    3.7384 C   0  0  0  0  0  0  0  0  0  0  0  0
    0.9023   -5.6227    3.9256 C   0  0  0  0  0  0  0  0  0  0  0  0
   -0.6226   -7.4768    4.6186 O   0  0  0  0  0  0  0  0  0  0  0  0
   -0.9657   -8.6764    3.9735 C   0  0  0  0  0  0  0  0  0  0  0  0
   -0.5785   -8.6146    2.6328 O   0  0  0  0  0  0  0  0  0  0  0  0
    5.8290   -4.7418    1.8863 C   0  0  0  0  0  0  0  0  0  0  0  0
    6.6172   -5.7394    1.0126 C   0  0  0  0  0  0  0  0  0  0  0  0
    7.7266   -6.2499    1.9518 C   0  0  0  0  0  0  0  0  0  0  0  0
    7.1078   -6.2511    3.3482 C   0  0  0  0  0  0  0  0  0  0  0  0
    5.7928   -5.4660    3.2421 C   0  0  0  0  0  0  0  0  0  0  0  0
    2.9604   -3.5783   -0.4609 C   0  0  0  0  0  0  0  0  0  0  0  0
    2.8904   -3.0574   -1.8916 C   0  0  0  0  0  0  0  0  0  0  0  0
    3.0417    0.0698   -4.8021 H   0  0  0  0  0  0  0  0  0  0  0  0
    2.6135    0.3480   -3.1219 H   0  0  0  0  0  0  0  0  0  0  0  0
    3.1286   -1.0010   -1.4158 H   0  0  0  0  0  0  0  0  0  0  0  0
    5.6383   -2.6511   -2.1395 H   0  0  0  0  0  0  0  0  0  0  0  0
    5.6018   -0.9977   -1.5039 H   0  0  0  0  0  0  0  0  0  0  0  0
    6.1104   -2.6284    0.2556 H   0  0  0  0  0  0  0  0  0  0  0  0
    4.6084   -1.7472    0.5593 H   0  0  0  0  0  0  0  0  0  0  0  0
    3.9886   -5.4019    1.2881 H   0  0  0  0  0  0  0  0  0  0  0  0
    2.2431   -5.6568    0.7293 H   0  0  0  0  0  0  0  0  0  0  0  0
    0.9584   -7.6071    0.5122 H   0  0  0  0  0  0  0  0  0  0  0  0
    0.8621   -5.0838    4.8793 H   0  0  0  0  0  0  0  0  0  0  0  0
   -0.3924   -9.4839    4.4228 H   0  0  0  0  0  0  0  0  0  0  0  0
   -2.0369   -8.8744    4.0292 H   0  0  0  0  0  0  0  0  0  0  0  0
    6.4438   -3.8379    2.0204 H   0  0  0  0  0  0  0  0  0  0  0  0
    6.0032   -6.5826    0.6896 H   0  0  0  0  0  0  0  0  0  0  0  0
    7.0268   -5.2715    0.1297 H   0  0  0  0  0  0  0  0  0  0  0  0
    8.1174   -7.2246    1.6613 H   0  0  0  0  0  0  0  0  0  0  0  0
    8.5569   -5.5485    1.9277 H   0  0  0  0  0  0  0  0  0  0  0  0
    6.9253   -7.2659    3.7026 H   0  0  0  0  0  0  0  0  0  0  0  0
    7.7770   -5.7753    4.0609 H   0  0  0  0  0  0  0  0  0  0  0  0
    5.6669   -4.7625    4.0620 H   0  0  0  0  0  0  0  0  0  0  0  0
    4.9610   -6.1728    3.2931 H   0  0  0  0  0  0  0  0  0  0  0  0
    2.4137   -4.4698   -0.6109 H   0  0  0  0  0  0  0  0  0  0  0  0
    2.4141   -2.8888    0.1908 H   0  0  0  0  0  0  0  0  0  0  0  0
    1.8377   -2.9254   -2.1470 H   0  0  0  0  0  0  0  0  0  0  0  0
    3.2774   -3.8352   -2.5445 H   0  0  0  0  0  0  0  0  0  0  0  0
  1  2  1  0
  1 30  1  0
  1 31  1  0
  2  3  2  0
  2  4  1  0
  4 29  1  0
  4  5  1  0
  4 32  1  0
  5  6  1  0
  5 33  1  0
  5 34  1  0
  6  7  1  0
  6 35  1  0
  6 36  1  0
  7  8  1  0
  7 28  1  0
  8  9  1  0
  8 23  1  0
  8 37  1  6
  9 13  1  0
  9 10  2  0
 10 11  1  0
 11 12  2  0
 12 13  1  0
 13 14  1  0
 14 19  1  0
 14 15  2  0
 15 16  1  0
 15 38  1  0
 16 17  2  0
 16 39  1  0
 17 22  1  0
 17 18  1  0
 18 19  2  0
 18 20  1  0
 19 40  1  0
 20 21  1  0
 21 22  1  0
 21 41  1  0
 21 42  1  0
 23 27  1  0
 23 24  1  0
 23 43  1  0
 24 25  1  0
 24 44  1  0
 24 45  1  0
 25 26  1  0
 25 46  1  0
 25 47  1  0
 26 27  1  0
 26 48  1  0
 26 49  1  0
 27 50  1  0
 27 51  1  0
 28 29  1  0
 28 52  1  0
 28 53  1  0
 29 54  1  0
 29 55  1  0
M  END
>  <i_m_ct_stereo_status>  (27) 
1

>  <s_m_source_file>  (27) 
/var/tmp/pbs.5076255.sched01/tmpyb5u0fxv/0ob_ovo1_.sdf

>  <i_m_source_file_index>  (27) 
16

>  <i_lp_mmshare_version>  (27) 
48012

>  <i_f3d_flags>  (27) 
0

>  <s_epik_input>  (27) 
W05IMl1DKD1PKVtDSF0xW0NIMl1bQ0gyXU4oW0NIMl1bQ0gyXTEpW0NAQEhdKFtDSF0yW0NIMl1bQ0gyXVtDSDJdW0NIMl0yKWMzbm5ubjMtYyhbY0hdW2NIXTQpW2NIXWMoYzQ1KU9bQ0gyXU81

>  <s_epik_cmdline>  (27) 
J2VwaWtfcHl0aG9uJywgJy1waHQnLCAnMi4wJywgJy1waCcsICc3LjAnLCAnLXRuJywgJzgnLCAnLW1hJywgJzIwMCcsICctaW1hZScsICc8aW5maWxlLm1hZT4nLCAnLW9tYWUnLCAnPG91dGZpbGUubWFlPic=

>  <r_lp_tautomer_probability>  (27) 
1

>  <r_epik_Ionization_Penalty>  (27) 
0.142423

>  <r_epik_Ionization_Penalty_Charging>  (27) 
0

>  <r_epik_Ionization_Penalty_Neutral>  (27) 
0.142423

>  <r_epik_State_Penalty>  (27) 
0.131732

>  <r_epik_Charging_Adjusted_Penalty>  (27) 
0.131732

>  <i_epik_Tot_Q>  (27) 
0

>  <i_epik_Tot_abs_Q>  (27) 
0

>  <s_epik_Chemistry_Notes>  (27) 
This compound contains an acetal/aminal-like group ( X-CH(R)-Y where X, Y are N, S, or O) that may be acid/base labile, releasing an aldehyde.

>  <s_lp_Force_Field>  (27) 
OPLS3e

>  <r_lp_Energy>  (27) 
49.6334

>  <b_lp_Chiralities_Consistent>  (27) 
1

>  <s_lp_Variant>  (27) 
10:0-1

>  <s_i_glide_gridfile>  (27) 
pfpi4k_grid

>  <i_i_glide_lignum>  (27) 
16

>  <i_i_glide_rotatable_bonds>  (27) 
5

>  <r_i_docking_score>  (27) 
-3.96281

>  <r_i_glide_ligand_efficiency>  (27) 
-0.136649

>  <r_i_glide_ligand_efficiency_sa>  (27) 
-0.419828

>  <r_i_glide_ligand_efficiency_ln>  (27) 
-0.907383

>  <r_i_glide_gscore>  (27) 
-3.96281

>  <r_i_glide_lipo>  (27) 
-0.164899

>  <r_i_glide_hbond>  (27) 
-0.494903

>  <r_i_glide_metal>  (27) 
-0

>  <r_i_glide_rewards>  (27) 
-0.944709

>  <r_i_glide_evdw>  (27) 
-36.2012

>  <r_i_glide_ecoul>  (27) 
-6.34849

>  <r_i_glide_erotb>  (27) 
0.493416

>  <r_i_glide_esite>  (27) 
-0.0893818

>  <r_i_glide_emodel>  (27) 
-51.0111

>  <r_i_glide_energy>  (27) 
-42.5497

>  <r_i_glide_einternal>  (27) 
0.604551

>  <r_i_glide_intrahb_reward>  (27) 
-0

>  <i_i_glide_confnum>  (27) 
1

>  <i_i_glide_posenum>  (27) 
22

>  <r_i_glide_eff_state_penalty>  (27) 
0

>  <ligand_id>  (27) 
10

>  <original_smiles>  (27) 
NC(=O)C1CCN(C(c2nnnn2-c2ccc3c(c2)OCO3)C2CCCC2)CC1

>  <smiles>  (27) 
[H]c1c([H])c(-n2nnnc2C([H])(N2C([H])([H])C([H])([H])C([H])(C(=O)N([H])[H])C([H])([H])C2([H])[H])C2([H])C([H])([H])C([H])([H])C([H])([H])C2([H])[H])c([H])c2c1OC([H])([H])O2

$$$$
10:0:1
     RDKit          3D

 55 59  0  0  1  0  0  0  0  0999 V2000
   -3.4157    2.9755    2.5270 N   0  0  0  0  0  0  0  0  0  0  0  0
   -2.2994    3.5863    2.9232 C   0  0  0  0  0  0  0  0  0  0  0  0
   -2.2156    4.8111    2.9899 O   0  0  0  0  0  0  0  0  0  0  0  0
   -1.1298    2.6797    3.3123 C   0  0  0  0  0  0  0  0  0  0  0  0
   -0.8953    1.5764    2.2602 C   0  0  0  0  0  0  0  0  0  0  0  0
    0.1896    0.6068    2.7043 C   0  0  0  0  0  0  0  0  0  0  0  0
   -0.1085    0.0149    4.0168 N   0  0  0  0  0  0  0  0  0  0  0  0
    0.8910   -1.0124    4.3802 C   0  0  2  0  0  0  0  0  0  0  0  0
    0.2650   -2.1973    5.1238 C   0  0  0  0  0  0  0  0  0  0  0  0
   -0.6649   -2.0789    6.0739 N   0  0  0  0  0  0  0  0  0  0  0  0
   -0.8945   -3.3694    6.5257 N   0  0  0  0  0  0  0  0  0  0  0  0
   -0.1353   -4.2254    5.8883 N   0  0  0  0  0  0  0  0  0  0  0  0
    0.5793   -3.5157    4.9837 N   0  0  0  0  0  0  0  0  0  0  0  0
    1.5635   -4.0923    4.1267 C   0  0  0  0  0  0  0  0  0  0  0  0
    2.3475   -5.1774    4.5780 C   0  0  0  0  0  0  0  0  0  0  0  0
    3.3588   -5.7651    3.7622 C   0  0  0  0  0  0  0  0  0  0  0  0
    3.5653   -5.2059    2.4905 C   0  0  0  0  0  0  0  0  0  0  0  0
    2.8090   -4.1517    2.0440 C   0  0  0  0  0  0  0  0  0  0  0  0
    1.7763   -3.5947    2.8168 C   0  0  0  0  0  0  0  0  0  0  0  0
    3.1677   -3.8095    0.7800 O   0  0  0  0  0  0  0  0  0  0  0  0
    4.0852   -4.7821    0.3827 C   0  0  0  0  0  0  0  0  0  0  0  0
    4.4099   -5.5890    1.4957 O   0  0  0  0  0  0  0  0  0  0  0  0
    2.1887   -0.4401    5.0597 C   0  0  0  0  0  0  0  0  0  0  0  0
    3.0476    0.4779    4.1679 C   0  0  0  0  0  0  0  0  0  0  0  0
    4.4064    0.5344    4.8590 C   0  0  0  0  0  0  0  0  0  0  0  0
    4.5705   -0.8295    5.5266 C   0  0  0  0  0  0  0  0  0  0  0  0
    3.2034   -1.5149    5.4506 C   0  0  0  0  0  0  0  0  0  0  0  0
   -0.2827    1.0433    5.0496 C   0  0  0  0  0  0  0  0  0  0  0  0
   -1.3907    2.0366    4.6856 C   0  0  0  0  0  0  0  0  0  0  0  0
   -4.2165    3.5105    2.2295 H   0  0  0  0  0  0  0  0  0  0  0  0
   -3.4367    1.9603    2.4957 H   0  0  0  0  0  0  0  0  0  0  0  0
   -0.2221    3.2878    3.3729 H   0  0  0  0  0  0  0  0  0  0  0  0
   -1.7910    0.9971    2.0445 H   0  0  0  0  0  0  0  0  0  0  0  0
   -0.5634    2.0218    1.3192 H   0  0  0  0  0  0  0  0  0  0  0  0
    0.2633   -0.1728    1.9486 H   0  0  0  0  0  0  0  0  0  0  0  0
    1.1251    1.1571    2.6947 H   0  0  0  0  0  0  0  0  0  0  0  0
    1.2308   -1.3805    3.4257 H   0  0  0  0  0  0  0  0  0  0  0  0
    2.1798   -5.6063    5.5638 H   0  0  0  0  0  0  0  0  0  0  0  0
    3.9175   -6.6357    4.0818 H   0  0  0  0  0  0  0  0  0  0  0  0
    1.1624   -2.8609    2.3312 H   0  0  0  0  0  0  0  0  0  0  0  0
    3.5756   -5.3846   -0.3663 H   0  0  0  0  0  0  0  0  0  0  0  0
    4.9695   -4.3117   -0.0536 H   0  0  0  0  0  0  0  0  0  0  0  0
    1.9691    0.0790    6.0000 H   0  0  0  0  0  0  0  0  0  0  0  0
    3.1650    0.0744    3.1591 H   0  0  0  0  0  0  0  0  0  0  0  0
    2.6653    1.4896    4.0961 H   0  0  0  0  0  0  0  0  0  0  0  0
    5.2120    0.7875    4.1657 H   0  0  0  0  0  0  0  0  0  0  0  0
    4.3550    1.3097    5.6210 H   0  0  0  0  0  0  0  0  0  0  0  0
    5.3132   -1.4291    4.9936 H   0  0  0  0  0  0  0  0  0  0  0  0
    4.8809   -0.7163    6.5630 H   0  0  0  0  0  0  0  0  0  0  0  0
    2.9225   -2.0098    6.3808 H   0  0  0  0  0  0  0  0  0  0  0  0
    3.3031   -2.2625    4.6679 H   0  0  0  0  0  0  0  0  0  0  0  0
   -0.5190    0.5846    6.0147 H   0  0  0  0  0  0  0  0  0  0  0  0
    0.6252    1.6317    5.1686 H   0  0  0  0  0  0  0  0  0  0  0  0
   -1.4342    2.8125    5.4605 H   0  0  0  0  0  0  0  0  0  0  0  0
   -2.3515    1.5182    4.6857 H   0  0  0  0  0  0  0  0  0  0  0  0
  1  2  1  0
  1 30  1  0
  1 31  1  0
  2  3  2  0
  2  4  1  0
  4 29  1  0
  4  5  1  0
  4 32  1  0
  5  6  1  0
  5 33  1  0
  5 34  1  0
  6  7  1  0
  6 35  1  0
  6 36  1  0
  7  8  1  0
  7 28  1  0
  8  9  1  0
  8 23  1  0
  8 37  1  6
  9 13  1  0
  9 10  2  0
 10 11  1  0
 11 12  2  0
 12 13  1  0
 13 14  1  0
 14 19  1  0
 14 15  2  0
 15 16  1  0
 15 38  1  0
 16 17  2  0
 16 39  1  0
 17 22  1  0
 17 18  1  0
 18 19  2  0
 18 20  1  0
 19 40  1  0
 20 21  1  0
 21 22  1  0
 21 41  1  0
 21 42  1  0
 23 27  1  0
 23 24  1  0
 23 43  1  0
 24 25  1  0
 24 44  1  0
 24 45  1  0
 25 26  1  0
 25 46  1  0
 25 47  1  0
 26 27  1  0
 26 48  1  0
 26 49  1  0
 27 50  1  0
 27 51  1  0
 28 29  1  0
 28 52  1  0
 28 53  1  0
 29 54  1  0
 29 55  1  0
M  END
>  <i_m_ct_stereo_status>  (28) 
1

>  <s_m_source_file>  (28) 
/var/tmp/pbs.5076255.sched01/tmpyb5u0fxv/0ob_ovo1_.sdf

>  <i_m_source_file_index>  (28) 
16

>  <i_lp_mmshare_version>  (28) 
48012

>  <i_f3d_flags>  (28) 
0

>  <s_epik_input>  (28) 
W05IMl1DKD1PKVtDSF0xW0NIMl1bQ0gyXU4oW0NIMl1bQ0gyXTEpW0NAQEhdKFtDSF0yW0NIMl1bQ0gyXVtDSDJdW0NIMl0yKWMzbm5ubjMtYyhbY0hdW2NIXTQpW2NIXWMoYzQ1KU9bQ0gyXU81

>  <s_epik_cmdline>  (28) 
J2VwaWtfcHl0aG9uJywgJy1waHQnLCAnMi4wJywgJy1waCcsICc3LjAnLCAnLXRuJywgJzgnLCAnLW1hJywgJzIwMCcsICctaW1hZScsICc8aW5maWxlLm1hZT4nLCAnLW9tYWUnLCAnPG91dGZpbGUubWFlPic=

>  <r_lp_tautomer_probability>  (28) 
1

>  <r_epik_Ionization_Penalty>  (28) 
0.142423

>  <r_epik_Ionization_Penalty_Charging>  (28) 
0

>  <r_epik_Ionization_Penalty_Neutral>  (28) 
0.142423

>  <r_epik_State_Penalty>  (28) 
0.131732

>  <r_epik_Charging_Adjusted_Penalty>  (28) 
0.131732

>  <i_epik_Tot_Q>  (28) 
0

>  <i_epik_Tot_abs_Q>  (28) 
0

>  <s_epik_Chemistry_Notes>  (28) 
This compound contains an acetal/aminal-like group ( X-CH(R)-Y where X, Y are N, S, or O) that may be acid/base labile, releasing an aldehyde.

>  <s_lp_Force_Field>  (28) 
OPLS3e

>  <r_lp_Energy>  (28) 
49.6334

>  <b_lp_Chiralities_Consistent>  (28) 
1

>  <s_lp_Variant>  (28) 
10:0-1

>  <s_i_glide_gridfile>  (28) 
pfpi4k_grid

>  <i_i_glide_lignum>  (28) 
16

>  <i_i_glide_rotatable_bonds>  (28) 
5

>  <r_i_docking_score>  (28) 
-3.86205

>  <r_i_glide_ligand_efficiency>  (28) 
-0.133174

>  <r_i_glide_ligand_efficiency_sa>  (28) 
-0.409153

>  <r_i_glide_ligand_efficiency_ln>  (28) 
-0.884312

>  <r_i_glide_gscore>  (28) 
-3.86205

>  <r_i_glide_lipo>  (28) 
-0.0402812

>  <r_i_glide_hbond>  (28) 
-0.48

>  <r_i_glide_metal>  (28) 
-0

>  <r_i_glide_rewards>  (28) 
-0.737775

>  <r_i_glide_evdw>  (28) 
-24.9577

>  <r_i_glide_ecoul>  (28) 
-11.2117

>  <r_i_glide_erotb>  (28) 
0.493416

>  <r_i_glide_esite>  (28) 
-0.167776

>  <r_i_glide_emodel>  (28) 
-40.4385

>  <r_i_glide_energy>  (28) 
-36.1694

>  <r_i_glide_einternal>  (28) 
8.90418

>  <r_i_glide_intrahb_reward>  (28) 
-0

>  <i_i_glide_confnum>  (28) 
3

>  <i_i_glide_posenum>  (28) 
19

>  <r_i_glide_eff_state_penalty>  (28) 
0

>  <ligand_id>  (28) 
10

>  <original_smiles>  (28) 
NC(=O)C1CCN(C(c2nnnn2-c2ccc3c(c2)OCO3)C2CCCC2)CC1

>  <smiles>  (28) 
[H]c1c([H])c(-n2nnnc2C([H])(N2C([H])([H])C([H])([H])C([H])(C(=O)N([H])[H])C([H])([H])C2([H])[H])C2([H])C([H])([H])C([H])([H])C([H])([H])C2([H])[H])c([H])c2c1OC([H])([H])O2

$$$$
10:0:2
     RDKit          3D

 55 59  0  0  1  0  0  0  0  0999 V2000
   -3.7832    3.3486    2.4970 N   0  0  0  0  0  0  0  0  0  0  0  0
   -2.6195    3.5807    3.0980 C   0  0  0  0  0  0  0  0  0  0  0  0
   -2.1980    4.7290    3.2581 O   0  0  0  0  0  0  0  0  0  0  0  0
   -1.8393    2.3697    3.6119 C   0  0  0  0  0  0  0  0  0  0  0  0
   -0.9174    2.7641    4.7705 C   0  0  0  0  0  0  0  0  0  0  0  0
   -0.0581    1.5894    5.2218 C   0  0  0  0  0  0  0  0  0  0  0  0
    0.7529    1.0566    4.1192 N   0  0  0  0  0  0  0  0  0  0  0  0
    1.6686   -0.0321    4.5266 C   0  0  2  0  0  0  0  0  0  0  0  0
    0.9554   -1.3038    4.9926 C   0  0  0  0  0  0  0  0  0  0  0  0
    0.0828   -1.3489    6.0159 N   0  0  0  0  0  0  0  0  0  0  0  0
   -0.3859   -2.6623    6.0265 N   0  0  0  0  0  0  0  0  0  0  0  0
    0.1994   -3.3702    5.0940 N   0  0  0  0  0  0  0  0  0  0  0  0
    1.0371   -2.5291    4.4340 N   0  0  0  0  0  0  0  0  0  0  0  0
    1.8772   -2.9515    3.3738 C   0  0  0  0  0  0  0  0  0  0  0  0
    2.4331   -4.2625    3.4197 C   0  0  0  0  0  0  0  0  0  0  0  0
    3.2781   -4.7393    2.3957 C   0  0  0  0  0  0  0  0  0  0  0  0
    3.5598   -3.8739    1.3224 C   0  0  0  0  0  0  0  0  0  0  0  0
    3.0197   -2.6086    1.2703 C   0  0  0  0  0  0  0  0  0  0  0  0
    2.1551   -2.1275    2.2634 C   0  0  0  0  0  0  0  0  0  0  0  0
    3.4255   -1.9810    0.1419 O   0  0  0  0  0  0  0  0  0  0  0  0
    4.1173   -2.9437   -0.5986 C   0  0  0  0  0  0  0  0  0  0  0  0
    4.3055   -4.0838    0.2083 O   0  0  0  0  0  0  0  0  0  0  0  0
    2.8498    0.3995    5.4485 C   0  0  0  0  0  0  0  0  0  0  0  0
    2.6349    0.5431    6.9670 C   0  0  0  0  0  0  0  0  0  0  0  0
    3.9163    1.2527    7.4375 C   0  0  0  0  0  0  0  0  0  0  0  0
    4.4030    2.1129    6.2542 C   0  0  0  0  0  0  0  0  0  0  0  0
    3.6029    1.6709    5.0215 C   0  0  0  0  0  0  0  0  0  0  0  0
   -0.1103    0.6263    3.0068 C   0  0  0  0  0  0  0  0  0  0  0  0
   -0.9927    1.7608    2.4895 C   0  0  0  0  0  0  0  0  0  0  0  0
   -4.3241    4.1201    2.1352 H   0  0  0  0  0  0  0  0  0  0  0  0
   -4.0982    2.3880    2.3892 H   0  0  0  0  0  0  0  0  0  0  0  0
   -2.5457    1.6156    3.9675 H   0  0  0  0  0  0  0  0  0  0  0  0
   -0.2652    3.5952    4.4953 H   0  0  0  0  0  0  0  0  0  0  0  0
   -1.5217    3.0795    5.6219 H   0  0  0  0  0  0  0  0  0  0  0  0
    0.5851    1.9759    6.0074 H   0  0  0  0  0  0  0  0  0  0  0  0
   -0.7377    0.8305    5.6172 H   0  0  0  0  0  0  0  0  0  0  0  0
    2.2091   -0.2446    3.6258 H   0  0  0  0  0  0  0  0  0  0  0  0
    2.1898   -4.9154    4.2482 H   0  0  0  0  0  0  0  0  0  0  0  0
    3.6697   -5.7512    2.4125 H   0  0  0  0  0  0  0  0  0  0  0  0
    1.7351   -1.1527    2.1091 H   0  0  0  0  0  0  0  0  0  0  0  0
    3.4814   -3.2010   -1.4462 H   0  0  0  0  0  0  0  0  0  0  0  0
    5.0661   -2.5316   -0.9465 H   0  0  0  0  0  0  0  0  0  0  0  0
    3.5778   -0.4073    5.3560 H   0  0  0  0  0  0  0  0  0  0  0  0
    1.7859    1.1792    7.2170 H   0  0  0  0  0  0  0  0  0  0  0  0
    2.5096   -0.4275    7.4546 H   0  0  0  0  0  0  0  0  0  0  0  0
    3.7263    1.8603    8.3256 H   0  0  0  0  0  0  0  0  0  0  0  0
    4.6811    0.5139    7.6902 H   0  0  0  0  0  0  0  0  0  0  0  0
    4.2352    3.1766    6.4351 H   0  0  0  0  0  0  0  0  0  0  0  0
    5.4727    1.9720    6.0960 H   0  0  0  0  0  0  0  0  0  0  0  0
    4.2438    1.4906    4.1554 H   0  0  0  0  0  0  0  0  0  0  0  0
    2.9067    2.4626    4.7383 H   0  0  0  0  0  0  0  0  0  0  0  0
    0.4773    0.3150    2.1465 H   0  0  0  0  0  0  0  0  0  0  0  0
   -0.7355   -0.2130    3.3132 H   0  0  0  0  0  0  0  0  0  0  0  0
   -1.6266    1.3666    1.6877 H   0  0  0  0  0  0  0  0  0  0  0  0
   -0.3557    2.5276    2.0437 H   0  0  0  0  0  0  0  0  0  0  0  0
  1  2  1  0
  1 30  1  0
  1 31  1  0
  2  3  2  0
  2  4  1  0
  4 29  1  0
  4  5  1  0
  4 32  1  0
  5  6  1  0
  5 33  1  0
  5 34  1  0
  6  7  1  0
  6 35  1  0
  6 36  1  0
  7  8  1  0
  7 28  1  0
  8  9  1  0
  8 23  1  0
  8 37  1  6
  9 13  1  0
  9 10  2  0
 10 11  1  0
 11 12  2  0
 12 13  1  0
 13 14  1  0
 14 19  1  0
 14 15  2  0
 15 16  1  0
 15 38  1  0
 16 17  2  0
 16 39  1  0
 17 22  1  0
 17 18  1  0
 18 19  2  0
 18 20  1  0
 19 40  1  0
 20 21  1  0
 21 22  1  0
 21 41  1  0
 21 42  1  0
 23 27  1  0
 23 24  1  0
 23 43  1  0
 24 25  1  0
 24 44  1  0
 24 45  1  0
 25 26  1  0
 25 46  1  0
 25 47  1  0
 26 27  1  0
 26 48  1  0
 26 49  1  0
 27 50  1  0
 27 51  1  0
 28 29  1  0
 28 52  1  0
 28 53  1  0
 29 54  1  0
 29 55  1  0
M  END
>  <i_m_ct_stereo_status>  (29) 
1

>  <s_m_source_file>  (29) 
/var/tmp/pbs.5076255.sched01/tmpyb5u0fxv/0ob_ovo1_.sdf

>  <i_m_source_file_index>  (29) 
16

>  <i_lp_mmshare_version>  (29) 
48012

>  <i_f3d_flags>  (29) 
0

>  <s_epik_input>  (29) 
W05IMl1DKD1PKVtDSF0xW0NIMl1bQ0gyXU4oW0NIMl1bQ0gyXTEpW0NAQEhdKFtDSF0yW0NIMl1bQ0gyXVtDSDJdW0NIMl0yKWMzbm5ubjMtYyhbY0hdW2NIXTQpW2NIXWMoYzQ1KU9bQ0gyXU81

>  <s_epik_cmdline>  (29) 
J2VwaWtfcHl0aG9uJywgJy1waHQnLCAnMi4wJywgJy1waCcsICc3LjAnLCAnLXRuJywgJzgnLCAnLW1hJywgJzIwMCcsICctaW1hZScsICc8aW5maWxlLm1hZT4nLCAnLW9tYWUnLCAnPG91dGZpbGUubWFlPic=

>  <r_lp_tautomer_probability>  (29) 
1

>  <r_epik_Ionization_Penalty>  (29) 
0.142423

>  <r_epik_Ionization_Penalty_Charging>  (29) 
0

>  <r_epik_Ionization_Penalty_Neutral>  (29) 
0.142423

>  <r_epik_State_Penalty>  (29) 
0.131732

>  <r_epik_Charging_Adjusted_Penalty>  (29) 
0.131732

>  <i_epik_Tot_Q>  (29) 
0

>  <i_epik_Tot_abs_Q>  (29) 
0

>  <s_epik_Chemistry_Notes>  (29) 
This compound contains an acetal/aminal-like group ( X-CH(R)-Y where X, Y are N, S, or O) that may be acid/base labile, releasing an aldehyde.

>  <s_lp_Force_Field>  (29) 
OPLS3e

>  <r_lp_Energy>  (29) 
49.6334

>  <b_lp_Chiralities_Consistent>  (29) 
1

>  <s_lp_Variant>  (29) 
10:0-1

>  <s_i_glide_gridfile>  (29) 
pfpi4k_grid

>  <i_i_glide_lignum>  (29) 
16

>  <i_i_glide_rotatable_bonds>  (29) 
5

>  <r_i_docking_score>  (29) 
-3.19047

>  <r_i_glide_ligand_efficiency>  (29) 
-0.110016

>  <r_i_glide_ligand_efficiency_sa>  (29) 
-0.338005

>  <r_i_glide_ligand_efficiency_ln>  (29) 
-0.730537

>  <r_i_glide_gscore>  (29) 
-3.19047

>  <r_i_glide_lipo>  (29) 
-0.0246129

>  <r_i_glide_hbond>  (29) 
-0.393548

>  <r_i_glide_metal>  (29) 
-0

>  <r_i_glide_rewards>  (29) 
-0.705614

>  <r_i_glide_evdw>  (29) 
-26.425

>  <r_i_glide_ecoul>  (29) 
-7.48587

>  <r_i_glide_erotb>  (29) 
0.493416

>  <r_i_glide_esite>  (29) 
-0.115978

>  <r_i_glide_emodel>  (29) 
-39.3663

>  <r_i_glide_energy>  (29) 
-33.9109

>  <r_i_glide_einternal>  (29) 
4.44268

>  <r_i_glide_intrahb_reward>  (29) 
-0

>  <i_i_glide_confnum>  (29) 
4

>  <i_i_glide_posenum>  (29) 
28

>  <r_i_glide_eff_state_penalty>  (29) 
0

>  <ligand_id>  (29) 
10

>  <original_smiles>  (29) 
NC(=O)C1CCN(C(c2nnnn2-c2ccc3c(c2)OCO3)C2CCCC2)CC1

>  <smiles>  (29) 
[H]c1c([H])c(-n2nnnc2C([H])(N2C([H])([H])C([H])([H])C([H])(C(=O)N([H])[H])C([H])([H])C2([H])[H])C2([H])C([H])([H])C([H])([H])C([H])([H])C2([H])[H])c([H])c2c1OC([H])([H])O2

$$$$
10:1:0
     RDKit          3D

 56 60  0  0  1  0  0  0  0  0999 V2000
   -1.7960   -9.1215    2.7926 N   0  0  0  0  0  0  0  0  0  0  0  0
   -1.1723   -8.0197    3.1705 C   0  0  0  0  0  0  0  0  0  0  0  0
   -1.0464   -7.0532    2.4198 O   0  0  0  0  0  0  0  0  0  0  0  0
   -0.5946   -8.0191    4.5995 C   0  0  2  0  0  0  0  0  0  0  0  0
    0.0397   -6.6631    4.9844 C   0  0  0  0  0  0  0  0  0  0  0  0
    1.3502   -6.3982    4.2204 C   0  0  0  0  0  0  0  0  0  0  0  0
    2.3105   -7.5178    4.3932 N   0  0  2  0  0  0  0  0  0  0  0  0
    3.7083   -7.1422    4.0109 C   0  0  2  0  0  0  0  0  0  0  0  0
    4.0638   -7.6770    2.6208 C   0  0  0  0  0  0  0  0  0  0  0  0
    4.1520   -8.9756    2.3242 N   0  0  0  0  0  0  0  0  0  0  0  0
    4.4856   -9.0177    0.9829 N   0  0  0  0  0  0  0  0  0  0  0  0
    4.6198   -7.8268    0.4995 N   0  0  0  0  0  0  0  0  0  0  0  0
    4.3810   -6.9680    1.5274 N   0  0  0  0  0  0  0  0  0  0  0  0
    4.4939   -5.5524    1.3976 C   0  0  0  0  0  0  0  0  0  0  0  0
    4.1420   -4.9475    0.1445 C   0  0  0  0  0  0  0  0  0  0  0  0
    4.2468   -3.5522   -0.0542 C   0  0  0  0  0  0  0  0  0  0  0  0
    4.6789   -2.7694    1.0264 C   0  0  0  0  0  0  0  0  0  0  0  0
    5.0385   -3.3404    2.2288 C   0  0  0  0  0  0  0  0  0  0  0  0
    5.0173   -4.7340    2.4218 C   0  0  0  0  0  0  0  0  0  0  0  0
    5.3861   -2.3763    3.1110 O   0  0  0  0  0  0  0  0  0  0  0  0
    5.1360   -1.1618    2.4579 C   0  0  0  0  0  0  0  0  0  0  0  0
    4.8192   -1.4216    1.1122 O   0  0  0  0  0  0  0  0  0  0  0  0
    4.7333   -7.4704    5.1183 C   0  0  0  0  0  0  0  0  0  0  0  0
    4.7789   -8.9516    5.5472 C   0  0  0  0  0  0  0  0  0  0  0  0
    5.1510   -8.9890    7.0295 C   0  0  0  0  0  0  0  0  0  0  0  0
    5.1159   -7.5423    7.5317 C   0  0  0  0  0  0  0  0  0  0  0  0
    4.4868   -6.6910    6.4200 C   0  0  0  0  0  0  0  0  0  0  0  0
    1.7269   -8.8266    3.9666 C   0  0  0  0  0  0  0  0  0  0  0  0
    0.4662   -9.1280    4.7895 C   0  0  0  0  0  0  0  0  0  0  0  0
   -2.1441   -9.1967    1.8470 H   0  0  0  0  0  0  0  0  0  0  0  0
   -1.8802   -9.8947    3.4470 H   0  0  0  0  0  0  0  0  0  0  0  0
   -1.4250   -8.2275    5.2758 H   0  0  0  0  0  0  0  0  0  0  0  0
   -0.6612   -5.8487    4.7980 H   0  0  0  0  0  0  0  0  0  0  0  0
    0.2228   -6.6439    6.0655 H   0  0  0  0  0  0  0  0  0  0  0  0
    1.1994   -6.2672    3.1506 H   0  0  0  0  0  0  0  0  0  0  0  0
    1.7536   -5.4579    4.5961 H   0  0  0  0  0  0  0  0  0  0  0  0
    3.6858   -6.0631    3.9683 H   0  0  0  0  0  0  0  0  0  0  0  0
    3.8097   -5.5629   -0.6745 H   0  0  0  0  0  0  0  0  0  0  0  0
    3.9900   -3.1034   -1.0074 H   0  0  0  0  0  0  0  0  0  0  0  0
    5.3900   -5.1111    3.3691 H   0  0  0  0  0  0  0  0  0  0  0  0
    4.2633   -0.7055    2.9264 H   0  0  0  0  0  0  0  0  0  0  0  0
    6.0011   -0.5038    2.5572 H   0  0  0  0  0  0  0  0  0  0  0  0
    5.7308   -7.1799    4.7790 H   0  0  0  0  0  0  0  0  0  0  0  0
    3.8035   -9.4037    5.5304 H   0  0  0  0  0  0  0  0  0  0  0  0
    5.4446   -9.5541    4.9149 H   0  0  0  0  0  0  0  0  0  0  0  0
    4.3986   -9.5898    7.5366 H   0  0  0  0  0  0  0  0  0  0  0  0
    6.1203   -9.4590    7.1992 H   0  0  0  0  0  0  0  0  0  0  0  0
    4.5543   -7.4428    8.4648 H   0  0  0  0  0  0  0  0  0  0  0  0
    6.1367   -7.2076    7.7101 H   0  0  0  0  0  0  0  0  0  0  0  0
    4.8894   -5.6719    6.3952 H   0  0  0  0  0  0  0  0  0  0  0  0
    3.4196   -6.6000    6.6211 H   0  0  0  0  0  0  0  0  0  0  0  0
    1.4863   -8.7860    2.8966 H   0  0  0  0  0  0  0  0  0  0  0  0
    2.3845   -9.6750    4.1316 H   0  0  0  0  0  0  0  0  0  0  0  0
    0.7115   -9.2244    5.8549 H   0  0  0  0  0  0  0  0  0  0  0  0
    0.0757  -10.1093    4.5105 H   0  0  0  0  0  0  0  0  0  0  0  0
    2.4007   -7.6061    5.3998 H   0  0  0  0  0  0  0  0  0  0  0  0
  1  2  1  0
  1 30  1  0
  1 31  1  0
  2  3  2  0
  2  4  1  0
  4 29  1  0
  4  5  1  0
  4 32  1  1
  5  6  1  0
  5 33  1  0
  5 34  1  0
  6  7  1  0
  6 35  1  0
  6 36  1  0
  7  8  1  0
  7 28  1  0
  7 56  1  1
  8  9  1  0
  8 23  1  0
  8 37  1  6
  9 13  1  0
  9 10  2  0
 10 11  1  0
 11 12  2  0
 12 13  1  0
 13 14  1  0
 14 19  1  0
 14 15  2  0
 15 16  1  0
 15 38  1  0
 16 17  2  0
 16 39  1  0
 17 22  1  0
 17 18  1  0
 18 19  2  0
 18 20  1  0
 19 40  1  0
 20 21  1  0
 21 22  1  0
 21 41  1  0
 21 42  1  0
 23 27  1  0
 23 24  1  0
 23 43  1  0
 24 25  1  0
 24 44  1  0
 24 45  1  0
 25 26  1  0
 25 46  1  0
 25 47  1  0
 26 27  1  0
 26 48  1  0
 26 49  1  0
 27 50  1  0
 27 51  1  0
 28 29  1  0
 28 52  1  0
 28 53  1  0
 29 54  1  0
 29 55  1  0
M  CHG  1   7   1
M  END
>  <i_m_ct_stereo_status>  (30) 
1

>  <s_m_source_file>  (30) 
/var/tmp/pbs.5076255.sched01/tmpyb5u0fxv/0ob_ovo1_.sdf

>  <i_m_source_file_index>  (30) 
17

>  <i_lp_mmshare_version>  (30) 
48012

>  <i_f3d_flags>  (30) 
0

>  <s_epik_input>  (30) 
W05IMl1DKD1PKVtDSF0xW0NIMl1bQ0gyXU4oW0NIMl1bQ0gyXTEpW0NAQEhdKFtDSF0yW0NIMl1bQ0gyXVtDSDJdW0NIMl0yKWMzbm5ubjMtYyhbY0hdW2NIXTQpW2NIXWMoYzQ1KU9bQ0gyXU81

>  <s_epik_cmdline>  (30) 
J2VwaWtfcHl0aG9uJywgJy1waHQnLCAnMi4wJywgJy1waCcsICc3LjAnLCAnLXRuJywgJzgnLCAnLW1hJywgJzIwMCcsICctaW1hZScsICc8aW5maWxlLm1hZT4nLCAnLW9tYWUnLCAnPG91dGZpbGUubWFlPic=

>  <r_lp_tautomer_probability>  (30) 
1

>  <r_epik_Ionization_Penalty>  (30) 
0.91439

>  <r_epik_Ionization_Penalty_Charging>  (30) 
0.91439

>  <r_epik_Ionization_Penalty_Neutral>  (30) 
4.28993e-08

>  <r_epik_State_Penalty>  (30) 
0.955483

>  <r_epik_Charging_Adjusted_Penalty>  (30) 
1.86987

>  <i_epik_Tot_Q>  (30) 
1

>  <i_epik_Tot_abs_Q>  (30) 
1

>  <s_epik_Chemistry_Notes>  (30) 
This compound contains an acetal/aminal-like group ( X-CH(R)-Y where X, Y are N, S, or O) that may be acid/base labile, releasing an aldehyde.

>  <s_lp_Force_Field>  (30) 
OPLS3e

>  <r_lp_Energy>  (30) 
53.0092

>  <b_lp_Chiralities_Consistent>  (30) 
1

>  <s_lp_Variant>  (30) 
10:0-2

>  <s_i_glide_gridfile>  (30) 
pfpi4k_grid

>  <i_i_glide_lignum>  (30) 
17

>  <i_i_glide_rotatable_bonds>  (30) 
5

>  <r_i_docking_score>  (30) 
-3.43834

>  <r_i_glide_ligand_efficiency>  (30) 
-0.118563

>  <r_i_glide_ligand_efficiency_sa>  (30) 
-0.364264

>  <r_i_glide_ligand_efficiency_ln>  (30) 
-0.787292

>  <r_i_glide_gscore>  (30) 
-3.43834

>  <r_i_glide_lipo>  (30) 
-0.142616

>  <r_i_glide_hbond>  (30) 
-0.31586

>  <r_i_glide_metal>  (30) 
-0

>  <r_i_glide_rewards>  (30) 
-0.930536

>  <r_i_glide_evdw>  (30) 
-27.5305

>  <r_i_glide_ecoul>  (30) 
-6.81738

>  <r_i_glide_erotb>  (30) 
0.491178

>  <r_i_glide_esite>  (30) 
-0.141366

>  <r_i_glide_emodel>  (30) 
-39.5014

>  <r_i_glide_energy>  (30) 
-34.3479

>  <r_i_glide_einternal>  (30) 
5.92698

>  <r_i_glide_intrahb_reward>  (30) 
-0

>  <i_i_glide_confnum>  (30) 
3

>  <i_i_glide_posenum>  (30) 
23

>  <r_i_glide_eff_state_penalty>  (30) 
0

>  <ligand_id>  (30) 
10

>  <original_smiles>  (30) 
NC(=O)C1CCN(C(c2nnnn2-c2ccc3c(c2)OCO3)C2CCCC2)CC1

>  <smiles>  (30) 
[H]c1c([H])c(-n2nnnc2C([H])(C2([H])C([H])([H])C([H])([H])C([H])([H])C2([H])[H])[N+]2([H])C([H])([H])C([H])([H])C([H])(C(=O)N([H])[H])C([H])([H])C2([H])[H])c([H])c2c1OC([H])([H])O2

$$$$
10:1:1
     RDKit          3D

 56 60  0  0  1  0  0  0  0  0999 V2000
    3.0537  -12.2526    2.8737 N   0  0  0  0  0  0  0  0  0  0  0  0
    2.8447  -10.9993    3.2289 C   0  0  0  0  0  0  0  0  0  0  0  0
    3.6104  -10.1121    2.8782 O   0  0  0  0  0  0  0  0  0  0  0  0
    1.5818  -10.7152    4.0786 C   0  0  2  0  0  0  0  0  0  0  0  0
    0.5959   -9.7710    3.3599 C   0  0  0  0  0  0  0  0  0  0  0  0
    1.1302   -8.3276    3.2702 C   0  0  0  0  0  0  0  0  0  0  0  0
    1.4966   -7.7959    4.6176 N   0  0  2  0  0  0  0  0  0  0  0  0
    1.7418   -6.3049    4.5829 C   0  0  2  0  0  0  0  0  0  0  0  0
    3.0804   -5.9140    5.2186 C   0  0  0  0  0  0  0  0  0  0  0  0
    3.3727   -6.0107    6.5172 N   0  0  0  0  0  0  0  0  0  0  0  0
    4.6456   -5.4854    6.6512 N   0  0  0  0  0  0  0  0  0  0  0  0
    5.1115   -5.1003    5.5021 N   0  0  0  0  0  0  0  0  0  0  0  0
    4.1363   -5.3408    4.5977 N   0  0  0  0  0  0  0  0  0  0  0  0
    4.2469   -4.9946    3.2314 C   0  0  0  0  0  0  0  0  0  0  0  0
    5.4649   -5.2864    2.5717 C   0  0  0  0  0  0  0  0  0  0  0  0
    5.6651   -4.9259    1.2232 C   0  0  0  0  0  0  0  0  0  0  0  0
    4.6119   -4.2861    0.5554 C   0  0  0  0  0  0  0  0  0  0  0  0
    3.4275   -3.9913    1.1965 C   0  0  0  0  0  0  0  0  0  0  0  0
    3.2163   -4.3010    2.5429 C   0  0  0  0  0  0  0  0  0  0  0  0
    2.5783   -3.3940    0.3237 O   0  0  0  0  0  0  0  0  0  0  0  0
    3.2197   -3.4372   -0.9207 C   0  0  0  0  0  0  0  0  0  0  0  0
    4.5413   -3.8779   -0.7325 O   0  0  0  0  0  0  0  0  0  0  0  0
    0.5329   -5.5213    5.1631 C   0  0  0  0  0  0  0  0  0  0  0  0
    0.7332   -3.9921    5.2126 C   0  0  0  0  0  0  0  0  0  0  0  0
   -0.0750   -3.4723    6.4018 C   0  0  0  0  0  0  0  0  0  0  0  0
   -0.5833   -4.6970    7.1725 C   0  0  0  0  0  0  0  0  0  0  0  0
    0.1410   -5.9109    6.5970 C   0  0  0  0  0  0  0  0  0  0  0  0
    2.4851   -8.6719    5.3121 C   0  0  0  0  0  0  0  0  0  0  0  0
    1.9511  -10.1061    5.4360 C   0  0  0  0  0  0  0  0  0  0  0  0
    3.8082  -12.4478    2.2420 H   0  0  0  0  0  0  0  0  0  0  0  0
    2.4191  -12.9945    3.1523 H   0  0  0  0  0  0  0  0  0  0  0  0
    1.0690  -11.6588    4.2627 H   0  0  0  0  0  0  0  0  0  0  0  0
    0.3799  -10.1433    2.3581 H   0  0  0  0  0  0  0  0  0  0  0  0
   -0.3586   -9.7803    3.8890 H   0  0  0  0  0  0  0  0  0  0  0  0
    2.0059   -8.2668    2.6205 H   0  0  0  0  0  0  0  0  0  0  0  0
    0.3656   -7.6997    2.8046 H   0  0  0  0  0  0  0  0  0  0  0  0
    1.7730   -6.0596    3.5235 H   0  0  0  0  0  0  0  0  0  0  0  0
    6.2586   -5.7750    3.1216 H   0  0  0  0  0  0  0  0  0  0  0  0
    6.5938   -5.1489    0.7235 H   0  0  0  0  0  0  0  0  0  0  0  0
    2.2831   -4.0086    3.0015 H   0  0  0  0  0  0  0  0  0  0  0  0
    2.7009   -4.1763   -1.5299 H   0  0  0  0  0  0  0  0  0  0  0  0
    3.1778   -2.4626   -1.4135 H   0  0  0  0  0  0  0  0  0  0  0  0
   -0.3488   -5.7118    4.5490 H   0  0  0  0  0  0  0  0  0  0  0  0
    1.7740   -3.7250    5.3971 H   0  0  0  0  0  0  0  0  0  0  0  0
    0.4486   -3.5064    4.2765 H   0  0  0  0  0  0  0  0  0  0  0  0
    0.5715   -2.8495    7.0232 H   0  0  0  0  0  0  0  0  0  0  0  0
   -0.9055   -2.8531    6.0665 H   0  0  0  0  0  0  0  0  0  0  0  0
   -0.3994   -4.6051    8.2445 H   0  0  0  0  0  0  0  0  0  0  0  0
   -1.6548   -4.8094    7.0185 H   0  0  0  0  0  0  0  0  0  0  0  0
   -0.4599   -6.8209    6.6383 H   0  0  0  0  0  0  0  0  0  0  0  0
    1.0078   -6.0934    7.2225 H   0  0  0  0  0  0  0  0  0  0  0  0
    3.4456   -8.6101    4.7951 H   0  0  0  0  0  0  0  0  0  0  0  0
    2.6368   -8.3594    6.3423 H   0  0  0  0  0  0  0  0  0  0  0  0
    1.0743  -10.1107    6.0854 H   0  0  0  0  0  0  0  0  0  0  0  0
    2.6908  -10.7245    5.9459 H   0  0  0  0  0  0  0  0  0  0  0  0
    0.6618   -7.8939    5.1748 H   0  0  0  0  0  0  0  0  0  0  0  0
  1  2  1  0
  1 30  1  0
  1 31  1  0
  2  3  2  0
  2  4  1  0
  4 29  1  0
  4  5  1  0
  4 32  1  1
  5  6  1  0
  5 33  1  0
  5 34  1  0
  6  7  1  0
  6 35  1  0
  6 36  1  0
  7  8  1  0
  7 28  1  0
  7 56  1  1
  8  9  1  0
  8 23  1  0
  8 37  1  6
  9 13  1  0
  9 10  2  0
 10 11  1  0
 11 12  2  0
 12 13  1  0
 13 14  1  0
 14 19  1  0
 14 15  2  0
 15 16  1  0
 15 38  1  0
 16 17  2  0
 16 39  1  0
 17 22  1  0
 17 18  1  0
 18 19  2  0
 18 20  1  0
 19 40  1  0
 20 21  1  0
 21 22  1  0
 21 41  1  0
 21 42  1  0
 23 27  1  0
 23 24  1  0
 23 43  1  0
 24 25  1  0
 24 44  1  0
 24 45  1  0
 25 26  1  0
 25 46  1  0
 25 47  1  0
 26 27  1  0
 26 48  1  0
 26 49  1  0
 27 50  1  0
 27 51  1  0
 28 29  1  0
 28 52  1  0
 28 53  1  0
 29 54  1  0
 29 55  1  0
M  CHG  1   7   1
M  END
>  <i_m_ct_stereo_status>  (31) 
1

>  <s_m_source_file>  (31) 
/var/tmp/pbs.5076255.sched01/tmpyb5u0fxv/0ob_ovo1_.sdf

>  <i_m_source_file_index>  (31) 
17

>  <i_lp_mmshare_version>  (31) 
48012

>  <i_f3d_flags>  (31) 
0

>  <s_epik_input>  (31) 
W05IMl1DKD1PKVtDSF0xW0NIMl1bQ0gyXU4oW0NIMl1bQ0gyXTEpW0NAQEhdKFtDSF0yW0NIMl1bQ0gyXVtDSDJdW0NIMl0yKWMzbm5ubjMtYyhbY0hdW2NIXTQpW2NIXWMoYzQ1KU9bQ0gyXU81

>  <s_epik_cmdline>  (31) 
J2VwaWtfcHl0aG9uJywgJy1waHQnLCAnMi4wJywgJy1waCcsICc3LjAnLCAnLXRuJywgJzgnLCAnLW1hJywgJzIwMCcsICctaW1hZScsICc8aW5maWxlLm1hZT4nLCAnLW9tYWUnLCAnPG91dGZpbGUubWFlPic=

>  <r_lp_tautomer_probability>  (31) 
1

>  <r_epik_Ionization_Penalty>  (31) 
0.91439

>  <r_epik_Ionization_Penalty_Charging>  (31) 
0.91439

>  <r_epik_Ionization_Penalty_Neutral>  (31) 
4.28993e-08

>  <r_epik_State_Penalty>  (31) 
0.955483

>  <r_epik_Charging_Adjusted_Penalty>  (31) 
1.86987

>  <i_epik_Tot_Q>  (31) 
1

>  <i_epik_Tot_abs_Q>  (31) 
1

>  <s_epik_Chemistry_Notes>  (31) 
This compound contains an acetal/aminal-like group ( X-CH(R)-Y where X, Y are N, S, or O) that may be acid/base labile, releasing an aldehyde.

>  <s_lp_Force_Field>  (31) 
OPLS3e

>  <r_lp_Energy>  (31) 
53.0092

>  <b_lp_Chiralities_Consistent>  (31) 
1

>  <s_lp_Variant>  (31) 
10:0-2

>  <s_i_glide_gridfile>  (31) 
pfpi4k_grid

>  <i_i_glide_lignum>  (31) 
17

>  <i_i_glide_rotatable_bonds>  (31) 
5

>  <r_i_docking_score>  (31) 
-3.39899

>  <r_i_glide_ligand_efficiency>  (31) 
-0.117207

>  <r_i_glide_ligand_efficiency_sa>  (31) 
-0.360096

>  <r_i_glide_ligand_efficiency_ln>  (31) 
-0.778283

>  <r_i_glide_gscore>  (31) 
-3.39899

>  <r_i_glide_lipo>  (31) 
-0.128014

>  <r_i_glide_hbond>  (31) 
-0.412942

>  <r_i_glide_metal>  (31) 
-0

>  <r_i_glide_rewards>  (31) 
-0.780583

>  <r_i_glide_evdw>  (31) 
-21.465

>  <r_i_glide_ecoul>  (31) 
-9.29532

>  <r_i_glide_erotb>  (31) 
0.491178

>  <r_i_glide_esite>  (31) 
-0.10108

>  <r_i_glide_emodel>  (31) 
-35.6765

>  <r_i_glide_energy>  (31) 
-30.7604

>  <r_i_glide_einternal>  (31) 
7.12395

>  <r_i_glide_intrahb_reward>  (31) 
-0

>  <i_i_glide_confnum>  (31) 
2

>  <i_i_glide_posenum>  (31) 
12

>  <r_i_glide_eff_state_penalty>  (31) 
0

>  <ligand_id>  (31) 
10

>  <original_smiles>  (31) 
NC(=O)C1CCN(C(c2nnnn2-c2ccc3c(c2)OCO3)C2CCCC2)CC1

>  <smiles>  (31) 
[H]c1c([H])c(-n2nnnc2C([H])(C2([H])C([H])([H])C([H])([H])C([H])([H])C2([H])[H])[N+]2([H])C([H])([H])C([H])([H])C([H])(C(=O)N([H])[H])C([H])([H])C2([H])[H])c([H])c2c1OC([H])([H])O2

$$$$
10:1:2
     RDKit          3D

 56 60  0  0  1  0  0  0  0  0999 V2000
   -1.8753    2.1874    2.4802 N   0  0  0  0  0  0  0  0  0  0  0  0
   -0.9601    1.4217    3.0362 C   0  0  0  0  0  0  0  0  0  0  0  0
   -1.2936    0.3986    3.6304 O   0  0  0  0  0  0  0  0  0  0  0  0
    0.5061    1.8951    2.9126 C   0  0  2  0  0  0  0  0  0  0  0  0
    1.3205    1.0262    1.9385 C   0  0  0  0  0  0  0  0  0  0  0  0
    1.5851   -0.3843    2.4869 C   0  0  0  0  0  0  0  0  0  0  0  0
    2.2229   -0.3208    3.8399 N   0  0  2  0  0  0  0  0  0  0  0  0
    2.8383   -1.6309    4.2464 C   0  0  2  0  0  0  0  0  0  0  0  0
    1.8559   -2.4795    5.0594 C   0  0  0  0  0  0  0  0  0  0  0  0
    1.2803   -2.0809    6.1918 N   0  0  0  0  0  0  0  0  0  0  0  0
    0.4611   -3.1221    6.5676 N   0  0  0  0  0  0  0  0  0  0  0  0
    0.5936   -4.1420    5.7663 N   0  0  0  0  0  0  0  0  0  0  0  0
    1.4961   -3.7673    4.8191 N   0  0  0  0  0  0  0  0  0  0  0  0
    1.9565   -4.6433    3.8028 C   0  0  0  0  0  0  0  0  0  0  0  0
    1.0831   -5.6863    3.3497 C   0  0  0  0  0  0  0  0  0  0  0  0
    1.4926   -6.6054    2.3598 C   0  0  0  0  0  0  0  0  0  0  0  0
    2.7781   -6.4459    1.8219 C   0  0  0  0  0  0  0  0  0  0  0  0
    3.6237   -5.4562    2.2473 C   0  0  0  0  0  0  0  0  0  0  0  0
    3.2751   -4.5827    3.2661 C   0  0  0  0  0  0  0  0  0  0  0  0
    4.7852   -5.4910    1.5435 O   0  0  0  0  0  0  0  0  0  0  0  0
    4.5912   -6.4776    0.5739 C   0  0  0  0  0  0  0  0  0  0  0  0
    3.4088   -7.1747    0.8773 O   0  0  0  0  0  0  0  0  0  0  0  0
    4.2563   -1.4760    4.8738 C   0  0  0  0  0  0  0  0  0  0  0  0
    4.2982   -0.6869    6.1877 C   0  0  0  0  0  0  0  0  0  0  0  0
    5.5861    0.0978    6.2087 C   0  0  0  0  0  0  0  0  0  0  0  0
    5.8628    0.3917    4.7235 C   0  0  0  0  0  0  0  0  0  0  0  0
    5.2308   -0.7475    3.9138 C   0  0  0  0  0  0  0  0  0  0  0  0
    1.4148    0.4894    4.8022 C   0  0  0  0  0  0  0  0  0  0  0  0
    1.2177    1.9104    4.2680 C   0  0  0  0  0  0  0  0  0  0  0  0
   -2.8334    1.8616    2.5304 H   0  0  0  0  0  0  0  0  0  0  0  0
   -1.5886    3.0041    1.9591 H   0  0  0  0  0  0  0  0  0  0  0  0
    0.5101    2.9172    2.5364 H   0  0  0  0  0  0  0  0  0  0  0  0
    0.7983    0.9396    0.9857 H   0  0  0  0  0  0  0  0  0  0  0  0
    2.2679    1.5191    1.7052 H   0  0  0  0  0  0  0  0  0  0  0  0
    0.6636   -0.9540    2.5978 H   0  0  0  0  0  0  0  0  0  0  0  0
    2.1977   -0.9214    1.7582 H   0  0  0  0  0  0  0  0  0  0  0  0
    3.0046   -2.0870    3.2693 H   0  0  0  0  0  0  0  0  0  0  0  0
    0.1063   -5.8016    3.8025 H   0  0  0  0  0  0  0  0  0  0  0  0
    0.8444   -7.4051    2.0287 H   0  0  0  0  0  0  0  0  0  0  0  0
    4.0554   -3.9127    3.5975 H   0  0  0  0  0  0  0  0  0  0  0  0
    4.4671   -5.9756   -0.3864 H   0  0  0  0  0  0  0  0  0  0  0  0
    5.4414   -7.1606    0.5301 H   0  0  0  0  0  0  0  0  0  0  0  0
    4.6909   -2.4588    5.0849 H   0  0  0  0  0  0  0  0  0  0  0  0
    3.6309    0.1384    6.1298 H   0  0  0  0  0  0  0  0  0  0  0  0
    4.0498   -1.2655    7.0789 H   0  0  0  0  0  0  0  0  0  0  0  0
    5.4350    1.0342    6.7674 H   0  0  0  0  0  0  0  0  0  0  0  0
    6.3795   -0.4835    6.6739 H   0  0  0  0  0  0  0  0  0  0  0  0
    5.3805    1.3293    4.4329 H   0  0  0  0  0  0  0  0  0  0  0  0
    6.9317    0.4956    4.5324 H   0  0  0  0  0  0  0  0  0  0  0  0
    5.9789   -1.4360    3.5116 H   0  0  0  0  0  0  0  0  0  0  0  0
    4.7430   -0.3393    3.0281 H   0  0  0  0  0  0  0  0  0  0  0  0
    0.4839   -0.0390    4.9587 H   0  0  0  0  0  0  0  0  0  0  0  0
    1.7590    0.6222    5.8154 H   0  0  0  0  0  0  0  0  0  0  0  0
    2.1889    2.4159    4.1878 H   0  0  0  0  0  0  0  0  0  0  0  0
    0.6459    2.4702    5.0061 H   0  0  0  0  0  0  0  0  0  0  0  0
    3.0517    0.2226    3.6679 H   0  0  0  0  0  0  0  0  0  0  0  0
  1  2  1  0
  1 30  1  0
  1 31  1  0
  2  3  2  0
  2  4  1  0
  4 29  1  0
  4  5  1  0
  4 32  1  6
  5  6  1  0
  5 33  1  0
  5 34  1  0
  6  7  1  0
  6 35  1  0
  6 36  1  0
  7  8  1  0
  7 28  1  0
  7 56  1  6
  8  9  1  0
  8 23  1  0
  8 37  1  6
  9 13  1  0
  9 10  2  0
 10 11  1  0
 11 12  2  0
 12 13  1  0
 13 14  1  0
 14 19  1  0
 14 15  2  0
 15 16  1  0
 15 38  1  0
 16 17  2  0
 16 39  1  0
 17 22  1  0
 17 18  1  0
 18 19  2  0
 18 20  1  0
 19 40  1  0
 20 21  1  0
 21 22  1  0
 21 41  1  0
 21 42  1  0
 23 27  1  0
 23 24  1  0
 23 43  1  0
 24 25  1  0
 24 44  1  0
 24 45  1  0
 25 26  1  0
 25 46  1  0
 25 47  1  0
 26 27  1  0
 26 48  1  0
 26 49  1  0
 27 50  1  0
 27 51  1  0
 28 29  1  0
 28 52  1  0
 28 53  1  0
 29 54  1  0
 29 55  1  0
M  CHG  1   7   1
M  END
>  <i_m_ct_stereo_status>  (32) 
1

>  <s_m_source_file>  (32) 
/var/tmp/pbs.5076255.sched01/tmpyb5u0fxv/0ob_ovo1_.sdf

>  <i_m_source_file_index>  (32) 
17

>  <i_lp_mmshare_version>  (32) 
48012

>  <i_f3d_flags>  (32) 
0

>  <s_epik_input>  (32) 
W05IMl1DKD1PKVtDSF0xW0NIMl1bQ0gyXU4oW0NIMl1bQ0gyXTEpW0NAQEhdKFtDSF0yW0NIMl1bQ0gyXVtDSDJdW0NIMl0yKWMzbm5ubjMtYyhbY0hdW2NIXTQpW2NIXWMoYzQ1KU9bQ0gyXU81

>  <s_epik_cmdline>  (32) 
J2VwaWtfcHl0aG9uJywgJy1waHQnLCAnMi4wJywgJy1waCcsICc3LjAnLCAnLXRuJywgJzgnLCAnLW1hJywgJzIwMCcsICctaW1hZScsICc8aW5maWxlLm1hZT4nLCAnLW9tYWUnLCAnPG91dGZpbGUubWFlPic=

>  <r_lp_tautomer_probability>  (32) 
1

>  <r_epik_Ionization_Penalty>  (32) 
0.91439

>  <r_epik_Ionization_Penalty_Charging>  (32) 
0.91439

>  <r_epik_Ionization_Penalty_Neutral>  (32) 
4.28993e-08

>  <r_epik_State_Penalty>  (32) 
0.955483

>  <r_epik_Charging_Adjusted_Penalty>  (32) 
1.86987

>  <i_epik_Tot_Q>  (32) 
1

>  <i_epik_Tot_abs_Q>  (32) 
1

>  <s_epik_Chemistry_Notes>  (32) 
This compound contains an acetal/aminal-like group ( X-CH(R)-Y where X, Y are N, S, or O) that may be acid/base labile, releasing an aldehyde.

>  <s_lp_Force_Field>  (32) 
OPLS3e

>  <r_lp_Energy>  (32) 
53.0092

>  <b_lp_Chiralities_Consistent>  (32) 
1

>  <s_lp_Variant>  (32) 
10:0-2

>  <s_i_glide_gridfile>  (32) 
pfpi4k_grid

>  <i_i_glide_lignum>  (32) 
17

>  <i_i_glide_rotatable_bonds>  (32) 
5

>  <r_i_docking_score>  (32) 
-3.10432

>  <r_i_glide_ligand_efficiency>  (32) 
-0.107046

>  <r_i_glide_ligand_efficiency_sa>  (32) 
-0.328878

>  <r_i_glide_ligand_efficiency_ln>  (32) 
-0.710812

>  <r_i_glide_gscore>  (32) 
-3.10432

>  <r_i_glide_lipo>  (32) 
-0.267395

>  <r_i_glide_hbond>  (32) 
-0.288057

>  <r_i_glide_metal>  (32) 
-0

>  <r_i_glide_rewards>  (32) 
-0.879662

>  <r_i_glide_evdw>  (32) 
-23.6798

>  <r_i_glide_ecoul>  (32) 
-6.0223

>  <r_i_glide_erotb>  (32) 
0.491178

>  <r_i_glide_esite>  (32) 
-0.0730539

>  <r_i_glide_emodel>  (32) 
-32.5042

>  <r_i_glide_energy>  (32) 
-29.7021

>  <r_i_glide_einternal>  (32) 
6.05541

>  <r_i_glide_intrahb_reward>  (32) 
-0

>  <i_i_glide_confnum>  (32) 
6

>  <i_i_glide_posenum>  (32) 
25

>  <r_i_glide_eff_state_penalty>  (32) 
0

>  <ligand_id>  (32) 
10

>  <original_smiles>  (32) 
NC(=O)C1CCN(C(c2nnnn2-c2ccc3c(c2)OCO3)C2CCCC2)CC1

>  <smiles>  (32) 
[H]c1c([H])c(-n2nnnc2C([H])(C2([H])C([H])([H])C([H])([H])C([H])([H])C2([H])[H])[N+]2([H])C([H])([H])C([H])([H])C([H])(C(=O)N([H])[H])C([H])([H])C2([H])[H])c([H])c2c1OC([H])([H])O2

$$$$
11:0:0
     RDKit          3D

 77 82  0  0  1  0  0  0  0  0999 V2000
   -1.0672   -9.4621    2.4901 C   0  0  0  0  0  0  0  0  0  0  0  0
    0.3359   -9.3663    2.6401 O   0  0  0  0  0  0  0  0  0  0  0  0
    1.0763  -10.4598    2.9023 C   0  0  0  0  0  0  0  0  0  0  0  0
    0.6197  -11.5876    3.0137 O   0  0  0  0  0  0  0  0  0  0  0  0
    2.5302  -10.1537    3.0626 C   0  0  0  0  0  0  0  0  0  0  0  0
    3.3686  -11.1745    3.3362 C   0  0  0  0  0  0  0  0  0  0  0  0
    4.7946  -11.0281    3.5514 C   0  0  0  0  0  0  0  0  0  0  0  0
    5.5677  -11.9180    2.8863 C   0  0  0  0  0  0  0  0  0  0  0  0
    7.0134  -12.0064    3.0909 C   0  0  0  0  0  0  0  0  0  0  0  0
    7.7089  -12.7506    2.3864 O   0  0  0  0  0  0  0  0  0  0  0  0
    7.6155  -11.2028    4.1584 C   0  0  0  0  0  0  0  0  0  0  0  0
    6.8418  -10.3506    4.8544 C   0  0  0  0  0  0  0  0  0  0  0  0
    5.3474  -10.0871    4.6359 C   0  0  2  0  0  0  0  0  0  0  0  0
    4.6402  -10.4369    5.9704 C   0  0  0  0  0  0  0  0  0  0  0  0
    5.1443   -8.5551    4.2682 C   0  0  2  0  0  0  0  0  0  0  0  0
    5.9150   -7.6114    5.2237 C   0  0  0  0  0  0  0  0  0  0  0  0
    5.3119   -6.2087    5.3292 C   0  0  0  0  0  0  0  0  0  0  0  0
    3.8096   -6.2091    5.6882 C   0  0  2  0  0  0  0  0  0  0  0  0
    3.6767   -6.8481    7.1020 C   0  0  0  0  0  0  0  0  0  0  0  0
    3.0728   -7.0994    4.6961 C   0  0  0  0  0  0  0  0  0  0  0  0
    3.6904   -8.1015    4.0112 C   0  0  0  0  0  0  0  0  0  0  0  0
    3.0522   -8.7458    2.7848 C   0  0  0  0  0  0  0  0  0  0  0  0
    1.6105   -6.7349    4.4482 C   0  0  0  0  0  0  0  0  0  0  0  0
    0.9609   -5.8951    5.5626 C   0  0  0  0  0  0  0  0  0  0  0  0
    1.6858   -4.5484    5.7931 C   0  0  2  0  0  0  0  0  0  0  0  0
    1.3318   -3.6046    4.6027 C   0  0  2  0  0  0  0  0  0  0  0  0
    2.5795   -2.7862    4.3333 C   0  0  0  0  0  0  0  0  0  0  0  0
    3.7289   -3.7577    4.5934 C   0  0  1  0  0  0  0  0  0  0  0  0
    5.0140   -2.9620    4.8961 C   0  0  0  0  0  0  0  0  0  0  0  0
    3.2557   -4.7123    5.7375 C   0  0  2  0  0  0  0  0  0  0  0  0
    0.1693   -2.7914    4.6942 O   0  0  0  0  0  0  0  0  0  0  0  0
   -0.5620   -2.5316    5.7765 C   0  0  0  0  0  0  0  0  0  0  0  0
   -1.5551   -1.8048    5.8077 O   0  0  0  0  0  0  0  0  0  0  0  0
   -0.2036   -3.2764    7.0825 C   0  0  1  0  0  0  0  0  0  0  0  0
   -1.3146   -4.2819    7.4660 C   0  0  0  0  0  0  0  0  0  0  0  0
    1.2530   -3.7985    7.0998 C   0  0  1  0  0  0  0  0  0  0  0  0
    1.5911   -4.4921    8.4410 C   0  0  0  0  0  0  0  0  0  0  0  0
   -1.4848   -8.4793    2.2791 H   0  0  0  0  0  0  0  0  0  0  0  0
   -1.5180   -9.8300    3.4080 H   0  0  0  0  0  0  0  0  0  0  0  0
   -1.3456  -10.1363    1.6804 H   0  0  0  0  0  0  0  0  0  0  0  0
    2.9604  -12.1696    3.4655 H   0  0  0  0  0  0  0  0  0  0  0  0
    5.1416  -12.6079    2.1783 H   0  0  0  0  0  0  0  0  0  0  0  0
    8.6602  -11.3473    4.3687 H   0  0  0  0  0  0  0  0  0  0  0  0
    7.3097   -9.8097    5.6676 H   0  0  0  0  0  0  0  0  0  0  0  0
    4.7246  -11.5099    6.1737 H   0  0  0  0  0  0  0  0  0  0  0  0
    3.5783  -10.2012    5.9595 H   0  0  0  0  0  0  0  0  0  0  0  0
    5.0836   -9.9366    6.8264 H   0  0  0  0  0  0  0  0  0  0  0  0
    5.6300   -8.4201    3.2960 H   0  0  0  0  0  0  0  0  0  0  0  0
    5.9833   -8.0294    6.2265 H   0  0  0  0  0  0  0  0  0  0  0  0
    6.9486   -7.5230    4.8875 H   0  0  0  0  0  0  0  0  0  0  0  0
    5.8753   -5.6377    6.0639 H   0  0  0  0  0  0  0  0  0  0  0  0
    5.4752   -5.7318    4.3633 H   0  0  0  0  0  0  0  0  0  0  0  0
    4.3452   -6.3824    7.8237 H   0  0  0  0  0  0  0  0  0  0  0  0
    3.9245   -7.9121    7.0701 H   0  0  0  0  0  0  0  0  0  0  0  0
    2.6730   -6.8151    7.5087 H   0  0  0  0  0  0  0  0  0  0  0  0
    3.7773   -8.8120    1.9782 H   0  0  0  0  0  0  0  0  0  0  0  0
    2.3015   -8.0820    2.3666 H   0  0  0  0  0  0  0  0  0  0  0  0
    1.5305   -6.2370    3.4839 H   0  0  0  0  0  0  0  0  0  0  0  0
    1.0395   -7.6576    4.3685 H   0  0  0  0  0  0  0  0  0  0  0  0
   -0.0683   -5.7071    5.2579 H   0  0  0  0  0  0  0  0  0  0  0  0
    0.8810   -6.4822    6.4714 H   0  0  0  0  0  0  0  0  0  0  0  0
    1.2034   -4.2224    3.7190 H   0  0  0  0  0  0  0  0  0  0  0  0
    2.5906   -2.3866    3.3179 H   0  0  0  0  0  0  0  0  0  0  0  0
    2.6326   -1.9334    5.0139 H   0  0  0  0  0  0  0  0  0  0  0  0
    3.8607   -4.3372    3.6790 H   0  0  0  0  0  0  0  0  0  0  0  0
    4.9195   -2.3794    5.8141 H   0  0  0  0  0  0  0  0  0  0  0  0
    5.2379   -2.2628    4.0894 H   0  0  0  0  0  0  0  0  0  0  0  0
    5.8887   -3.5997    5.0079 H   0  0  0  0  0  0  0  0  0  0  0  0
    3.6712   -4.2782    6.6411 H   0  0  0  0  0  0  0  0  0  0  0  0
   -0.2295   -2.5052    7.8501 H   0  0  0  0  0  0  0  0  0  0  0  0
   -2.2532   -3.7691    7.6835 H   0  0  0  0  0  0  0  0  0  0  0  0
   -1.0687   -4.8388    8.3674 H   0  0  0  0  0  0  0  0  0  0  0  0
   -1.5439   -4.9990    6.6785 H   0  0  0  0  0  0  0  0  0  0  0  0
    1.8549   -2.8894    7.1214 H   0  0  0  0  0  0  0  0  0  0  0  0
    1.1122   -5.4623    8.5577 H   0  0  0  0  0  0  0  0  0  0  0  0
    1.2663   -3.8670    9.2786 H   0  0  0  0  0  0  0  0  0  0  0  0
    2.6621   -4.6254    8.5696 H   0  0  0  0  0  0  0  0  0  0  0  0
  1  2  1  0
  1 38  1  0
  1 39  1  0
  1 40  1  0
  2  3  1  0
  3  4  2  0
  3  5  1  0
  5 22  1  0
  5  6  2  0
  6  7  1  0
  6 41  1  0
  7 13  1  0
  7  8  2  0
  8  9  1  0
  8 42  1  0
  9 10  2  0
  9 11  1  0
 11 12  2  0
 11 43  1  0
 12 13  1  0
 12 44  1  0
 13 14  1  1
 13 15  1  0
 14 45  1  0
 14 46  1  0
 14 47  1  0
 15 21  1  0
 15 16  1  0
 15 48  1  6
 16 17  1  0
 16 49  1  0
 16 50  1  0
 17 18  1  0
 17 51  1  0
 17 52  1  0
 18 30  1  0
 18 19  1  1
 18 20  1  0
 19 53  1  0
 19 54  1  0
 19 55  1  0
 20 21  2  0
 20 23  1  0
 21 22  1  0
 22 56  1  0
 22 57  1  0
 23 24  1  0
 23 58  1  0
 23 59  1  0
 25 24  1  6
 24 60  1  0
 24 61  1  0
 25 30  1  0
 25 36  1  0
 25 26  1  0
 26 27  1  0
 26 31  1  0
 26 62  1  6
 27 28  1  0
 27 63  1  0
 27 64  1  0
 28 29  1  0
 28 30  1  0
 28 65  1  6
 29 66  1  0
 29 67  1  0
 29 68  1  0
 30 69  1  1
 31 32  1  0
 32 33  2  0
 32 34  1  0
 34 35  1  0
 34 36  1  0
 34 70  1  1
 35 71  1  0
 35 72  1  0
 35 73  1  0
 36 37  1  0
 36 74  1  1
 37 75  1  0
 37 76  1  0
 37 77  1  0
M  END
>  <i_m_ct_stereo_status>  (33) 
1

>  <s_m_source_file>  (33) 
/var/tmp/pbs.5076255.sched01/tmpyb5u0fxv/0ob_ovo1_.sdf

>  <i_m_source_file_index>  (33) 
18

>  <i_lp_mmshare_version>  (33) 
48012

>  <i_f3d_flags>  (33) 
0

>  <s_epik_input>  (33) 
W0NIM11PQyg9TylDKFtDSDJdMSk9W0NIXUMoPVtDSF1DKD1PKVtDSF09W0NIXTIpW0NAXTIoW0NIM10pW0NASF0oW0NIMl1bQ0gyXTMpQzE9QyhbQ0gyXVtDSDJdNClbQ0BdMyhbQ0gzXSlbQ0BIXTVbQ0BIXShbQ0gzXSlbQ0gyXVtDQEBIXShbQ0BAXTQ1NilPQyg9TylbQ0BASF0oW0NIM10pW0NASF02W0NIM10=

>  <s_epik_cmdline>  (33) 
J2VwaWtfcHl0aG9uJywgJy1waHQnLCAnMi4wJywgJy1waCcsICc3LjAnLCAnLXRuJywgJzgnLCAnLW1hJywgJzIwMCcsICctaW1hZScsICc8aW5maWxlLm1hZT4nLCAnLW9tYWUnLCAnPG91dGZpbGUubWFlPic=

>  <r_lp_tautomer_probability>  (33) 
1

>  <r_epik_Ionization_Penalty>  (33) 
1.28897e-09

>  <r_epik_Ionization_Penalty_Charging>  (33) 
0

>  <r_epik_Ionization_Penalty_Neutral>  (33) 
1.28897e-09

>  <r_epik_State_Penalty>  (33) 
-0

>  <r_epik_Charging_Adjusted_Penalty>  (33) 
0

>  <i_epik_Tot_Q>  (33) 
0

>  <i_epik_Tot_abs_Q>  (33) 
0

>  <s_epik_Chemistry_Notes>  (33) 
This compound has an ester and may undergo hydrolysis at high or low pH.

>  <s_lp_Force_Field>  (33) 
OPLS3e

>  <r_lp_Energy>  (33) 
87.4127

>  <b_lp_Chiralities_Consistent>  (33) 
1

>  <s_lp_Variant>  (33) 
11:0-1

>  <s_i_glide_gridfile>  (33) 
pfpi4k_grid

>  <i_i_glide_lignum>  (33) 
18

>  <i_i_glide_rotatable_bonds>  (33) 
2

>  <r_i_docking_score>  (33) 
-2.29625

>  <r_i_glide_ligand_efficiency>  (33) 
-0.0620607

>  <r_i_glide_ligand_efficiency_sa>  (33) 
-0.2068

>  <r_i_glide_ligand_efficiency_ln>  (33) 
-0.498002

>  <r_i_glide_gscore>  (33) 
-2.29625

>  <r_i_glide_lipo>  (33) 
-0.237448

>  <r_i_glide_hbond>  (33) 
0

>  <r_i_glide_metal>  (33) 
-0

>  <r_i_glide_rewards>  (33) 
-0.225075

>  <r_i_glide_evdw>  (33) 
-30.0449

>  <r_i_glide_ecoul>  (33) 
-2.43462

>  <r_i_glide_erotb>  (33) 
0.0802899

>  <r_i_glide_esite>  (33) 
-0.0465774

>  <r_i_glide_emodel>  (33) 
-35.9176

>  <r_i_glide_energy>  (33) 
-32.4795

>  <r_i_glide_einternal>  (33) 
2.17501

>  <r_i_glide_intrahb_reward>  (33) 
-0

>  <i_i_glide_confnum>  (33) 
2

>  <i_i_glide_posenum>  (33) 
22

>  <r_i_glide_eff_state_penalty>  (33) 
0

>  <ligand_id>  (33) 
11

>  <original_smiles>  (33) 
COC(=O)C1=CC2=CC(=O)C=CC2(C)C2CCC3(C)C(=C2C1)CCC12C(CC(C)C31)OC(=O)C(C)C2C

>  <smiles>  (33) 
[H]C1=C(C(=O)OC([H])([H])[H])C([H])([H])C2=C3C([H])([H])C([H])([H])C45C([H])(OC(=O)C([H])(C([H])([H])[H])C4([H])C([H])([H])[H])C([H])([H])C([H])(C([H])([H])[H])C5([H])C3(C([H])([H])[H])C([H])([H])C([H])([H])C2([H])C2(C([H])([H])[H])C([H])=C([H])C(=O)C([H])=C12

$$$$
11:0:1
     RDKit          3D

 77 82  0  0  1  0  0  0  0  0999 V2000
    8.0933   -6.7291    1.0704 C   0  0  0  0  0  0  0  0  0  0  0  0
    6.8652   -6.0535    1.2692 O   0  0  0  0  0  0  0  0  0  0  0  0
    6.7982   -4.7143    1.2056 C   0  0  0  0  0  0  0  0  0  0  0  0
    7.7511   -4.0022    0.8839 O   0  0  0  0  0  0  0  0  0  0  0  0
    5.4488   -4.1905    1.5610 C   0  0  0  0  0  0  0  0  0  0  0  0
    5.3259   -2.8858    1.8672 C   0  0  0  0  0  0  0  0  0  0  0  0
    4.0781   -2.2411    2.2401 C   0  0  0  0  0  0  0  0  0  0  0  0
    3.8226   -1.0708    1.6103 C   0  0  0  0  0  0  0  0  0  0  0  0
    2.6921   -0.2060    1.9680 C   0  0  0  0  0  0  0  0  0  0  0  0
    2.4456    0.8134    1.3321 O   0  0  0  0  0  0  0  0  0  0  0  0
    1.8984   -0.5831    3.1332 C   0  0  0  0  0  0  0  0  0  0  0  0
    2.1527   -1.7237    3.7923 C   0  0  0  0  0  0  0  0  0  0  0  0
    3.2314   -2.7623    3.4298 C   0  0  2  0  0  0  0  0  0  0  0  0
    4.1626   -2.8615    4.6626 C   0  0  0  0  0  0  0  0  0  0  0  0
    2.5232   -4.1395    3.1040 C   0  0  2  0  0  0  0  0  0  0  0  0
    1.4795   -4.5311    4.1854 C   0  0  0  0  0  0  0  0  0  0  0  0
    1.2293   -6.0355    4.2955 C   0  0  0  0  0  0  0  0  0  0  0  0
    2.5206   -6.8638    4.5058 C   0  0  2  0  0  0  0  0  0  0  0  0
    3.1454   -6.4138    5.8548 C   0  0  0  0  0  0  0  0  0  0  0  0
    3.5016   -6.5028    3.3824 C   0  0  0  0  0  0  0  0  0  0  0  0
    3.4626   -5.3107    2.7227 C   0  0  0  0  0  0  0  0  0  0  0  0
    4.2320   -5.0977    1.4168 C   0  0  0  0  0  0  0  0  0  0  0  0
    4.4902   -7.6020    3.0095 C   0  0  0  0  0  0  0  0  0  0  0  0
    4.7056   -8.6777    4.0835 C   0  0  0  0  0  0  0  0  0  0  0  0
    3.4010   -9.4140    4.4595 C   0  0  2  0  0  0  0  0  0  0  0  0
    3.0514  -10.3749    3.2927 C   0  0  2  0  0  0  0  0  0  0  0  0
    1.5370  -10.3747    3.1885 C   0  0  0  0  0  0  0  0  0  0  0  0
    1.1378   -8.9372    3.5139 C   0  0  1  0  0  0  0  0  0  0  0  0
   -0.3313   -8.8999    3.9817 C   0  0  0  0  0  0  0  0  0  0  0  0
    2.1792   -8.4170    4.5536 C   0  0  2  0  0  0  0  0  0  0  0  0
    3.5827  -11.7032    3.2856 O   0  0  0  0  0  0  0  0  0  0  0  0
    4.2071  -12.3242    4.3124 C   0  0  0  0  0  0  0  0  0  0  0  0
    4.6331  -13.4732    4.2265 O   0  0  0  0  0  0  0  0  0  0  0  0
    4.4399  -11.5291    5.6014 C   0  0  1  0  0  0  0  0  0  0  0  0
    5.9522  -11.3011    5.8205 C   0  0  0  0  0  0  0  0  0  0  0  0
    3.5133  -10.2992    5.7449 C   0  0  1  0  0  0  0  0  0  0  0  0
    3.7553   -9.5593    7.0807 C   0  0  0  0  0  0  0  0  0  0  0  0
    7.9363   -7.7983    1.2135 H   0  0  0  0  0  0  0  0  0  0  0  0
    8.8472   -6.4035    1.7873 H   0  0  0  0  0  0  0  0  0  0  0  0
    8.4624   -6.5733    0.0576 H   0  0  0  0  0  0  0  0  0  0  0  0
    6.2187   -2.2728    1.9047 H   0  0  0  0  0  0  0  0  0  0  0  0
    4.4758   -0.7087    0.8310 H   0  0  0  0  0  0  0  0  0  0  0  0
    1.1234    0.1010    3.4538 H   0  0  0  0  0  0  0  0  0  0  0  0
    1.5597   -1.9320    4.6726 H   0  0  0  0  0  0  0  0  0  0  0  0
    4.6910   -1.9197    4.8257 H   0  0  0  0  0  0  0  0  0  0  0  0
    4.9150   -3.6412    4.5507 H   0  0  0  0  0  0  0  0  0  0  0  0
    3.6181   -3.0625    5.5824 H   0  0  0  0  0  0  0  0  0  0  0  0
    1.9357   -3.9696    2.2018 H   0  0  0  0  0  0  0  0  0  0  0  0
    1.7647   -4.1610    5.1700 H   0  0  0  0  0  0  0  0  0  0  0  0
    0.5327   -4.0345    3.9677 H   0  0  0  0  0  0  0  0  0  0  0  0
    0.5339   -6.2240    5.1127 H   0  0  0  0  0  0  0  0  0  0  0  0
    0.7298   -6.3346    3.3759 H   0  0  0  0  0  0  0  0  0  0  0  0
    2.4197   -6.4607    6.6680 H   0  0  0  0  0  0  0  0  0  0  0  0
    3.5140   -5.3896    5.8028 H   0  0  0  0  0  0  0  0  0  0  0  0
    4.0067   -7.0017    6.1559 H   0  0  0  0  0  0  0  0  0  0  0  0
    3.5617   -4.6449    0.6859 H   0  0  0  0  0  0  0  0  0  0  0  0
    4.4823   -6.0465    0.9518 H   0  0  0  0  0  0  0  0  0  0  0  0
    4.1941   -8.0435    2.0588 H   0  0  0  0  0  0  0  0  0  0  0  0
    5.4575   -7.1401    2.8582 H   0  0  0  0  0  0  0  0  0  0  0  0
    5.4318   -9.3851    3.6897 H   0  0  0  0  0  0  0  0  0  0  0  0
    5.1930   -8.2371    4.9506 H   0  0  0  0  0  0  0  0  0  0  0  0
    3.3979   -9.9306    2.3608 H   0  0  0  0  0  0  0  0  0  0  0  0
    1.1954  -10.6562    2.1902 H   0  0  0  0  0  0  0  0  0  0  0  0
    1.1033  -11.0804    3.8990 H   0  0  0  0  0  0  0  0  0  0  0  0
    1.2431   -8.3712    2.5869 H   0  0  0  0  0  0  0  0  0  0  0  0
   -0.4603   -9.4552    4.9128 H   0  0  0  0  0  0  0  0  0  0  0  0
   -0.9854   -9.3683    3.2443 H   0  0  0  0  0  0  0  0  0  0  0  0
   -0.7075   -7.8942    4.1489 H   0  0  0  0  0  0  0  0  0  0  0  0
    1.7008   -8.5766    5.5191 H   0  0  0  0  0  0  0  0  0  0  0  0
    4.1328  -12.2133    6.3911 H   0  0  0  0  0  0  0  0  0  0  0  0
    6.4593  -12.2577    5.9689 H   0  0  0  0  0  0  0  0  0  0  0  0
    6.1532  -10.7118    6.7136 H   0  0  0  0  0  0  0  0  0  0  0  0
    6.4433  -10.8174    4.9761 H   0  0  0  0  0  0  0  0  0  0  0  0
    2.5219  -10.7411    5.8747 H   0  0  0  0  0  0  0  0  0  0  0  0
    4.6967   -9.0079    7.1010 H   0  0  0  0  0  0  0  0  0  0  0  0
    3.7790  -10.2770    7.9058 H   0  0  0  0  0  0  0  0  0  0  0  0
    2.9507   -8.8622    7.3134 H   0  0  0  0  0  0  0  0  0  0  0  0
  1  2  1  0
  1 38  1  0
  1 39  1  0
  1 40  1  0
  2  3  1  0
  3  4  2  0
  3  5  1  0
  5 22  1  0
  5  6  2  0
  6  7  1  0
  6 41  1  0
  7 13  1  0
  7  8  2  0
  8  9  1  0
  8 42  1  0
  9 10  2  0
  9 11  1  0
 11 12  2  0
 11 43  1  0
 12 13  1  0
 12 44  1  0
 13 14  1  1
 13 15  1  0
 14 45  1  0
 14 46  1  0
 14 47  1  0
 15 21  1  0
 15 16  1  0
 15 48  1  6
 16 17  1  0
 16 49  1  0
 16 50  1  0
 17 18  1  0
 17 51  1  0
 17 52  1  0
 18 30  1  0
 18 19  1  1
 18 20  1  0
 19 53  1  0
 19 54  1  0
 19 55  1  0
 20 21  2  0
 20 23  1  0
 21 22  1  0
 22 56  1  0
 22 57  1  0
 23 24  1  0
 23 58  1  0
 23 59  1  0
 25 24  1  6
 24 60  1  0
 24 61  1  0
 25 30  1  0
 25 36  1  0
 25 26  1  0
 26 27  1  0
 26 31  1  0
 26 62  1  6
 27 28  1  0
 27 63  1  0
 27 64  1  0
 28 29  1  0
 28 30  1  0
 28 65  1  6
 29 66  1  0
 29 67  1  0
 29 68  1  0
 30 69  1  1
 31 32  1  0
 32 33  2  0
 32 34  1  0
 34 35  1  0
 34 36  1  0
 34 70  1  1
 35 71  1  0
 35 72  1  0
 35 73  1  0
 36 37  1  0
 36 74  1  1
 37 75  1  0
 37 76  1  0
 37 77  1  0
M  END
>  <i_m_ct_stereo_status>  (34) 
1

>  <s_m_source_file>  (34) 
/var/tmp/pbs.5076255.sched01/tmpyb5u0fxv/0ob_ovo1_.sdf

>  <i_m_source_file_index>  (34) 
18

>  <i_lp_mmshare_version>  (34) 
48012

>  <i_f3d_flags>  (34) 
0

>  <s_epik_input>  (34) 
W0NIM11PQyg9TylDKFtDSDJdMSk9W0NIXUMoPVtDSF1DKD1PKVtDSF09W0NIXTIpW0NAXTIoW0NIM10pW0NASF0oW0NIMl1bQ0gyXTMpQzE9QyhbQ0gyXVtDSDJdNClbQ0BdMyhbQ0gzXSlbQ0BIXTVbQ0BIXShbQ0gzXSlbQ0gyXVtDQEBIXShbQ0BAXTQ1NilPQyg9TylbQ0BASF0oW0NIM10pW0NASF02W0NIM10=

>  <s_epik_cmdline>  (34) 
J2VwaWtfcHl0aG9uJywgJy1waHQnLCAnMi4wJywgJy1waCcsICc3LjAnLCAnLXRuJywgJzgnLCAnLW1hJywgJzIwMCcsICctaW1hZScsICc8aW5maWxlLm1hZT4nLCAnLW9tYWUnLCAnPG91dGZpbGUubWFlPic=

>  <r_lp_tautomer_probability>  (34) 
1

>  <r_epik_Ionization_Penalty>  (34) 
1.28897e-09

>  <r_epik_Ionization_Penalty_Charging>  (34) 
0

>  <r_epik_Ionization_Penalty_Neutral>  (34) 
1.28897e-09

>  <r_epik_State_Penalty>  (34) 
-0

>  <r_epik_Charging_Adjusted_Penalty>  (34) 
0

>  <i_epik_Tot_Q>  (34) 
0

>  <i_epik_Tot_abs_Q>  (34) 
0

>  <s_epik_Chemistry_Notes>  (34) 
This compound has an ester and may undergo hydrolysis at high or low pH.

>  <s_lp_Force_Field>  (34) 
OPLS3e

>  <r_lp_Energy>  (34) 
87.4127

>  <b_lp_Chiralities_Consistent>  (34) 
1

>  <s_lp_Variant>  (34) 
11:0-1

>  <s_i_glide_gridfile>  (34) 
pfpi4k_grid

>  <i_i_glide_lignum>  (34) 
18

>  <i_i_glide_rotatable_bonds>  (34) 
2

>  <r_i_docking_score>  (34) 
-2.09997

>  <r_i_glide_ligand_efficiency>  (34) 
-0.0567561

>  <r_i_glide_ligand_efficiency_sa>  (34) 
-0.189124

>  <r_i_glide_ligand_efficiency_ln>  (34) 
-0.455435

>  <r_i_glide_gscore>  (34) 
-2.09997

>  <r_i_glide_lipo>  (34) 
-0.232587

>  <r_i_glide_hbond>  (34) 
0

>  <r_i_glide_metal>  (34) 
-0

>  <r_i_glide_rewards>  (34) 
-0.144296

>  <r_i_glide_evdw>  (34) 
-32.4408

>  <r_i_glide_ecoul>  (34) 
-0.910219

>  <r_i_glide_erotb>  (34) 
0.0802899

>  <r_i_glide_esite>  (34) 
-0.0448104

>  <r_i_glide_emodel>  (34) 
-36.298

>  <r_i_glide_energy>  (34) 
-33.351

>  <r_i_glide_einternal>  (34) 
2.27317

>  <r_i_glide_intrahb_reward>  (34) 
-0

>  <i_i_glide_confnum>  (34) 
3

>  <i_i_glide_posenum>  (34) 
2

>  <r_i_glide_eff_state_penalty>  (34) 
0

>  <ligand_id>  (34) 
11

>  <original_smiles>  (34) 
COC(=O)C1=CC2=CC(=O)C=CC2(C)C2CCC3(C)C(=C2C1)CCC12C(CC(C)C31)OC(=O)C(C)C2C

>  <smiles>  (34) 
[H]C1=C(C(=O)OC([H])([H])[H])C([H])([H])C2=C3C([H])([H])C([H])([H])C45C([H])(OC(=O)C([H])(C([H])([H])[H])C4([H])C([H])([H])[H])C([H])([H])C([H])(C([H])([H])[H])C5([H])C3(C([H])([H])[H])C([H])([H])C([H])([H])C2([H])C2(C([H])([H])[H])C([H])=C([H])C(=O)C([H])=C12

$$$$
11:0:2
     RDKit          3D

 77 82  0  0  1  0  0  0  0  0999 V2000
    8.3154   -3.5593    0.0721 C   0  0  0  0  0  0  0  0  0  0  0  0
    7.0277   -3.2017    0.5399 O   0  0  0  0  0  0  0  0  0  0  0  0
    6.0950   -4.1560    0.7662 C   0  0  0  0  0  0  0  0  0  0  0  0
    6.2936   -5.3533    0.5490 O   0  0  0  0  0  0  0  0  0  0  0  0
    4.8198   -3.6068    1.3075 C   0  0  0  0  0  0  0  0  0  0  0  0
    4.7382   -2.3176    1.6980 C   0  0  0  0  0  0  0  0  0  0  0  0
    3.5545   -1.7012    2.2564 C   0  0  0  0  0  0  0  0  0  0  0  0
    3.2288   -0.5029    1.7216 C   0  0  0  0  0  0  0  0  0  0  0  0
    2.1640    0.3447    2.2653 C   0  0  0  0  0  0  0  0  0  0  0  0
    1.8328    1.3857    1.7062 O   0  0  0  0  0  0  0  0  0  0  0  0
    1.5386   -0.0868    3.5137 C   0  0  0  0  0  0  0  0  0  0  0  0
    1.8711   -1.2594    4.0790 C   0  0  0  0  0  0  0  0  0  0  0  0
    2.8804   -2.2816    3.5237 C   0  0  2  0  0  0  0  0  0  0  0  0
    3.9721   -2.4454    4.6110 C   0  0  0  0  0  0  0  0  0  0  0  0
    2.1274   -3.6406    3.2305 C   0  0  2  0  0  0  0  0  0  0  0  0
    1.2353   -4.0858    4.4207 C   0  0  0  0  0  0  0  0  0  0  0  0
    0.9898   -5.5934    4.4884 C   0  0  0  0  0  0  0  0  0  0  0  0
    2.2909   -6.4337    4.4786 C   0  0  2  0  0  0  0  0  0  0  0  0
    3.0945   -6.0530    5.7521 C   0  0  0  0  0  0  0  0  0  0  0  0
    3.1186   -6.0170    3.2521 C   0  0  0  0  0  0  0  0  0  0  0  0
    2.9987   -4.7904    2.6649 C   0  0  0  0  0  0  0  0  0  0  0  0
    3.5931   -4.5098    1.2804 C   0  0  0  0  0  0  0  0  0  0  0  0
    4.0417   -7.0933    2.6883 C   0  0  0  0  0  0  0  0  0  0  0  0
    4.3831   -8.2255    3.6734 C   0  0  0  0  0  0  0  0  0  0  0  0
    3.1310   -8.9784    4.1876 C   0  0  2  0  0  0  0  0  0  0  0  0
    2.6137   -9.8804    3.0358 C   0  0  2  0  0  0  0  0  0  0  0  0
    1.0994   -9.8791    3.1363 C   0  0  0  0  0  0  0  0  0  0  0  0
    0.7611   -8.4563    3.5850 C   0  0  1  0  0  0  0  0  0  0  0  0
   -0.6304   -8.4406    4.2548 C   0  0  0  0  0  0  0  0  0  0  0  0
    1.9417   -7.9864    4.4947 C   0  0  2  0  0  0  0  0  0  0  0  0
    3.1219  -11.2088    2.8941 O   0  0  0  0  0  0  0  0  0  0  0  0
    3.8786  -11.8790    3.7951 C   0  0  0  0  0  0  0  0  0  0  0  0
    4.2838  -13.0216    3.6023 O   0  0  0  0  0  0  0  0  0  0  0  0
    4.2918  -11.1487    5.0750 C   0  0  1  0  0  0  0  0  0  0  0  0
    5.8235  -10.9384    5.0996 C   0  0  0  0  0  0  0  0  0  0  0  0
    3.4062   -9.9252    5.4045 C   0  0  1  0  0  0  0  0  0  0  0  0
    3.8339   -9.2566    6.7319 C   0  0  0  0  0  0  0  0  0  0  0  0
    8.9215   -2.6637   -0.0593 H   0  0  0  0  0  0  0  0  0  0  0  0
    8.2569   -4.0723   -0.8873 H   0  0  0  0  0  0  0  0  0  0  0  0
    8.8170   -4.2076    0.7903 H   0  0  0  0  0  0  0  0  0  0  0  0
    5.6116   -1.6833    1.6653 H   0  0  0  0  0  0  0  0  0  0  0  0
    3.7759   -0.1051    0.8795 H   0  0  0  0  0  0  0  0  0  0  0  0
    0.8206    0.5801    3.9740 H   0  0  0  0  0  0  0  0  0  0  0  0
    1.4021   -1.5111    5.0202 H   0  0  0  0  0  0  0  0  0  0  0  0
    4.5273   -1.5155    4.7472 H   0  0  0  0  0  0  0  0  0  0  0  0
    4.6950   -3.2215    4.3596 H   0  0  0  0  0  0  0  0  0  0  0  0
    3.5569   -2.6927    5.5862 H   0  0  0  0  0  0  0  0  0  0  0  0
    1.4243   -3.4228    2.4284 H   0  0  0  0  0  0  0  0  0  0  0  0
    1.6507   -3.7661    5.3755 H   0  0  0  0  0  0  0  0  0  0  0  0
    0.2711   -3.5803    4.3553 H   0  0  0  0  0  0  0  0  0  0  0  0
    0.4098   -5.8206    5.3827 H   0  0  0  0  0  0  0  0  0  0  0  0
    0.3642   -5.8449    3.6348 H   0  0  0  0  0  0  0  0  0  0  0  0
    2.4852   -6.1368    6.6526 H   0  0  0  0  0  0  0  0  0  0  0  0
    3.4612   -5.0285    5.7022 H   0  0  0  0  0  0  0  0  0  0  0  0
    3.9825   -6.6563    5.9067 H   0  0  0  0  0  0  0  0  0  0  0  0
    2.8273   -4.0367    0.6628 H   0  0  0  0  0  0  0  0  0  0  0  0
    3.8033   -5.4323    0.7435 H   0  0  0  0  0  0  0  0  0  0  0  0
    3.6032   -7.4931    1.7750 H   0  0  0  0  0  0  0  0  0  0  0  0
    4.9783   -6.6223    2.3942 H   0  0  0  0  0  0  0  0  0  0  0  0
    5.0418   -8.9181    3.1548 H   0  0  0  0  0  0  0  0  0  0  0  0
    4.9853   -7.8308    4.4898 H   0  0  0  0  0  0  0  0  0  0  0  0
    2.8372   -9.3917    2.0877 H   0  0  0  0  0  0  0  0  0  0  0  0
    0.6309  -10.1319    2.1817 H   0  0  0  0  0  0  0  0  0  0  0  0
    0.7614  -10.6139    3.8680 H   0  0  0  0  0  0  0  0  0  0  0  0
    0.7422   -7.8430    2.6831 H   0  0  0  0  0  0  0  0  0  0  0  0
   -0.6379   -9.0469    5.1627 H   0  0  0  0  0  0  0  0  0  0  0  0
   -1.3841   -8.8657    3.5899 H   0  0  0  0  0  0  0  0  0  0  0  0
   -0.9694   -7.4431    4.5243 H   0  0  0  0  0  0  0  0  0  0  0  0
    1.5981   -8.1914    5.5086 H   0  0  0  0  0  0  0  0  0  0  0  0
    4.0924  -11.8713    5.8662 H   0  0  0  0  0  0  0  0  0  0  0  0
    6.3371  -11.9029    5.1317 H   0  0  0  0  0  0  0  0  0  0  0  0
    6.1510  -10.3950    5.9850 H   0  0  0  0  0  0  0  0  0  0  0  0
    6.2018  -10.4159    4.2213 H   0  0  0  0  0  0  0  0  0  0  0  0
    2.4384  -10.3723    5.6461 H   0  0  0  0  0  0  0  0  0  0  0  0
    4.7743   -8.7094    6.6511 H   0  0  0  0  0  0  0  0  0  0  0  0
    3.9641  -10.0133    7.5102 H   0  0  0  0  0  0  0  0  0  0  0  0
    3.0757   -8.5693    7.1066 H   0  0  0  0  0  0  0  0  0  0  0  0
  1  2  1  0
  1 38  1  0
  1 39  1  0
  1 40  1  0
  2  3  1  0
  3  4  2  0
  3  5  1  0
  5 22  1  0
  5  6  2  0
  6  7  1  0
  6 41  1  0
  7 13  1  0
  7  8  2  0
  8  9  1  0
  8 42  1  0
  9 10  2  0
  9 11  1  0
 11 12  2  0
 11 43  1  0
 12 13  1  0
 12 44  1  0
 13 14  1  1
 13 15  1  0
 14 45  1  0
 14 46  1  0
 14 47  1  0
 15 21  1  0
 15 16  1  0
 15 48  1  6
 16 17  1  0
 16 49  1  0
 16 50  1  0
 17 18  1  0
 17 51  1  0
 17 52  1  0
 18 30  1  0
 18 19  1  1
 18 20  1  0
 19 53  1  0
 19 54  1  0
 19 55  1  0
 20 21  2  0
 20 23  1  0
 21 22  1  0
 22 56  1  0
 22 57  1  0
 23 24  1  0
 23 58  1  0
 23 59  1  0
 25 24  1  6
 24 60  1  0
 24 61  1  0
 25 30  1  0
 25 36  1  0
 25 26  1  0
 26 27  1  0
 26 31  1  0
 26 62  1  6
 27 28  1  0
 27 63  1  0
 27 64  1  0
 28 29  1  0
 28 30  1  0
 28 65  1  6
 29 66  1  0
 29 67  1  0
 29 68  1  0
 30 69  1  1
 31 32  1  0
 32 33  2  0
 32 34  1  0
 34 35  1  0
 34 36  1  0
 34 70  1  1
 35 71  1  0
 35 72  1  0
 35 73  1  0
 36 37  1  0
 36 74  1  1
 37 75  1  0
 37 76  1  0
 37 77  1  0
M  END
>  <i_m_ct_stereo_status>  (35) 
1

>  <s_m_source_file>  (35) 
/var/tmp/pbs.5076255.sched01/tmpyb5u0fxv/0ob_ovo1_.sdf

>  <i_m_source_file_index>  (35) 
18

>  <i_lp_mmshare_version>  (35) 
48012

>  <i_f3d_flags>  (35) 
0

>  <s_epik_input>  (35) 
W0NIM11PQyg9TylDKFtDSDJdMSk9W0NIXUMoPVtDSF1DKD1PKVtDSF09W0NIXTIpW0NAXTIoW0NIM10pW0NASF0oW0NIMl1bQ0gyXTMpQzE9QyhbQ0gyXVtDSDJdNClbQ0BdMyhbQ0gzXSlbQ0BIXTVbQ0BIXShbQ0gzXSlbQ0gyXVtDQEBIXShbQ0BAXTQ1NilPQyg9TylbQ0BASF0oW0NIM10pW0NASF02W0NIM10=

>  <s_epik_cmdline>  (35) 
J2VwaWtfcHl0aG9uJywgJy1waHQnLCAnMi4wJywgJy1waCcsICc3LjAnLCAnLXRuJywgJzgnLCAnLW1hJywgJzIwMCcsICctaW1hZScsICc8aW5maWxlLm1hZT4nLCAnLW9tYWUnLCAnPG91dGZpbGUubWFlPic=

>  <r_lp_tautomer_probability>  (35) 
1

>  <r_epik_Ionization_Penalty>  (35) 
1.28897e-09

>  <r_epik_Ionization_Penalty_Charging>  (35) 
0

>  <r_epik_Ionization_Penalty_Neutral>  (35) 
1.28897e-09

>  <r_epik_State_Penalty>  (35) 
-0

>  <r_epik_Charging_Adjusted_Penalty>  (35) 
0

>  <i_epik_Tot_Q>  (35) 
0

>  <i_epik_Tot_abs_Q>  (35) 
0

>  <s_epik_Chemistry_Notes>  (35) 
This compound has an ester and may undergo hydrolysis at high or low pH.

>  <s_lp_Force_Field>  (35) 
OPLS3e

>  <r_lp_Energy>  (35) 
87.4127

>  <b_lp_Chiralities_Consistent>  (35) 
1

>  <s_lp_Variant>  (35) 
11:0-1

>  <s_i_glide_gridfile>  (35) 
pfpi4k_grid

>  <i_i_glide_lignum>  (35) 
18

>  <i_i_glide_rotatable_bonds>  (35) 
2

>  <r_i_docking_score>  (35) 
-2.07012

>  <r_i_glide_ligand_efficiency>  (35) 
-0.0559493

>  <r_i_glide_ligand_efficiency_sa>  (35) 
-0.186435

>  <r_i_glide_ligand_efficiency_ln>  (35) 
-0.448961

>  <r_i_glide_gscore>  (35) 
-2.07012

>  <r_i_glide_lipo>  (35) 
-0.326983

>  <r_i_glide_hbond>  (35) 
0

>  <r_i_glide_metal>  (35) 
-0

>  <r_i_glide_rewards>  (35) 
-0.121649

>  <r_i_glide_evdw>  (35) 
-34.8125

>  <r_i_glide_ecoul>  (35) 
0.624936

>  <r_i_glide_erotb>  (35) 
0.0802899

>  <r_i_glide_esite>  (35) 
-0.0548934

>  <r_i_glide_emodel>  (35) 
-38.2334

>  <r_i_glide_energy>  (35) 
-34.1876

>  <r_i_glide_einternal>  (35) 
0.122316

>  <r_i_glide_intrahb_reward>  (35) 
-0

>  <i_i_glide_confnum>  (35) 
3

>  <i_i_glide_posenum>  (35) 
23

>  <r_i_glide_eff_state_penalty>  (35) 
0

>  <ligand_id>  (35) 
11

>  <original_smiles>  (35) 
COC(=O)C1=CC2=CC(=O)C=CC2(C)C2CCC3(C)C(=C2C1)CCC12C(CC(C)C31)OC(=O)C(C)C2C

>  <smiles>  (35) 
[H]C1=C(C(=O)OC([H])([H])[H])C([H])([H])C2=C3C([H])([H])C([H])([H])C45C([H])(OC(=O)C([H])(C([H])([H])[H])C4([H])C([H])([H])[H])C([H])([H])C([H])(C([H])([H])[H])C5([H])C3(C([H])([H])[H])C([H])([H])C([H])([H])C2([H])C2(C([H])([H])[H])C([H])=C([H])C(=O)C([H])=C12

$$$$
13:0:0
     RDKit          3D

 80 86  0  0  1  0  0  0  0  0999 V2000
   -1.5796    1.4553    2.0777 C   0  0  0  0  0  0  0  0  0  0  0  0
   -1.3391    2.2593    2.9643 C   0  0  0  0  0  0  0  0  0  0  0  0
   -1.0414    3.2596    4.0087 C   0  0  1  0  0  0  0  0  0  0  0  0
   -1.0659    4.5559    3.4208 O   0  0  0  0  0  0  0  0  0  0  0  0
   -2.1222    3.1968    5.1091 C   0  0  0  0  0  0  0  0  0  0  0  0
   -1.6298    2.1680    6.1363 C   0  0  0  0  0  0  0  0  0  0  0  0
   -0.1274    1.9197    5.8679 C   0  0  1  0  0  0  0  0  0  0  0  0
    0.1615    0.4307    5.5238 C   0  0  2  0  0  0  0  0  0  0  0  0
   -0.0570   -0.4988    6.7598 C   0  0  0  0  0  0  0  0  0  0  0  0
    0.7153   -1.8271    6.6971 C   0  0  0  0  0  0  0  0  0  0  0  0
    2.2098   -1.5530    6.5304 C   0  0  2  0  0  0  0  0  0  0  0  0
    2.4343   -0.5981    5.3967 C   0  0  0  0  0  0  0  0  0  0  0  0
    1.5349    0.2645    4.8806 C   0  0  0  0  0  0  0  0  0  0  0  0
    1.7394    1.1013    3.6393 C   0  0  0  0  0  0  0  0  0  0  0  0
    1.5355    2.5897    3.9550 C   0  0  0  0  0  0  0  0  0  0  0  0
    0.2852    2.9891    4.8050 C   0  0  1  0  0  0  0  0  0  0  0  0
    0.7045    4.2736    5.5767 C   0  0  0  0  0  0  0  0  0  0  0  0
    3.7938   -1.1776    5.0112 C   0  0  2  0  0  0  0  0  0  0  0  0
    5.0137   -0.4549    5.5869 C   0  0  0  0  0  0  0  0  0  0  0  0
    3.9843   -1.5977    3.5660 C   0  0  0  0  0  0  0  0  0  0  0  0
    4.0513   -3.1238    3.6309 C   0  0  1  0  0  0  0  0  0  0  0  0
    5.3802   -3.4603    3.9898 O   0  0  0  0  0  0  0  0  0  0  0  0
    3.0565   -3.5573    4.7538 C   0  0  1  0  0  0  0  0  0  0  0  0
    1.6525   -3.6055    4.1011 C   0  0  0  0  0  0  0  0  0  0  0  0
    3.3398   -4.9577    5.3840 C   0  0  0  0  0  0  0  0  0  0  0  0
    3.4873   -6.1082    4.4154 C   0  0  0  0  0  0  0  0  0  0  0  0
    2.8085   -7.3598    4.3921 C   0  0  0  0  0  0  0  0  0  0  0  0
    3.3497   -8.0239    3.3255 C   0  0  0  0  0  0  0  0  0  0  0  0
    4.3183   -7.1977    2.7992 N   0  0  0  0  0  0  0  0  0  0  0  0
    5.3703   -7.4674    1.4633 S   0  0  0  0  0  0  0  0  0  0  0  0
    6.6195   -7.9827    2.0458 O   0  0  0  0  0  0  0  0  0  0  0  0
    4.5958   -8.2674    0.5019 O   0  0  0  0  0  0  0  0  0  0  0  0
    5.6508   -5.8309    0.7727 C   0  0  0  0  0  0  0  0  0  0  0  0
    4.6786   -5.2386   -0.0595 C   0  0  0  0  0  0  0  0  0  0  0  0
    4.9086   -3.9571   -0.6038 C   0  0  0  0  0  0  0  0  0  0  0  0
    6.1079   -3.2706   -0.3130 C   0  0  0  0  0  0  0  0  0  0  0  0
    7.0786   -3.8670    0.5209 C   0  0  0  0  0  0  0  0  0  0  0  0
    6.8492   -5.1486    1.0639 C   0  0  0  0  0  0  0  0  0  0  0  0
    4.4318   -6.0549    3.4879 N   0  0  0  0  0  0  0  0  0  0  0  0
    3.2667   -2.4114    5.7793 C   0  0  2  0  0  0  0  0  0  0  0  0
   -1.8029    0.7862    1.2797 H   0  0  0  0  0  0  0  0  0  0  0  0
   -0.5950    4.5226    2.5887 H   0  0  0  0  0  0  0  0  0  0  0  0
   -2.2178    4.1576    5.6112 H   0  0  0  0  0  0  0  0  0  0  0  0
   -3.1202    2.9602    4.7285 H   0  0  0  0  0  0  0  0  0  0  0  0
   -1.7841    2.5540    7.1442 H   0  0  0  0  0  0  0  0  0  0  0  0
   -2.2180    1.2545    6.0579 H   0  0  0  0  0  0  0  0  0  0  0  0
    0.4288    2.1304    6.7803 H   0  0  0  0  0  0  0  0  0  0  0  0
   -0.5320    0.1039    4.7515 H   0  0  0  0  0  0  0  0  0  0  0  0
    0.2446    0.0226    7.6688 H   0  0  0  0  0  0  0  0  0  0  0  0
   -1.1155   -0.7088    6.8601 H   0  0  0  0  0  0  0  0  0  0  0  0
    0.5362   -2.4183    7.5939 H   0  0  0  0  0  0  0  0  0  0  0  0
    0.3037   -2.3925    5.8740 H   0  0  0  0  0  0  0  0  0  0  0  0
    2.6518   -1.2009    7.4646 H   0  0  0  0  0  0  0  0  0  0  0  0
    2.7409    0.9517    3.2390 H   0  0  0  0  0  0  0  0  0  0  0  0
    1.0512    0.7525    2.8698 H   0  0  0  0  0  0  0  0  0  0  0  0
    2.4334    2.8989    4.4936 H   0  0  0  0  0  0  0  0  0  0  0  0
    1.5499    3.1614    3.0313 H   0  0  0  0  0  0  0  0  0  0  0  0
    1.5595    4.0733    6.2226 H   0  0  0  0  0  0  0  0  0  0  0  0
   -0.0860    4.6656    6.2193 H   0  0  0  0  0  0  0  0  0  0  0  0
    1.0070    5.0746    4.8980 H   0  0  0  0  0  0  0  0  0  0  0  0
    5.8993   -1.0862    5.5063 H   0  0  0  0  0  0  0  0  0  0  0  0
    4.9003   -0.2154    6.6453 H   0  0  0  0  0  0  0  0  0  0  0  0
    5.2309    0.4642    5.0429 H   0  0  0  0  0  0  0  0  0  0  0  0
    3.1280   -1.3194    2.9612 H   0  0  0  0  0  0  0  0  0  0  0  0
    4.8724   -1.1725    3.0968 H   0  0  0  0  0  0  0  0  0  0  0  0
    3.8343   -3.5739    2.6632 H   0  0  0  0  0  0  0  0  0  0  0  0
    5.4240   -4.4075    3.9805 H   0  0  0  0  0  0  0  0  0  0  0  0
    0.9190   -4.0843    4.7497 H   0  0  0  0  0  0  0  0  0  0  0  0
    1.6688   -4.1889    3.1780 H   0  0  0  0  0  0  0  0  0  0  0  0
    1.2918   -2.6119    3.8369 H   0  0  0  0  0  0  0  0  0  0  0  0
    4.2375   -4.9191    6.0000 H   0  0  0  0  0  0  0  0  0  0  0  0
    2.5382   -5.1874    6.0844 H   0  0  0  0  0  0  0  0  0  0  0  0
    2.0587   -7.7363    5.0780 H   0  0  0  0  0  0  0  0  0  0  0  0
    3.1617   -9.0061    2.9184 H   0  0  0  0  0  0  0  0  0  0  0  0
    3.7677   -5.7666   -0.2942 H   0  0  0  0  0  0  0  0  0  0  0  0
    4.1676   -3.5036   -1.2482 H   0  0  0  0  0  0  0  0  0  0  0  0
    6.2809   -2.2908   -0.7247 H   0  0  0  0  0  0  0  0  0  0  0  0
    7.9955   -3.3429    0.7501 H   0  0  0  0  0  0  0  0  0  0  0  0
    7.5887   -5.6049    1.7012 H   0  0  0  0  0  0  0  0  0  0  0  0
    4.0224   -2.6870    6.5148 H   0  0  0  0  0  0  0  0  0  0  0  0
  1  2  3  0
  1 41  1  0
  3  2  1  6
  3 16  1  0
  3  4  1  0
  3  5  1  0
  4 42  1  0
  5  6  1  0
  5 43  1  0
  5 44  1  0
  6  7  1  0
  6 45  1  0
  6 46  1  0
  7 16  1  0
  7  8  1  0
  7 47  1  1
  8 13  1  0
  8  9  1  0
  8 48  1  6
  9 10  1  0
  9 49  1  0
  9 50  1  0
 10 11  1  0
 10 51  1  0
 10 52  1  0
 11 40  1  0
 11 12  1  0
 11 53  1  1
 12 13  2  0
 12 18  1  0
 13 14  1  0
 14 15  1  0
 14 54  1  0
 14 55  1  0
 15 16  1  0
 15 56  1  0
 15 57  1  0
 16 17  1  1
 17 58  1  0
 17 59  1  0
 17 60  1  0
 18 40  1  0
 18 19  1  1
 18 20  1  0
 19 61  1  0
 19 62  1  0
 19 63  1  0
 20 21  1  0
 20 64  1  0
 20 65  1  0
 21 22  1  0
 21 23  1  0
 21 66  1  6
 22 67  1  0
 23 24  1  6
 23 25  1  0
 23 40  1  0
 24 68  1  0
 24 69  1  0
 24 70  1  0
 25 26  1  0
 25 71  1  0
 25 72  1  0
 26 39  2  0
 26 27  1  0
 27 28  2  0
 27 73  1  0
 28 29  1  0
 28 74  1  0
 29 30  1  0
 29 39  1  0
 30 31  2  0
 30 32  2  0
 30 33  1  0
 33 38  1  0
 33 34  2  0
 34 35  1  0
 34 75  1  0
 35 36  2  0
 35 76  1  0
 36 37  1  0
 36 77  1  0
 37 38  2  0
 37 78  1  0
 38 79  1  0
 40 80  1  1
M  END
>  <i_m_ct_stereo_status>  (36) 
1

>  <s_m_source_file>  (36) 
/var/tmp/pbs.5076255.sched01/tmpyb5u0fxv/0ob_ovo1_.sdf

>  <i_m_source_file_index>  (36) 
20

>  <i_lp_mmshare_version>  (36) 
48012

>  <i_f3d_flags>  (36) 
0

>  <s_epik_input>  (36) 
W0NIXSNDW0NAQF0xKFtPSF0pW0NIMl1bQ0gyXVtDQEhdKFtDQF0xMltDSDNdKVtDQEhdM0MoW0NIMl1bQ0gyXTIpPUM0W0NAQEhdKFtDSDJdW0NIMl0zKVtDQEBIXTVbQ0BAXTQoW0NIM10pW0NIMl1bQ0BASF0oW09IXSlbQ0BAXTUoW0NIM10pW0NIMl1jNltjSF1bY0hdbihuNilTKD1PKSg9TyljN1tjSF1bY0hdW2NIXVtjSF1bY0hdNw==

>  <s_epik_cmdline>  (36) 
J2VwaWtfcHl0aG9uJywgJy1waHQnLCAnMi4wJywgJy1waCcsICc3LjAnLCAnLXRuJywgJzgnLCAnLW1hJywgJzIwMCcsICctaW1hZScsICc8aW5maWxlLm1hZT4nLCAnLW9tYWUnLCAnPG91dGZpbGUubWFlPic=

>  <r_lp_tautomer_probability>  (36) 
1

>  <r_epik_Ionization_Penalty>  (36) 
1.378e-06

>  <r_epik_Ionization_Penalty_Charging>  (36) 
0

>  <r_epik_Ionization_Penalty_Neutral>  (36) 
1.378e-06

>  <r_epik_State_Penalty>  (36) 
-0

>  <r_epik_Charging_Adjusted_Penalty>  (36) 
0

>  <i_epik_Tot_Q>  (36) 
0

>  <i_epik_Tot_abs_Q>  (36) 
0

>  <s_lp_Force_Field>  (36) 
OPLS3e

>  <r_lp_Energy>  (36) 
67.8961

>  <b_lp_Chiralities_Consistent>  (36) 
1

>  <s_lp_Variant>  (36) 
13:0-1

>  <s_i_glide_gridfile>  (36) 
pfpi4k_grid

>  <i_i_glide_lignum>  (36) 
20

>  <i_i_glide_rotatable_bonds>  (36) 
7

>  <r_i_docking_score>  (36) 
-3.27245

>  <r_i_glide_ligand_efficiency>  (36) 
-0.0818114

>  <r_i_glide_ligand_efficiency_sa>  (36) 
-0.279791

>  <r_i_glide_ligand_efficiency_ln>  (36) 
-0.697918

>  <r_i_glide_gscore>  (36) 
-3.27245

>  <r_i_glide_lipo>  (36) 
-0.478125

>  <r_i_glide_hbond>  (36) 
-0.215308

>  <r_i_glide_metal>  (36) 
-0

>  <r_i_glide_rewards>  (36) 
-0.62216

>  <r_i_glide_evdw>  (36) 
-27.974

>  <r_i_glide_ecoul>  (36) 
-5.32345

>  <r_i_glide_erotb>  (36) 
0.250285

>  <r_i_glide_esite>  (36) 
-0.00992726

>  <r_i_glide_emodel>  (36) 
-44.601

>  <r_i_glide_energy>  (36) 
-33.2975

>  <r_i_glide_einternal>  (36) 
6.37253

>  <r_i_glide_intrahb_reward>  (36) 
-0.5

>  <i_i_glide_confnum>  (36) 
5

>  <i_i_glide_posenum>  (36) 
18

>  <r_i_glide_eff_state_penalty>  (36) 
0

>  <ligand_id>  (36) 
13

>  <original_smiles>  (36) 
C#CC1(O)CCC2C3CCC4C(=C3CCC21C)C1(C)CC(O)C(C)(Cc2ccn(S(=O)(=O)c3ccccc3)n2)C41

>  <smiles>  (36) 
[H]C#CC1(O[H])C([H])([H])C([H])([H])C2([H])C3([H])C(=C4C([H])(C([H])([H])C3([H])[H])C3([H])C4(C([H])([H])[H])C([H])([H])C([H])(O[H])C3(C([H])([H])[H])C([H])([H])c3nn(S(=O)(=O)c4c([H])c([H])c([H])c([H])c4[H])c([H])c3[H])C([H])([H])C([H])([H])C12C([H])([H])[H]

$$$$
13:0:1
     RDKit          3D

 80 86  0  0  1  0  0  0  0  0999 V2000
   -1.3846    1.3395    2.0932 C   0  0  0  0  0  0  0  0  0  0  0  0
   -0.7069    1.8130    2.9947 C   0  0  0  0  0  0  0  0  0  0  0  0
    0.0901    2.4046    4.0955 C   0  0  1  0  0  0  0  0  0  0  0  0
   -0.1679    3.7980    4.1303 O   0  0  0  0  0  0  0  0  0  0  0  0
   -0.3409    1.7794    5.4392 C   0  0  0  0  0  0  0  0  0  0  0  0
    0.5511    0.5440    5.6398 C   0  0  0  0  0  0  0  0  0  0  0  0
    1.7387    0.6552    4.6519 C   0  0  1  0  0  0  0  0  0  0  0  0
    1.7934   -0.5432    3.6584 C   0  0  2  0  0  0  0  0  0  0  0  0
    2.1633   -1.8793    4.3872 C   0  0  0  0  0  0  0  0  0  0  0  0
    2.7904   -2.9427    3.4704 C   0  0  0  0  0  0  0  0  0  0  0  0
    4.0338   -2.3759    2.7879 C   0  0  2  0  0  0  0  0  0  0  0  0
    3.7148   -1.0628    2.1449 C   0  0  0  0  0  0  0  0  0  0  0  0
    2.7023   -0.2358    2.4704 C   0  0  0  0  0  0  0  0  0  0  0  0
    2.3043    1.0055    1.7080 C   0  0  0  0  0  0  0  0  0  0  0  0
    2.3105    2.2335    2.6362 C   0  0  0  0  0  0  0  0  0  0  0  0
    1.6293    2.0895    4.0369 C   0  0  1  0  0  0  0  0  0  0  0  0
    2.4023    3.0628    4.9783 C   0  0  0  0  0  0  0  0  0  0  0  0
    4.7152   -1.2413    1.0003 C   0  0  2  0  0  0  0  0  0  0  0  0
    6.0813   -0.5887    1.1928 C   0  0  0  0  0  0  0  0  0  0  0  0
    4.1979   -1.0914   -0.4231 C   0  0  0  0  0  0  0  0  0  0  0  0
    4.2547   -2.5277   -0.9973 C   0  0  1  0  0  0  0  0  0  0  0  0
    5.5803   -2.7458   -1.4742 O   0  0  0  0  0  0  0  0  0  0  0  0
    3.8519   -3.4518    0.2036 C   0  0  1  0  0  0  0  0  0  0  0  0
    2.2890   -3.3447    0.2249 C   0  0  0  0  0  0  0  0  0  0  0  0
    4.3746   -4.9330    0.0525 C   0  0  0  0  0  0  0  0  0  0  0  0
    3.7944   -5.9606    1.0072 C   0  0  0  0  0  0  0  0  0  0  0  0
    4.4839   -6.9587    1.7843 C   0  0  0  0  0  0  0  0  0  0  0  0
    3.4730   -7.5831    2.5125 C   0  0  0  0  0  0  0  0  0  0  0  0
    2.2996   -6.9471    2.1053 N   0  0  0  0  0  0  0  0  0  0  0  0
    0.6784   -7.2347    2.6386 S   0  0  0  0  0  0  0  0  0  0  0  0
    0.3515   -6.1817    3.6266 O   0  0  0  0  0  0  0  0  0  0  0  0
   -0.1041   -7.3726    1.4281 O   0  0  0  0  0  0  0  0  0  0  0  0
    0.7923   -8.7963    3.5055 C   0  0  0  0  0  0  0  0  0  0  0  0
    0.6903   -9.9860    2.7752 C   0  0  0  0  0  0  0  0  0  0  0  0
    0.8506  -11.2325    3.3897 C   0  0  0  0  0  0  0  0  0  0  0  0
    1.1081  -11.2722    4.7782 C   0  0  0  0  0  0  0  0  0  0  0  0
    1.2241  -10.0814    5.5104 C   0  0  0  0  0  0  0  0  0  0  0  0
    1.0739   -8.8302    4.8941 C   0  0  0  0  0  0  0  0  0  0  0  0
    2.4861   -6.0760    1.1354 N   0  0  0  0  0  0  0  0  0  0  0  0
    4.5796   -2.7311    1.3747 C   0  0  2  0  0  0  0  0  0  0  0  0
   -1.9662    0.9462    1.2885 H   0  0  0  0  0  0  0  0  0  0  0  0
    0.0997    4.1646    3.2961 H   0  0  0  0  0  0  0  0  0  0  0  0
   -0.1703    2.4794    6.2601 H   0  0  0  0  0  0  0  0  0  0  0  0
   -1.4034    1.5287    5.4799 H   0  0  0  0  0  0  0  0  0  0  0  0
    0.9068    0.5068    6.6685 H   0  0  0  0  0  0  0  0  0  0  0  0
   -0.0269   -0.3651    5.4800 H   0  0  0  0  0  0  0  0  0  0  0  0
    2.6654    0.6093    5.2211 H   0  0  0  0  0  0  0  0  0  0  0  0
    0.8026   -0.6822    3.2232 H   0  0  0  0  0  0  0  0  0  0  0  0
    2.8759   -1.6774    5.1865 H   0  0  0  0  0  0  0  0  0  0  0  0
    1.2777   -2.3020    4.8718 H   0  0  0  0  0  0  0  0  0  0  0  0
    3.0351   -3.8468    4.0261 H   0  0  0  0  0  0  0  0  0  0  0  0
    2.0224   -3.2308    2.7746 H   0  0  0  0  0  0  0  0  0  0  0  0
    4.8632   -2.3120    3.4923 H   0  0  0  0  0  0  0  0  0  0  0  0
    3.0009    1.1735    0.8926 H   0  0  0  0  0  0  0  0  0  0  0  0
    1.3257    0.8536    1.2479 H   0  0  0  0  0  0  0  0  0  0  0  0
    3.3635    2.4598    2.8024 H   0  0  0  0  0  0  0  0  0  0  0  0
    1.9162    3.1070    2.1134 H   0  0  0  0  0  0  0  0  0  0  0  0
    3.4548    2.7907    5.0400 H   0  0  0  0  0  0  0  0  0  0  0  0
    2.0248    3.0636    5.9992 H   0  0  0  0  0  0  0  0  0  0  0  0
    2.3725    4.0911    4.6181 H   0  0  0  0  0  0  0  0  0  0  0  0
    6.8106   -0.9929    0.4885 H   0  0  0  0  0  0  0  0  0  0  0  0
    6.4914   -0.7478    2.1925 H   0  0  0  0  0  0  0  0  0  0  0  0
    6.0226    0.4791    0.9941 H   0  0  0  0  0  0  0  0  0  0  0  0
    3.1610   -0.7562   -0.4165 H   0  0  0  0  0  0  0  0  0  0  0  0
    4.7495   -0.3693   -1.0245 H   0  0  0  0  0  0  0  0  0  0  0  0
    3.5812   -2.6304   -1.8540 H   0  0  0  0  0  0  0  0  0  0  0  0
    5.6195   -3.6222   -1.8294 H   0  0  0  0  0  0  0  0  0  0  0  0
    1.8264   -3.9851    0.9444 H   0  0  0  0  0  0  0  0  0  0  0  0
    1.8920   -3.6226   -0.7609 H   0  0  0  0  0  0  0  0  0  0  0  0
    1.9538   -2.3418    0.4964 H   0  0  0  0  0  0  0  0  0  0  0  0
    4.1982   -5.2670   -0.9626 H   0  0  0  0  0  0  0  0  0  0  0  0
    5.4604   -4.9452    0.1372 H   0  0  0  0  0  0  0  0  0  0  0  0
    5.5410   -7.2147    1.7816 H   0  0  0  0  0  0  0  0  0  0  0  0
    3.5140   -8.4114    3.2131 H   0  0  0  0  0  0  0  0  0  0  0  0
    0.4995   -9.9336    1.7213 H   0  0  0  0  0  0  0  0  0  0  0  0
    0.7529  -12.1385    2.8086 H   0  0  0  0  0  0  0  0  0  0  0  0
    1.2054  -12.2231    5.2566 H   0  0  0  0  0  0  0  0  0  0  0  0
    1.4248  -10.1301    6.5674 H   0  0  0  0  0  0  0  0  0  0  0  0
    1.1867   -7.9078    5.4354 H   0  0  0  0  0  0  0  0  0  0  0  0
    5.5960   -3.1248    1.5121 H   0  0  0  0  0  0  0  0  0  0  0  0
  1  2  3  0
  1 41  1  0
  3  2  1  6
  3 16  1  0
  3  4  1  0
  3  5  1  0
  4 42  1  0
  5  6  1  0
  5 43  1  0
  5 44  1  0
  6  7  1  0
  6 45  1  0
  6 46  1  0
  7 16  1  0
  7  8  1  0
  7 47  1  1
  8 13  1  0
  8  9  1  0
  8 48  1  6
  9 10  1  0
  9 49  1  0
  9 50  1  0
 10 11  1  0
 10 51  1  0
 10 52  1  0
 11 40  1  0
 11 12  1  0
 11 53  1  1
 12 13  2  0
 12 18  1  0
 13 14  1  0
 14 15  1  0
 14 54  1  0
 14 55  1  0
 15 16  1  0
 15 56  1  0
 15 57  1  0
 16 17  1  1
 17 58  1  0
 17 59  1  0
 17 60  1  0
 18 40  1  0
 18 19  1  1
 18 20  1  0
 19 61  1  0
 19 62  1  0
 19 63  1  0
 20 21  1  0
 20 64  1  0
 20 65  1  0
 21 22  1  0
 21 23  1  0
 21 66  1  6
 22 67  1  0
 23 24  1  1
 23 25  1  0
 23 40  1  0
 24 68  1  0
 24 69  1  0
 24 70  1  0
 25 26  1  0
 25 71  1  0
 25 72  1  0
 26 39  2  0
 26 27  1  0
 27 28  2  0
 27 73  1  0
 28 29  1  0
 28 74  1  0
 29 30  1  0
 29 39  1  0
 30 31  2  0
 30 32  2  0
 30 33  1  0
 33 38  1  0
 33 34  2  0
 34 35  1  0
 34 75  1  0
 35 36  2  0
 35 76  1  0
 36 37  1  0
 36 77  1  0
 37 38  2  0
 37 78  1  0
 38 79  1  0
 40 80  1  1
M  END
>  <i_m_ct_stereo_status>  (37) 
1

>  <s_m_source_file>  (37) 
/var/tmp/pbs.5076255.sched01/tmpyb5u0fxv/0ob_ovo1_.sdf

>  <i_m_source_file_index>  (37) 
20

>  <i_lp_mmshare_version>  (37) 
48012

>  <i_f3d_flags>  (37) 
0

>  <s_epik_input>  (37) 
W0NIXSNDW0NAQF0xKFtPSF0pW0NIMl1bQ0gyXVtDQEhdKFtDQF0xMltDSDNdKVtDQEhdM0MoW0NIMl1bQ0gyXTIpPUM0W0NAQEhdKFtDSDJdW0NIMl0zKVtDQEBIXTVbQ0BAXTQoW0NIM10pW0NIMl1bQ0BASF0oW09IXSlbQ0BAXTUoW0NIM10pW0NIMl1jNltjSF1bY0hdbihuNilTKD1PKSg9TyljN1tjSF1bY0hdW2NIXVtjSF1bY0hdNw==

>  <s_epik_cmdline>  (37) 
J2VwaWtfcHl0aG9uJywgJy1waHQnLCAnMi4wJywgJy1waCcsICc3LjAnLCAnLXRuJywgJzgnLCAnLW1hJywgJzIwMCcsICctaW1hZScsICc8aW5maWxlLm1hZT4nLCAnLW9tYWUnLCAnPG91dGZpbGUubWFlPic=

>  <r_lp_tautomer_probability>  (37) 
1

>  <r_epik_Ionization_Penalty>  (37) 
1.378e-06

>  <r_epik_Ionization_Penalty_Charging>  (37) 
0

>  <r_epik_Ionization_Penalty_Neutral>  (37) 
1.378e-06

>  <r_epik_State_Penalty>  (37) 
-0

>  <r_epik_Charging_Adjusted_Penalty>  (37) 
0

>  <i_epik_Tot_Q>  (37) 
0

>  <i_epik_Tot_abs_Q>  (37) 
0

>  <s_lp_Force_Field>  (37) 
OPLS3e

>  <r_lp_Energy>  (37) 
67.8961

>  <b_lp_Chiralities_Consistent>  (37) 
1

>  <s_lp_Variant>  (37) 
13:0-1

>  <s_i_glide_gridfile>  (37) 
pfpi4k_grid

>  <i_i_glide_lignum>  (37) 
20

>  <i_i_glide_rotatable_bonds>  (37) 
7

>  <r_i_docking_score>  (37) 
-3.23952

>  <r_i_glide_ligand_efficiency>  (37) 
-0.0809881

>  <r_i_glide_ligand_efficiency_sa>  (37) 
-0.276975

>  <r_i_glide_ligand_efficiency_ln>  (37) 
-0.690895

>  <r_i_glide_gscore>  (37) 
-3.23952

>  <r_i_glide_lipo>  (37) 
-0.485951

>  <r_i_glide_hbond>  (37) 
0

>  <r_i_glide_metal>  (37) 
-0

>  <r_i_glide_rewards>  (37) 
0

>  <r_i_glide_evdw>  (37) 
-37.5355

>  <r_i_glide_ecoul>  (37) 
-6.22459

>  <r_i_glide_erotb>  (37) 
0.250285

>  <r_i_glide_esite>  (37) 
-0.193396

>  <r_i_glide_emodel>  (37) 
-48.4823

>  <r_i_glide_energy>  (37) 
-43.7601

>  <r_i_glide_einternal>  (37) 
7.23841

>  <r_i_glide_intrahb_reward>  (37) 
-0

>  <i_i_glide_confnum>  (37) 
5

>  <i_i_glide_posenum>  (37) 
13

>  <r_i_glide_eff_state_penalty>  (37) 
0

>  <ligand_id>  (37) 
13

>  <original_smiles>  (37) 
C#CC1(O)CCC2C3CCC4C(=C3CCC21C)C1(C)CC(O)C(C)(Cc2ccn(S(=O)(=O)c3ccccc3)n2)C41

>  <smiles>  (37) 
[H]C#CC1(O[H])C([H])([H])C([H])([H])C2([H])C3([H])C(=C4C([H])(C([H])([H])C3([H])[H])C3([H])C4(C([H])([H])[H])C([H])([H])C([H])(O[H])C3(C([H])([H])[H])C([H])([H])c3nn(S(=O)(=O)c4c([H])c([H])c([H])c([H])c4[H])c([H])c3[H])C([H])([H])C([H])([H])C12C([H])([H])[H]

$$$$
13:0:2
     RDKit          3D

 80 86  0  0  1  0  0  0  0  0999 V2000
   -1.0003    4.8355    4.7661 C   0  0  0  0  0  0  0  0  0  0  0  0
   -0.9477    4.8594    5.9869 C   0  0  0  0  0  0  0  0  0  0  0  0
   -0.9024    4.9285    7.4674 C   0  0  1  0  0  0  0  0  0  0  0  0
   -0.9103    6.2919    7.8621 O   0  0  0  0  0  0  0  0  0  0  0  0
   -2.1472    4.2624    8.0829 C   0  0  0  0  0  0  0  0  0  0  0  0
   -1.7953    2.7817    8.2626 C   0  0  0  0  0  0  0  0  0  0  0  0
   -0.2581    2.6564    8.1496 C   0  0  1  0  0  0  0  0  0  0  0  0
    0.1652    1.7230    6.9796 C   0  0  2  0  0  0  0  0  0  0  0  0
   -0.2181    0.2361    7.2650 C   0  0  0  0  0  0  0  0  0  0  0  0
    0.6265   -0.7908    6.4927 C   0  0  0  0  0  0  0  0  0  0  0  0
    2.1115   -0.5817    6.7964 C   0  0  2  0  0  0  0  0  0  0  0  0
    2.4763    0.8567    6.6019 C   0  0  0  0  0  0  0  0  0  0  0  0
    1.6373    1.9105    6.6253 C   0  0  0  0  0  0  0  0  0  0  0  0
    2.0078    3.3313    6.2715 C   0  0  0  0  0  0  0  0  0  0  0  0
    1.6744    4.2780    7.4343 C   0  0  0  0  0  0  0  0  0  0  0  0
    0.2762    4.1252    8.1155 C   0  0  1  0  0  0  0  0  0  0  0  0
    0.4795    4.5851    9.5884 C   0  0  0  0  0  0  0  0  0  0  0  0
    3.9099    0.5651    6.1640 C   0  0  2  0  0  0  0  0  0  0  0  0
    4.9743    0.6598    7.2665 C   0  0  0  0  0  0  0  0  0  0  0  0
    4.3655    1.1575    4.8374 C   0  0  0  0  0  0  0  0  0  0  0  0
    4.5024   -0.0569    3.9027 C   0  0  1  0  0  0  0  0  0  0  0  0
    5.7703   -0.6206    4.1814 O   0  0  0  0  0  0  0  0  0  0  0  0
    3.3553   -1.0248    4.3162 C   0  0  1  0  0  0  0  0  0  0  0  0
    2.0891   -0.5410    3.5693 C   0  0  0  0  0  0  0  0  0  0  0  0
    3.6114   -2.5148    3.9505 C   0  0  0  0  0  0  0  0  0  0  0  0
    3.6343   -2.8093    2.4758 C   0  0  0  0  0  0  0  0  0  0  0  0
    2.6972   -3.5540    1.7106 C   0  0  0  0  0  0  0  0  0  0  0  0
    3.2157   -3.5418    0.4472 C   0  0  0  0  0  0  0  0  0  0  0  0
    4.3871   -2.8201    0.5047 N   0  0  0  0  0  0  0  0  0  0  0  0
    5.5257   -2.5375   -0.7609 S   0  0  0  0  0  0  0  0  0  0  0  0
    6.4142   -1.4533   -0.3046 O   0  0  0  0  0  0  0  0  0  0  0  0
    6.0827   -3.8544   -1.0908 O   0  0  0  0  0  0  0  0  0  0  0  0
    4.5402   -1.9648   -2.1285 C   0  0  0  0  0  0  0  0  0  0  0  0
    3.7454   -2.8753   -2.8465 C   0  0  0  0  0  0  0  0  0  0  0  0
    2.9670   -2.4127   -3.9189 C   0  0  0  0  0  0  0  0  0  0  0  0
    3.0150   -1.0494   -4.2970 C   0  0  0  0  0  0  0  0  0  0  0  0
    3.8150   -0.1522   -3.5813 C   0  0  0  0  0  0  0  0  0  0  0  0
    4.5775   -0.6124   -2.4918 C   0  0  0  0  0  0  0  0  0  0  0  0
    4.6538   -2.3798    1.7461 N   0  0  0  0  0  0  0  0  0  0  0  0
    3.3257   -0.8285    5.8556 C   0  0  2  0  0  0  0  0  0  0  0  0
   -1.0686    4.8270    3.6985 H   0  0  0  0  0  0  0  0  0  0  0  0
   -0.1685    6.4509    8.4209 H   0  0  0  0  0  0  0  0  0  0  0  0
   -2.3901    4.7005    9.0562 H   0  0  0  0  0  0  0  0  0  0  0  0
   -3.0432    4.3868    7.4790 H   0  0  0  0  0  0  0  0  0  0  0  0
   -2.1476    2.4392    9.2350 H   0  0  0  0  0  0  0  0  0  0  0  0
   -2.3167    2.1860    7.5121 H   0  0  0  0  0  0  0  0  0  0  0  0
    0.1158    2.1915    9.0604 H   0  0  0  0  0  0  0  0  0  0  0  0
   -0.3649    2.0206    6.0769 H   0  0  0  0  0  0  0  0  0  0  0  0
   -0.1047    0.0300    8.3299 H   0  0  0  0  0  0  0  0  0  0  0  0
   -1.2684    0.0879    7.0232 H   0  0  0  0  0  0  0  0  0  0  0  0
    0.3268   -1.8054    6.7472 H   0  0  0  0  0  0  0  0  0  0  0  0
    0.3983   -0.6614    5.4465 H   0  0  0  0  0  0  0  0  0  0  0  0
    2.3654   -0.9447    7.7931 H   0  0  0  0  0  0  0  0  0  0  0  0
    3.0694    3.4045    6.0449 H   0  0  0  0  0  0  0  0  0  0  0  0
    1.4835    3.6115    5.3570 H   0  0  0  0  0  0  0  0  0  0  0  0
    2.4459    4.1035    8.1883 H   0  0  0  0  0  0  0  0  0  0  0  0
    1.8163    5.3072    7.1167 H   0  0  0  0  0  0  0  0  0  0  0  0
    1.2146    3.9529   10.0849 H   0  0  0  0  0  0  0  0  0  0  0  0
   -0.4307    4.5250   10.1875 H   0  0  0  0  0  0  0  0  0  0  0  0
    0.8579    5.6067    9.6574 H   0  0  0  0  0  0  0  0  0  0  0  0
    5.8966    0.1703    6.9530 H   0  0  0  0  0  0  0  0  0  0  0  0
    4.6654    0.1714    8.1928 H   0  0  0  0  0  0  0  0  0  0  0  0
    5.2303    1.6948    7.4943 H   0  0  0  0  0  0  0  0  0  0  0  0
    3.6150    1.8336    4.4370 H   0  0  0  0  0  0  0  0  0  0  0  0
    5.2944    1.7190    4.9283 H   0  0  0  0  0  0  0  0  0  0  0  0
    4.4702    0.2239    2.8466 H   0  0  0  0  0  0  0  0  0  0  0  0
    6.4331   -0.0142    3.8902 H   0  0  0  0  0  0  0  0  0  0  0  0
    1.2834   -1.2752    3.6182 H   0  0  0  0  0  0  0  0  0  0  0  0
    2.2962   -0.3859    2.5072 H   0  0  0  0  0  0  0  0  0  0  0  0
    1.7295    0.4145    3.9542 H   0  0  0  0  0  0  0  0  0  0  0  0
    4.5342   -2.8792    4.4024 H   0  0  0  0  0  0  0  0  0  0  0  0
    2.8255   -3.1178    4.4003 H   0  0  0  0  0  0  0  0  0  0  0  0
    1.7903   -4.0459    2.0307 H   0  0  0  0  0  0  0  0  0  0  0  0
    2.8484   -3.9859   -0.4607 H   0  0  0  0  0  0  0  0  0  0  0  0
    3.7340   -3.9189   -2.5726 H   0  0  0  0  0  0  0  0  0  0  0  0
    2.3360   -3.1050   -4.4595 H   0  0  0  0  0  0  0  0  0  0  0  0
    2.4112   -0.6709   -5.1114 H   0  0  0  0  0  0  0  0  0  0  0  0
    3.8337    0.8956   -3.8610 H   0  0  0  0  0  0  0  0  0  0  0  0
    5.1951    0.0824   -1.9532 H   0  0  0  0  0  0  0  0  0  0  0  0
    3.9562   -1.5685    6.3465 H   0  0  0  0  0  0  0  0  0  0  0  0
  1  2  3  0
  1 41  1  0
  3  2  1  6
  3 16  1  0
  3  4  1  0
  3  5  1  0
  4 42  1  0
  5  6  1  0
  5 43  1  0
  5 44  1  0
  6  7  1  0
  6 45  1  0
  6 46  1  0
  7 16  1  0
  7  8  1  0
  7 47  1  1
  8 13  1  0
  8  9  1  0
  8 48  1  6
  9 10  1  0
  9 49  1  0
  9 50  1  0
 10 11  1  0
 10 51  1  0
 10 52  1  0
 11 40  1  0
 11 12  1  0
 11 53  1  1
 12 13  2  0
 12 18  1  0
 13 14  1  0
 14 15  1  0
 14 54  1  0
 14 55  1  0
 15 16  1  0
 15 56  1  0
 15 57  1  0
 16 17  1  1
 17 58  1  0
 17 59  1  0
 17 60  1  0
 18 40  1  0
 18 19  1  1
 18 20  1  0
 19 61  1  0
 19 62  1  0
 19 63  1  0
 20 21  1  0
 20 64  1  0
 20 65  1  0
 21 22  1  0
 21 23  1  0
 21 66  1  6
 22 67  1  0
 23 24  1  6
 23 25  1  0
 23 40  1  0
 24 68  1  0
 24 69  1  0
 24 70  1  0
 25 26  1  0
 25 71  1  0
 25 72  1  0
 26 39  2  0
 26 27  1  0
 27 28  2  0
 27 73  1  0
 28 29  1  0
 28 74  1  0
 29 30  1  0
 29 39  1  0
 30 31  2  0
 30 32  2  0
 30 33  1  0
 33 38  1  0
 33 34  2  0
 34 35  1  0
 34 75  1  0
 35 36  2  0
 35 76  1  0
 36 37  1  0
 36 77  1  0
 37 38  2  0
 37 78  1  0
 38 79  1  0
 40 80  1  1
M  END
>  <i_m_ct_stereo_status>  (38) 
1

>  <s_m_source_file>  (38) 
/var/tmp/pbs.5076255.sched01/tmpyb5u0fxv/0ob_ovo1_.sdf

>  <i_m_source_file_index>  (38) 
20

>  <i_lp_mmshare_version>  (38) 
48012

>  <i_f3d_flags>  (38) 
0

>  <s_epik_input>  (38) 
W0NIXSNDW0NAQF0xKFtPSF0pW0NIMl1bQ0gyXVtDQEhdKFtDQF0xMltDSDNdKVtDQEhdM0MoW0NIMl1bQ0gyXTIpPUM0W0NAQEhdKFtDSDJdW0NIMl0zKVtDQEBIXTVbQ0BAXTQoW0NIM10pW0NIMl1bQ0BASF0oW09IXSlbQ0BAXTUoW0NIM10pW0NIMl1jNltjSF1bY0hdbihuNilTKD1PKSg9TyljN1tjSF1bY0hdW2NIXVtjSF1bY0hdNw==

>  <s_epik_cmdline>  (38) 
J2VwaWtfcHl0aG9uJywgJy1waHQnLCAnMi4wJywgJy1waCcsICc3LjAnLCAnLXRuJywgJzgnLCAnLW1hJywgJzIwMCcsICctaW1hZScsICc8aW5maWxlLm1hZT4nLCAnLW9tYWUnLCAnPG91dGZpbGUubWFlPic=

>  <r_lp_tautomer_probability>  (38) 
1

>  <r_epik_Ionization_Penalty>  (38) 
1.378e-06

>  <r_epik_Ionization_Penalty_Charging>  (38) 
0

>  <r_epik_Ionization_Penalty_Neutral>  (38) 
1.378e-06

>  <r_epik_State_Penalty>  (38) 
-0

>  <r_epik_Charging_Adjusted_Penalty>  (38) 
0

>  <i_epik_Tot_Q>  (38) 
0

>  <i_epik_Tot_abs_Q>  (38) 
0

>  <s_lp_Force_Field>  (38) 
OPLS3e

>  <r_lp_Energy>  (38) 
67.8961

>  <b_lp_Chiralities_Consistent>  (38) 
1

>  <s_lp_Variant>  (38) 
13:0-1

>  <s_i_glide_gridfile>  (38) 
pfpi4k_grid

>  <i_i_glide_lignum>  (38) 
20

>  <i_i_glide_rotatable_bonds>  (38) 
7

>  <r_i_docking_score>  (38) 
-2.29608

>  <r_i_glide_ligand_efficiency>  (38) 
-0.0574021

>  <r_i_glide_ligand_efficiency_sa>  (38) 
-0.196312

>  <r_i_glide_ligand_efficiency_ln>  (38) 
-0.489687

>  <r_i_glide_gscore>  (38) 
-2.29608

>  <r_i_glide_lipo>  (38) 
-0.393393

>  <r_i_glide_hbond>  (38) 
0

>  <r_i_glide_metal>  (38) 
-0

>  <r_i_glide_rewards>  (38) 
-0.00578484

>  <r_i_glide_evdw>  (38) 
-26.7258

>  <r_i_glide_ecoul>  (38) 
-4.94378

>  <r_i_glide_erotb>  (38) 
0.250285

>  <r_i_glide_esite>  (38) 
-0.0693336

>  <r_i_glide_emodel>  (38) 
-36.8703

>  <r_i_glide_energy>  (38) 
-31.6696

>  <r_i_glide_einternal>  (38) 
3.07284

>  <r_i_glide_intrahb_reward>  (38) 
-0

>  <i_i_glide_confnum>  (38) 
5

>  <i_i_glide_posenum>  (38) 
32

>  <r_i_glide_eff_state_penalty>  (38) 
0

>  <ligand_id>  (38) 
13

>  <original_smiles>  (38) 
C#CC1(O)CCC2C3CCC4C(=C3CCC21C)C1(C)CC(O)C(C)(Cc2ccn(S(=O)(=O)c3ccccc3)n2)C41

>  <smiles>  (38) 
[H]C#CC1(O[H])C([H])([H])C([H])([H])C2([H])C3([H])C(=C4C([H])(C([H])([H])C3([H])[H])C3([H])C4(C([H])([H])[H])C([H])([H])C([H])(O[H])C3(C([H])([H])[H])C([H])([H])c3nn(S(=O)(=O)c4c([H])c([H])c([H])c([H])c4[H])c([H])c3[H])C([H])([H])C([H])([H])C12C([H])([H])[H]

$$$$
14:0:0
     RDKit          3D

 60 63  0  0  1  0  0  0  0  0999 V2000
    2.8804   -6.9652    4.8126 C   0  0  0  0  0  0  0  0  0  0  0  0
    1.6615   -6.2333    4.1865 C   0  0  0  0  0  0  0  0  0  0  0  0
    0.6665   -7.3161    3.6936 C   0  0  0  0  0  0  0  0  0  0  0  0
    0.9076   -5.4621    5.2938 C   0  0  0  0  0  0  0  0  0  0  0  0
    1.6324   -4.1974    5.7520 C   0  0  0  0  0  0  0  0  0  0  0  0
    1.8608   -3.2416    4.5730 C   0  0  0  0  0  0  0  0  0  0  0  0
    2.6705   -3.8595    3.3952 C   0  0  2  0  0  0  0  0  0  0  0  0
    4.1594   -3.9851    3.8080 C   0  0  0  0  0  0  0  0  0  0  0  0
    2.5645   -2.9227    2.1343 C   0  0  1  0  0  0  0  0  0  0  0  0
    3.0357   -1.4384    2.2932 C   0  0  0  0  0  0  0  0  0  0  0  0
    4.4968   -1.0440    1.9580 C   0  0  0  0  0  0  0  0  0  0  0  0
    5.3339   -1.9839    1.0639 C   0  0  0  0  0  0  0  0  0  0  0  0
    4.8246   -2.2939   -0.3746 C   0  0  2  0  0  0  0  0  0  0  0  0
    5.7311   -3.4442   -0.8866 C   0  0  0  0  0  0  0  0  0  0  0  0
    5.0036   -1.0596   -1.2734 C   0  0  0  0  0  0  0  0  0  0  0  0
    5.0132   -1.3248   -2.6729 O   0  0  0  0  0  0  0  0  0  0  0  0
    3.9384   -1.5989   -3.4307 C   0  0  0  0  0  0  0  0  0  0  0  0
    3.9726   -1.5674   -4.6568 O   0  0  0  0  0  0  0  0  0  0  0  0
    2.6339   -1.9416   -2.7250 C   0  0  0  0  0  0  0  0  0  0  0  0
    2.7499   -3.0944   -1.7126 C   0  0  0  0  0  0  0  0  0  0  0  0
    3.3243   -2.6631   -0.3527 C   0  0  1  0  0  0  0  0  0  0  0  0
    2.9841   -3.5957    0.8109 C   0  0  0  0  0  0  0  0  0  0  0  0
    3.0413   -4.9394    0.6690 C   0  0  0  0  0  0  0  0  0  0  0  0
    2.7030   -5.8470    1.7656 C   0  0  0  0  0  0  0  0  0  0  0  0
    2.9294   -7.0541    1.6716 O   0  0  0  0  0  0  0  0  0  0  0  0
    2.0121   -5.2370    3.0112 C   0  0  1  0  0  0  0  0  0  0  0  0
    2.5570   -7.7903    5.4542 H   0  0  0  0  0  0  0  0  0  0  0  0
    3.4844   -6.3209    5.4470 H   0  0  0  0  0  0  0  0  0  0  0  0
    3.5498   -7.3960    4.0670 H   0  0  0  0  0  0  0  0  0  0  0  0
   -0.1812   -6.8661    3.1768 H   0  0  0  0  0  0  0  0  0  0  0  0
    0.2649   -7.8986    4.5257 H   0  0  0  0  0  0  0  0  0  0  0  0
    1.1206   -8.0373    3.0141 H   0  0  0  0  0  0  0  0  0  0  0  0
   -0.0764   -5.1711    4.9292 H   0  0  0  0  0  0  0  0  0  0  0  0
    0.7286   -6.1093    6.1535 H   0  0  0  0  0  0  0  0  0  0  0  0
    1.0309   -3.6976    6.5125 H   0  0  0  0  0  0  0  0  0  0  0  0
    2.5720   -4.4415    6.2457 H   0  0  0  0  0  0  0  0  0  0  0  0
    0.8827   -2.9121    4.2191 H   0  0  0  0  0  0  0  0  0  0  0  0
    2.3599   -2.3553    4.9646 H   0  0  0  0  0  0  0  0  0  0  0  0
    4.7527   -4.5111    3.0595 H   0  0  0  0  0  0  0  0  0  0  0  0
    4.2978   -4.5084    4.7492 H   0  0  0  0  0  0  0  0  0  0  0  0
    4.6102   -3.0022    3.9497 H   0  0  0  0  0  0  0  0  0  0  0  0
    1.4939   -2.7992    1.9923 H   0  0  0  0  0  0  0  0  0  0  0  0
    2.3863   -0.8224    1.6682 H   0  0  0  0  0  0  0  0  0  0  0  0
    2.7986   -1.0636    3.2863 H   0  0  0  0  0  0  0  0  0  0  0  0
    4.4919   -0.0408    1.5278 H   0  0  0  0  0  0  0  0  0  0  0  0
    5.0306   -0.9442    2.9054 H   0  0  0  0  0  0  0  0  0  0  0  0
    6.3354   -1.5585    0.9993 H   0  0  0  0  0  0  0  0  0  0  0  0
    5.4878   -2.9179    1.6069 H   0  0  0  0  0  0  0  0  0  0  0  0
    5.5177   -3.7416   -1.9114 H   0  0  0  0  0  0  0  0  0  0  0  0
    5.6445   -4.3407   -0.2747 H   0  0  0  0  0  0  0  0  0  0  0  0
    6.7820   -3.1563   -0.8650 H   0  0  0  0  0  0  0  0  0  0  0  0
    4.3110   -0.2608   -0.9999 H   0  0  0  0  0  0  0  0  0  0  0  0
    5.9896   -0.6642   -1.0662 H   0  0  0  0  0  0  0  0  0  0  0  0
    2.2479   -1.0238   -2.2788 H   0  0  0  0  0  0  0  0  0  0  0  0
    1.9155   -2.2306   -3.4870 H   0  0  0  0  0  0  0  0  0  0  0  0
    1.7435   -3.4784   -1.5596 H   0  0  0  0  0  0  0  0  0  0  0  0
    3.3250   -3.9062   -2.1488 H   0  0  0  0  0  0  0  0  0  0  0  0
    2.7697   -1.7497   -0.1676 H   0  0  0  0  0  0  0  0  0  0  0  0
    3.3456   -5.3836   -0.2693 H   0  0  0  0  0  0  0  0  0  0  0  0
    1.0306   -4.9581    2.6302 H   0  0  0  0  0  0  0  0  0  0  0  0
  1  2  1  0
  1 27  1  0
  1 28  1  0
  1 29  1  0
  2 26  1  0
  2  3  1  0
  2  4  1  0
  3 30  1  0
  3 31  1  0
  3 32  1  0
  4  5  1  0
  4 33  1  0
  4 34  1  0
  5  6  1  0
  5 35  1  0
  5 36  1  0
  6  7  1  0
  6 37  1  0
  6 38  1  0
  7 26  1  0
  7  8  1  1
  7  9  1  0
  8 39  1  0
  8 40  1  0
  8 41  1  0
  9 22  1  0
  9 10  1  0
  9 42  1  6
 10 11  1  0
 10 43  1  0
 10 44  1  0
 11 12  1  0
 11 45  1  0
 11 46  1  0
 12 13  1  0
 12 47  1  0
 12 48  1  0
 13 21  1  0
 13 14  1  6
 13 15  1  0
 14 49  1  0
 14 50  1  0
 14 51  1  0
 15 16  1  0
 15 52  1  0
 15 53  1  0
 16 17  1  0
 17 18  2  0
 17 19  1  0
 19 20  1  0
 19 54  1  0
 19 55  1  0
 20 21  1  0
 20 56  1  0
 20 57  1  0
 21 22  1  0
 21 58  1  1
 22 23  2  0
 23 24  1  0
 23 59  1  0
 24 25  2  0
 24 26  1  0
 26 60  1  6
M  END
>  <i_m_ct_stereo_status>  (39) 
1

>  <s_m_source_file>  (39) 
/var/tmp/pbs.5076255.sched01/tmpyb5u0fxv/0ob_ovo1_.sdf

>  <i_m_source_file_index>  (39) 
21

>  <i_lp_mmshare_version>  (39) 
48012

>  <i_f3d_flags>  (39) 
0

>  <s_epik_input>  (39) 
W0NIMl0xW0NIMl1bQ0gyXUMoW0NIM10pKFtDSDNdKVtDQEBIXTJDKD1PKVtDSF09QyhbQ0BIXTNbQ0BAXTEyW0NIM10pW0NASF00W0NAXShbQ0gzXSkoW0NIMl1bQ0gyXVtDSDJdMylbQ0gyXU9DKD1PKVtDSDJdW0NIMl00

>  <s_epik_cmdline>  (39) 
J2VwaWtfcHl0aG9uJywgJy1waHQnLCAnMi4wJywgJy1waCcsICc3LjAnLCAnLXRuJywgJzgnLCAnLW1hJywgJzIwMCcsICctaW1hZScsICc8aW5maWxlLm1hZT4nLCAnLW9tYWUnLCAnPG91dGZpbGUubWFlPic=

>  <r_lp_tautomer_probability>  (39) 
1

>  <r_epik_Ionization_Penalty>  (39) 
0

>  <r_epik_Ionization_Penalty_Charging>  (39) 
0

>  <r_epik_Ionization_Penalty_Neutral>  (39) 
0

>  <r_epik_State_Penalty>  (39) 
-0

>  <r_epik_Charging_Adjusted_Penalty>  (39) 
0

>  <i_epik_Tot_Q>  (39) 
0

>  <i_epik_Tot_abs_Q>  (39) 
0

>  <s_epik_Chemistry_Notes>  (39) 
This compound has an ester and may undergo hydrolysis at high or low pH.

>  <s_lp_Force_Field>  (39) 
OPLS3e

>  <r_lp_Energy>  (39) 
65.0603

>  <b_lp_Chiralities_Consistent>  (39) 
1

>  <s_lp_Variant>  (39) 
14:0-1

>  <s_i_glide_gridfile>  (39) 
pfpi4k_grid

>  <i_i_glide_lignum>  (39) 
21

>  <i_i_glide_rotatable_bonds>  (39) 
0

>  <r_i_docking_score>  (39) 
-3.86487

>  <r_i_glide_ligand_efficiency>  (39) 
-0.148649

>  <r_i_glide_ligand_efficiency_sa>  (39) 
-0.440372

>  <r_i_glide_ligand_efficiency_ln>  (39) 
-0.907653

>  <r_i_glide_gscore>  (39) 
-3.86487

>  <r_i_glide_lipo>  (39) 
-0.249982

>  <r_i_glide_hbond>  (39) 
-0.32

>  <r_i_glide_metal>  (39) 
-0

>  <r_i_glide_rewards>  (39) 
-1.19566

>  <r_i_glide_evdw>  (39) 
-26.3102

>  <r_i_glide_ecoul>  (39) 
-5.17422

>  <r_i_glide_erotb>  (39) 
0

>  <r_i_glide_esite>  (39) 
-0.00758407

>  <r_i_glide_emodel>  (39) 
-39.1779

>  <r_i_glide_energy>  (39) 
-31.4844

>  <r_i_glide_einternal>  (39) 
0

>  <r_i_glide_intrahb_reward>  (39) 
-0

>  <i_i_glide_confnum>  (39) 
2

>  <i_i_glide_posenum>  (39) 
30

>  <r_i_glide_eff_state_penalty>  (39) 
0

>  <ligand_id>  (39) 
14

>  <original_smiles>  (39) 
CC1(C)CCCC2(C)C3CCCC4(C)COC(=O)CCC4C3=CC(=O)C12

>  <smiles>  (39) 
[H]C1=C2C3([H])C([H])([H])C([H])([H])C(=O)OC([H])([H])C3(C([H])([H])[H])C([H])([H])C([H])([H])C([H])([H])C2([H])C2(C([H])([H])[H])C([H])([H])C([H])([H])C([H])([H])C(C([H])([H])[H])(C([H])([H])[H])C2([H])C1=O

$$$$
14:0:1
     RDKit          3D

 60 63  0  0  1  0  0  0  0  0999 V2000
    3.6593   -7.6786    4.6672 C   0  0  0  0  0  0  0  0  0  0  0  0
    2.3541   -7.1617    3.9993 C   0  0  0  0  0  0  0  0  0  0  0  0
    1.6315   -8.3787    3.3669 C   0  0  0  0  0  0  0  0  0  0  0  0
    1.3950   -6.6393    5.0962 C   0  0  0  0  0  0  0  0  0  0  0  0
    1.8185   -5.2928    5.6842 C   0  0  0  0  0  0  0  0  0  0  0  0
    1.9168   -4.2261    4.5862 C   0  0  0  0  0  0  0  0  0  0  0  0
    2.9023   -4.5825    3.4342 C   0  0  2  0  0  0  0  0  0  0  0  0
    4.3592   -4.4358    3.9439 C   0  0  0  0  0  0  0  0  0  0  0  0
    2.6771   -3.5912    2.2314 C   0  0  1  0  0  0  0  0  0  0  0  0
    2.8277   -2.0598    2.5138 C   0  0  0  0  0  0  0  0  0  0  0  0
    4.1957   -1.3580    2.3118 C   0  0  0  0  0  0  0  0  0  0  0  0
    5.2582   -2.0398    1.4213 C   0  0  0  0  0  0  0  0  0  0  0  0
    4.9091   -2.3333   -0.0648 C   0  0  2  0  0  0  0  0  0  0  0  0
    6.0594   -3.2379   -0.5813 C   0  0  0  0  0  0  0  0  0  0  0  0
    4.8941   -1.0147   -0.8613 C   0  0  0  0  0  0  0  0  0  0  0  0
    5.0334   -1.1421   -2.2720 O   0  0  0  0  0  0  0  0  0  0  0  0
    4.0950   -1.6118   -3.1207 C   0  0  0  0  0  0  0  0  0  0  0  0
    4.2235   -1.5325   -4.3372 O   0  0  0  0  0  0  0  0  0  0  0  0
    2.8459   -2.2598   -2.5317 C   0  0  0  0  0  0  0  0  0  0  0  0
    3.1259   -3.4436   -1.5952 C   0  0  0  0  0  0  0  0  0  0  0  0
    3.5129   -2.9954   -0.1741 C   0  0  1  0  0  0  0  0  0  0  0  0
    3.2957   -4.0656    0.9016 C   0  0  0  0  0  0  0  0  0  0  0  0
    3.6369   -5.3498    0.6782 C   0  0  0  0  0  0  0  0  0  0  0  0
    3.4343   -6.3928    1.6870 C   0  0  0  0  0  0  0  0  0  0  0  0
    3.9194   -7.5134    1.5389 O   0  0  0  0  0  0  0  0  0  0  0  0
    2.5647   -6.0310    2.9154 C   0  0  1  0  0  0  0  0  0  0  0  0
    3.4727   -8.5957    5.2299 H   0  0  0  0  0  0  0  0  0  0  0  0
    4.0788   -6.9766    5.3826 H   0  0  0  0  0  0  0  0  0  0  0  0
    4.4434   -7.9096    3.9476 H   0  0  0  0  0  0  0  0  0  0  0  0
    0.7432   -8.0693    2.8189 H   0  0  0  0  0  0  0  0  0  0  0  0
    1.3072   -9.0896    4.1302 H   0  0  0  0  0  0  0  0  0  0  0  0
    2.2623   -8.9412    2.6798 H   0  0  0  0  0  0  0  0  0  0  0  0
    0.3955   -6.5256    4.6782 H   0  0  0  0  0  0  0  0  0  0  0  0
    1.3006   -7.3744    5.8976 H   0  0  0  0  0  0  0  0  0  0  0  0
    1.0820   -4.9836    6.4264 H   0  0  0  0  0  0  0  0  0  0  0  0
    2.7556   -5.3821    6.2279 H   0  0  0  0  0  0  0  0  0  0  0  0
    0.9141   -4.0718    4.1838 H   0  0  0  0  0  0  0  0  0  0  0  0
    2.1993   -3.2881    5.0664 H   0  0  0  0  0  0  0  0  0  0  0  0
    5.0900   -4.7748    3.2112 H   0  0  0  0  0  0  0  0  0  0  0  0
    4.5461   -4.9903    4.8600 H   0  0  0  0  0  0  0  0  0  0  0  0
    4.5911   -3.3982    4.1800 H   0  0  0  0  0  0  0  0  0  0  0  0
    1.6134   -3.6812    2.0307 H   0  0  0  0  0  0  0  0  0  0  0  0
    2.1055   -1.5375    1.8820 H   0  0  0  0  0  0  0  0  0  0  0  0
    2.4634   -1.8133    3.5082 H   0  0  0  0  0  0  0  0  0  0  0  0
    4.0142   -0.3445    1.9451 H   0  0  0  0  0  0  0  0  0  0  0  0
    4.6425   -1.2243    3.2989 H   0  0  0  0  0  0  0  0  0  0  0  0
    6.1549   -1.4190    1.4579 H   0  0  0  0  0  0  0  0  0  0  0  0
    5.5669   -2.9607    1.9141 H   0  0  0  0  0  0  0  0  0  0  0  0
    5.9732   -3.4917   -1.6340 H   0  0  0  0  0  0  0  0  0  0  0  0
    6.1199   -4.1774   -0.0323 H   0  0  0  0  0  0  0  0  0  0  0  0
    7.0277   -2.7495   -0.4614 H   0  0  0  0  0  0  0  0  0  0  0  0
    4.0437   -0.3861   -0.5964 H   0  0  0  0  0  0  0  0  0  0  0  0
    5.7728   -0.4457   -0.5653 H   0  0  0  0  0  0  0  0  0  0  0  0
    2.2623   -1.4913   -2.0334 H   0  0  0  0  0  0  0  0  0  0  0  0
    2.2342   -2.6116   -3.3658 H   0  0  0  0  0  0  0  0  0  0  0  0
    2.2055   -4.0211   -1.5318 H   0  0  0  0  0  0  0  0  0  0  0  0
    3.8718   -4.1121   -2.0264 H   0  0  0  0  0  0  0  0  0  0  0  0
    2.7685   -2.2294    0.0152 H   0  0  0  0  0  0  0  0  0  0  0  0
    4.0790   -5.6558   -0.2587 H   0  0  0  0  0  0  0  0  0  0  0  0
    1.5694   -5.9261    2.4812 H   0  0  0  0  0  0  0  0  0  0  0  0
  1  2  1  0
  1 27  1  0
  1 28  1  0
  1 29  1  0
  2 26  1  0
  2  3  1  0
  2  4  1  0
  3 30  1  0
  3 31  1  0
  3 32  1  0
  4  5  1  0
  4 33  1  0
  4 34  1  0
  5  6  1  0
  5 35  1  0
  5 36  1  0
  6  7  1  0
  6 37  1  0
  6 38  1  0
  7 26  1  0
  7  8  1  1
  7  9  1  0
  8 39  1  0
  8 40  1  0
  8 41  1  0
  9 22  1  0
  9 10  1  0
  9 42  1  6
 10 11  1  0
 10 43  1  0
 10 44  1  0
 11 12  1  0
 11 45  1  0
 11 46  1  0
 12 13  1  0
 12 47  1  0
 12 48  1  0
 13 21  1  0
 13 14  1  6
 13 15  1  0
 14 49  1  0
 14 50  1  0
 14 51  1  0
 15 16  1  0
 15 52  1  0
 15 53  1  0
 16 17  1  0
 17 18  2  0
 17 19  1  0
 19 20  1  0
 19 54  1  0
 19 55  1  0
 20 21  1  0
 20 56  1  0
 20 57  1  0
 21 22  1  0
 21 58  1  1
 22 23  2  0
 23 24  1  0
 23 59  1  0
 24 25  2  0
 24 26  1  0
 26 60  1  6
M  END
>  <i_m_ct_stereo_status>  (40) 
1

>  <s_m_source_file>  (40) 
/var/tmp/pbs.5076255.sched01/tmpyb5u0fxv/0ob_ovo1_.sdf

>  <i_m_source_file_index>  (40) 
21

>  <i_lp_mmshare_version>  (40) 
48012

>  <i_f3d_flags>  (40) 
0

>  <s_epik_input>  (40) 
W0NIMl0xW0NIMl1bQ0gyXUMoW0NIM10pKFtDSDNdKVtDQEBIXTJDKD1PKVtDSF09QyhbQ0BIXTNbQ0BAXTEyW0NIM10pW0NASF00W0NAXShbQ0gzXSkoW0NIMl1bQ0gyXVtDSDJdMylbQ0gyXU9DKD1PKVtDSDJdW0NIMl00

>  <s_epik_cmdline>  (40) 
J2VwaWtfcHl0aG9uJywgJy1waHQnLCAnMi4wJywgJy1waCcsICc3LjAnLCAnLXRuJywgJzgnLCAnLW1hJywgJzIwMCcsICctaW1hZScsICc8aW5maWxlLm1hZT4nLCAnLW9tYWUnLCAnPG91dGZpbGUubWFlPic=

>  <r_lp_tautomer_probability>  (40) 
1

>  <r_epik_Ionization_Penalty>  (40) 
0

>  <r_epik_Ionization_Penalty_Charging>  (40) 
0

>  <r_epik_Ionization_Penalty_Neutral>  (40) 
0

>  <r_epik_State_Penalty>  (40) 
-0

>  <r_epik_Charging_Adjusted_Penalty>  (40) 
0

>  <i_epik_Tot_Q>  (40) 
0

>  <i_epik_Tot_abs_Q>  (40) 
0

>  <s_epik_Chemistry_Notes>  (40) 
This compound has an ester and may undergo hydrolysis at high or low pH.

>  <s_lp_Force_Field>  (40) 
OPLS3e

>  <r_lp_Energy>  (40) 
65.0603

>  <b_lp_Chiralities_Consistent>  (40) 
1

>  <s_lp_Variant>  (40) 
14:0-1

>  <s_i_glide_gridfile>  (40) 
pfpi4k_grid

>  <i_i_glide_lignum>  (40) 
21

>  <i_i_glide_rotatable_bonds>  (40) 
0

>  <r_i_docking_score>  (40) 
-3.78571

>  <r_i_glide_ligand_efficiency>  (40) 
-0.145604

>  <r_i_glide_ligand_efficiency_sa>  (40) 
-0.431351

>  <r_i_glide_ligand_efficiency_ln>  (40) 
-0.889061

>  <r_i_glide_gscore>  (40) 
-3.78571

>  <r_i_glide_lipo>  (40) 
-0.260316

>  <r_i_glide_hbond>  (40) 
-0.32

>  <r_i_glide_metal>  (40) 
-0

>  <r_i_glide_rewards>  (40) 
-1.12479

>  <r_i_glide_evdw>  (40) 
-27.0292

>  <r_i_glide_ecoul>  (40) 
-4.86096

>  <r_i_glide_erotb>  (40) 
0

>  <r_i_glide_esite>  (40) 
0

>  <r_i_glide_emodel>  (40) 
-39.4901

>  <r_i_glide_energy>  (40) 
-31.8902

>  <r_i_glide_einternal>  (40) 
0

>  <r_i_glide_intrahb_reward>  (40) 
-0

>  <i_i_glide_confnum>  (40) 
2

>  <i_i_glide_posenum>  (40) 
16

>  <r_i_glide_eff_state_penalty>  (40) 
0

>  <ligand_id>  (40) 
14

>  <original_smiles>  (40) 
CC1(C)CCCC2(C)C3CCCC4(C)COC(=O)CCC4C3=CC(=O)C12

>  <smiles>  (40) 
[H]C1=C2C3([H])C([H])([H])C([H])([H])C(=O)OC([H])([H])C3(C([H])([H])[H])C([H])([H])C([H])([H])C([H])([H])C2([H])C2(C([H])([H])[H])C([H])([H])C([H])([H])C([H])([H])C(C([H])([H])[H])(C([H])([H])[H])C2([H])C1=O

$$$$
14:0:2
     RDKit          3D

 60 63  0  0  1  0  0  0  0  0999 V2000
    4.3446   -8.3819    3.6969 C   0  0  0  0  0  0  0  0  0  0  0  0
    2.9903   -7.9259    3.0856 C   0  0  0  0  0  0  0  0  0  0  0  0
    2.4092   -9.1202    2.2815 C   0  0  0  0  0  0  0  0  0  0  0  0
    1.9783   -7.6649    4.2257 C   0  0  0  0  0  0  0  0  0  0  0  0
    2.2475   -6.3722    4.9952 C   0  0  0  0  0  0  0  0  0  0  0  0
    2.2226   -5.1618    4.0533 C   0  0  0  0  0  0  0  0  0  0  0  0
    3.2408   -5.2461    2.8798 C   0  0  2  0  0  0  0  0  0  0  0  0
    4.6746   -5.0097    3.4267 C   0  0  0  0  0  0  0  0  0  0  0  0
    2.9044   -4.1342    1.8146 C   0  0  1  0  0  0  0  0  0  0  0  0
    2.8865   -2.6483    2.3027 C   0  0  0  0  0  0  0  0  0  0  0  0
    4.1715   -1.7800    2.2151 C   0  0  0  0  0  0  0  0  0  0  0  0
    5.3077   -2.2134    1.2604 C   0  0  0  0  0  0  0  0  0  0  0  0
    4.9967   -2.3365   -0.2577 C   0  0  2  0  0  0  0  0  0  0  0  0
    6.2365   -3.0361   -0.8726 C   0  0  0  0  0  0  0  0  0  0  0  0
    4.8341   -0.9380   -0.8782 C   0  0  0  0  0  0  0  0  0  0  0  0
    5.0019   -0.8744   -2.2913 O   0  0  0  0  0  0  0  0  0  0  0  0
    4.1077   -1.3125   -3.2085 C   0  0  0  0  0  0  0  0  0  0  0  0
    4.2219   -1.0678   -4.4065 O   0  0  0  0  0  0  0  0  0  0  0  0
    2.9314   -2.1540   -2.7203 C   0  0  0  0  0  0  0  0  0  0  0  0
    3.3413   -3.4103   -1.9427 C   0  0  0  0  0  0  0  0  0  0  0  0
    3.6828   -3.1251   -0.4696 C   0  0  1  0  0  0  0  0  0  0  0  0
    3.5913   -4.3504    0.4507 C   0  0  0  0  0  0  0  0  0  0  0  0
    4.0955   -5.5406    0.0805 C   0  0  0  0  0  0  0  0  0  0  0  0
    3.9967   -6.7330    0.9306 C   0  0  0  0  0  0  0  0  0  0  0  0
    4.5976   -7.7624    0.6405 O   0  0  0  0  0  0  0  0  0  0  0  0
    3.0737   -6.6405    2.1705 C   0  0  1  0  0  0  0  0  0  0  0  0
    4.2605   -9.3820    4.1283 H   0  0  0  0  0  0  0  0  0  0  0  0
    4.6824   -7.7386    4.5063 H   0  0  0  0  0  0  0  0  0  0  0  0
    5.1492   -8.4254    2.9641 H   0  0  0  0  0  0  0  0  0  0  0  0
    1.4883   -8.8400    1.7660 H   0  0  0  0  0  0  0  0  0  0  0  0
    2.1652   -9.9589    2.9374 H   0  0  0  0  0  0  0  0  0  0  0  0
    3.0969   -9.5130    1.5326 H   0  0  0  0  0  0  0  0  0  0  0  0
    0.9716   -7.6089    3.8115 H   0  0  0  0  0  0  0  0  0  0  0  0
    1.9666   -8.5073    4.9213 H   0  0  0  0  0  0  0  0  0  0  0  0
    1.4811   -6.2478    5.7595 H   0  0  0  0  0  0  0  0  0  0  0  0
    3.1896   -6.4273    5.5357 H   0  0  0  0  0  0  0  0  0  0  0  0
    1.2110   -5.0675    3.6566 H   0  0  0  0  0  0  0  0  0  0  0  0
    2.4014   -4.2723    4.6569 H   0  0  0  0  0  0  0  0  0  0  0  0
    5.4400   -5.1645    2.6665 H   0  0  0  0  0  0  0  0  0  0  0  0
    4.9209   -5.6602    4.2608 H   0  0  0  0  0  0  0  0  0  0  0  0
    4.7905   -3.9937    3.8016 H   0  0  0  0  0  0  0  0  0  0  0  0
    1.8618   -4.3150    1.5620 H   0  0  0  0  0  0  0  0  0  0  0  0
    2.1123   -2.1277    1.7343 H   0  0  0  0  0  0  0  0  0  0  0  0
    2.4976   -2.5787    3.3167 H   0  0  0  0  0  0  0  0  0  0  0  0
    3.8785   -0.7535    1.9837 H   0  0  0  0  0  0  0  0  0  0  0  0
    4.5992   -1.7314    3.2192 H   0  0  0  0  0  0  0  0  0  0  0  0
    6.1288   -1.5089    1.3938 H   0  0  0  0  0  0  0  0  0  0  0  0
    5.7147   -3.1536    1.6291 H   0  0  0  0  0  0  0  0  0  0  0  0
    6.1792   -3.1546   -1.9530 H   0  0  0  0  0  0  0  0  0  0  0  0
    6.3976   -4.0290   -0.4543 H   0  0  0  0  0  0  0  0  0  0  0  0
    7.1446   -2.4671   -0.6716 H   0  0  0  0  0  0  0  0  0  0  0  0
    3.9183   -0.4499   -0.5496 H   0  0  0  0  0  0  0  0  0  0  0  0
    5.6367   -0.3177   -0.4868 H   0  0  0  0  0  0  0  0  0  0  0  0
    2.2568   -1.5334   -2.1356 H   0  0  0  0  0  0  0  0  0  0  0  0
    2.3652   -2.4611   -3.6043 H   0  0  0  0  0  0  0  0  0  0  0  0
    2.4674   -4.0611   -1.9534 H   0  0  0  0  0  0  0  0  0  0  0  0
    4.1382   -3.9470   -2.4612 H   0  0  0  0  0  0  0  0  0  0  0  0
    2.8563   -2.4792   -0.1940 H   0  0  0  0  0  0  0  0  0  0  0  0
    4.5864   -5.6671   -0.8731 H   0  0  0  0  0  0  0  0  0  0  0  0
    2.0776   -6.5945    1.7290 H   0  0  0  0  0  0  0  0  0  0  0  0
  1  2  1  0
  1 27  1  0
  1 28  1  0
  1 29  1  0
  2 26  1  0
  2  3  1  0
  2  4  1  0
  3 30  1  0
  3 31  1  0
  3 32  1  0
  4  5  1  0
  4 33  1  0
  4 34  1  0
  5  6  1  0
  5 35  1  0
  5 36  1  0
  6  7  1  0
  6 37  1  0
  6 38  1  0
  7 26  1  0
  7  8  1  1
  7  9  1  0
  8 39  1  0
  8 40  1  0
  8 41  1  0
  9 22  1  0
  9 10  1  0
  9 42  1  6
 10 11  1  0
 10 43  1  0
 10 44  1  0
 11 12  1  0
 11 45  1  0
 11 46  1  0
 12 13  1  0
 12 47  1  0
 12 48  1  0
 13 21  1  0
 13 14  1  6
 13 15  1  0
 14 49  1  0
 14 50  1  0
 14 51  1  0
 15 16  1  0
 15 52  1  0
 15 53  1  0
 16 17  1  0
 17 18  2  0
 17 19  1  0
 19 20  1  0
 19 54  1  0
 19 55  1  0
 20 21  1  0
 20 56  1  0
 20 57  1  0
 21 22  1  0
 21 58  1  1
 22 23  2  0
 23 24  1  0
 23 59  1  0
 24 25  2  0
 24 26  1  0
 26 60  1  6
M  END
>  <i_m_ct_stereo_status>  (41) 
1

>  <s_m_source_file>  (41) 
/var/tmp/pbs.5076255.sched01/tmpyb5u0fxv/0ob_ovo1_.sdf

>  <i_m_source_file_index>  (41) 
21

>  <i_lp_mmshare_version>  (41) 
48012

>  <i_f3d_flags>  (41) 
0

>  <s_epik_input>  (41) 
W0NIMl0xW0NIMl1bQ0gyXUMoW0NIM10pKFtDSDNdKVtDQEBIXTJDKD1PKVtDSF09QyhbQ0BIXTNbQ0BAXTEyW0NIM10pW0NASF00W0NAXShbQ0gzXSkoW0NIMl1bQ0gyXVtDSDJdMylbQ0gyXU9DKD1PKVtDSDJdW0NIMl00

>  <s_epik_cmdline>  (41) 
J2VwaWtfcHl0aG9uJywgJy1waHQnLCAnMi4wJywgJy1waCcsICc3LjAnLCAnLXRuJywgJzgnLCAnLW1hJywgJzIwMCcsICctaW1hZScsICc8aW5maWxlLm1hZT4nLCAnLW9tYWUnLCAnPG91dGZpbGUubWFlPic=

>  <r_lp_tautomer_probability>  (41) 
1

>  <r_epik_Ionization_Penalty>  (41) 
0

>  <r_epik_Ionization_Penalty_Charging>  (41) 
0

>  <r_epik_Ionization_Penalty_Neutral>  (41) 
0

>  <r_epik_State_Penalty>  (41) 
-0

>  <r_epik_Charging_Adjusted_Penalty>  (41) 
0

>  <i_epik_Tot_Q>  (41) 
0

>  <i_epik_Tot_abs_Q>  (41) 
0

>  <s_epik_Chemistry_Notes>  (41) 
This compound has an ester and may undergo hydrolysis at high or low pH.

>  <s_lp_Force_Field>  (41) 
OPLS3e

>  <r_lp_Energy>  (41) 
65.0603

>  <b_lp_Chiralities_Consistent>  (41) 
1

>  <s_lp_Variant>  (41) 
14:0-1

>  <s_i_glide_gridfile>  (41) 
pfpi4k_grid

>  <i_i_glide_lignum>  (41) 
21

>  <i_i_glide_rotatable_bonds>  (41) 
0

>  <r_i_docking_score>  (41) 
-3.71916

>  <r_i_glide_ligand_efficiency>  (41) 
-0.143045

>  <r_i_glide_ligand_efficiency_sa>  (41) 
-0.423769

>  <r_i_glide_ligand_efficiency_ln>  (41) 
-0.873433

>  <r_i_glide_gscore>  (41) 
-3.71916

>  <r_i_glide_lipo>  (41) 
-0.145732

>  <r_i_glide_hbond>  (41) 
-0.191989

>  <r_i_glide_metal>  (41) 
-0

>  <r_i_glide_rewards>  (41) 
-1.22808

>  <r_i_glide_evdw>  (41) 
-29.111

>  <r_i_glide_ecoul>  (41) 
-4.65205

>  <r_i_glide_erotb>  (41) 
0

>  <r_i_glide_esite>  (41) 
0

>  <r_i_glide_emodel>  (41) 
-41.2332

>  <r_i_glide_energy>  (41) 
-33.763

>  <r_i_glide_einternal>  (41) 
0

>  <r_i_glide_intrahb_reward>  (41) 
-0

>  <i_i_glide_confnum>  (41) 
1

>  <i_i_glide_posenum>  (41) 
6

>  <r_i_glide_eff_state_penalty>  (41) 
0

>  <ligand_id>  (41) 
14

>  <original_smiles>  (41) 
CC1(C)CCCC2(C)C3CCCC4(C)COC(=O)CCC4C3=CC(=O)C12

>  <smiles>  (41) 
[H]C1=C2C3([H])C([H])([H])C([H])([H])C(=O)OC([H])([H])C3(C([H])([H])[H])C([H])([H])C([H])([H])C([H])([H])C2([H])C2(C([H])([H])[H])C([H])([H])C([H])([H])C([H])([H])C(C([H])([H])[H])(C([H])([H])[H])C2([H])C1=O

$$$$
15:0:0
     RDKit          3D

 34 36  0  0  1  0  0  0  0  0999 V2000
    0.1495   -9.4373    3.1704 C   0  0  0  0  0  0  0  0  0  0  0  0
    0.5921   -8.0758    2.7395 C   0  0  0  0  0  0  0  0  0  0  0  0
    1.5356   -7.2060    3.2047 C   0  0  0  0  0  0  0  0  0  0  0  0
    1.4464   -6.1008    2.3045 C   0  0  0  0  0  0  0  0  0  0  0  0
    2.2891   -4.8647    2.4935 C   0  0  0  0  0  0  0  0  0  0  0  0
    2.3327   -4.3348    3.6072 O   0  0  0  0  0  0  0  0  0  0  0  0
    2.8973   -4.3408    1.3997 N   0  0  0  0  0  0  0  0  0  0  0  0
    3.1872   -5.0875    0.1606 C   0  0  0  0  0  0  0  0  0  0  0  0
    4.6892   -4.9972   -0.1905 C   0  0  0  0  0  0  0  0  0  0  0  0
    5.1501   -3.5343   -0.3155 C   0  0  0  0  0  0  0  0  0  0  0  0
    4.7765   -2.7706    0.9719 C   0  0  0  0  0  0  0  0  0  0  0  0
    3.2839   -2.9233    1.3318 C   0  0  0  0  0  0  0  0  0  0  0  0
    4.5448   -2.9315   -1.4572 O   0  0  0  0  0  0  0  0  0  0  0  0
    5.4821   -2.8646   -2.4976 C   0  0  0  0  0  0  0  0  0  0  0  0
    6.7583   -3.0095   -1.8915 N   0  0  0  0  0  0  0  0  0  0  0  0
    6.6176   -3.4167   -0.6601 C   0  0  0  0  0  0  0  0  0  0  0  0
    7.5264   -3.6518    0.1294 O   0  0  0  0  0  0  0  0  0  0  0  0
    0.4833   -6.2658    1.4055 N   0  0  0  0  0  0  0  0  0  0  0  0
   -0.0591   -7.5307    1.6743 O   0  0  0  0  0  0  0  0  0  0  0  0
    0.7232   -9.7849    4.0290 H   0  0  0  0  0  0  0  0  0  0  0  0
    0.2798  -10.1546    2.3613 H   0  0  0  0  0  0  0  0  0  0  0  0
   -0.9034   -9.4310    3.4478 H   0  0  0  0  0  0  0  0  0  0  0  0
    2.1992   -7.3320    4.0519 H   0  0  0  0  0  0  0  0  0  0  0  0
    2.9454   -6.1465    0.2342 H   0  0  0  0  0  0  0  0  0  0  0  0
    2.5893   -4.6856   -0.6554 H   0  0  0  0  0  0  0  0  0  0  0  0
    5.2745   -5.5051    0.5851 H   0  0  0  0  0  0  0  0  0  0  0  0
    4.8840   -5.5355   -1.1184 H   0  0  0  0  0  0  0  0  0  0  0  0
    5.3590   -3.1603    1.8124 H   0  0  0  0  0  0  0  0  0  0  0  0
    5.0362   -1.7114    0.9031 H   0  0  0  0  0  0  0  0  0  0  0  0
    2.6834   -2.4201    0.5787 H   0  0  0  0  0  0  0  0  0  0  0  0
    3.0847   -2.3917    2.2649 H   0  0  0  0  0  0  0  0  0  0  0  0
    5.3488   -3.6590   -3.2251 H   0  0  0  0  0  0  0  0  0  0  0  0
    5.4100   -1.8889   -2.9458 H   0  0  0  0  0  0  0  0  0  0  0  0
    7.6303   -2.8882   -2.3899 H   0  0  0  0  0  0  0  0  0  0  0  0
  1  2  1  0
  1 20  1  0
  1 21  1  0
  1 22  1  0
  2 19  1  0
  2  3  2  0
  3  4  1  0
  3 23  1  0
  4  5  1  0
  4 18  2  0
  5  6  2  0
  5  7  1  0
  7 12  1  0
  7  8  1  0
  8  9  1  0
  8 24  1  0
  8 25  1  0
  9 10  1  0
  9 26  1  0
  9 27  1  0
 10 16  1  0
 10 11  1  0
 10 13  1  0
 11 12  1  0
 11 28  1  0
 11 29  1  0
 12 30  1  0
 12 31  1  0
 13 14  1  0
 14 15  1  0
 14 32  1  0
 14 33  1  0
 15 16  1  0
 15 34  1  0
 16 17  2  0
 18 19  1  0
M  END
>  <i_m_ct_stereo_status>  (42) 
1

>  <s_m_source_file>  (42) 
/var/tmp/pbs.5076255.sched01/tmpyb5u0fxv/0ob_ovo1_.sdf

>  <i_m_source_file_index>  (42) 
22

>  <i_lp_mmshare_version>  (42) 
48012

>  <i_f3d_flags>  (42) 
0

>  <s_epik_input>  (42) 
W0NIM11jMVtjSF1jKG5vMSlDKD1PKU4oW0NIMl1bQ0gyXTIpW0NIMl1bQ0gyXUMyM09bQ0gyXVtOSF1DMz1P

>  <s_epik_cmdline>  (42) 
J2VwaWtfcHl0aG9uJywgJy1waHQnLCAnMi4wJywgJy1waCcsICc3LjAnLCAnLXRuJywgJzgnLCAnLW1hJywgJzIwMCcsICctaW1hZScsICc8aW5maWxlLm1hZT4nLCAnLW9tYWUnLCAnPG91dGZpbGUubWFlPic=

>  <r_lp_tautomer_probability>  (42) 
1

>  <r_epik_Ionization_Penalty>  (42) 
6.98771e-07

>  <r_epik_Ionization_Penalty_Charging>  (42) 
0

>  <r_epik_Ionization_Penalty_Neutral>  (42) 
6.98771e-07

>  <r_epik_State_Penalty>  (42) 
-0

>  <r_epik_Charging_Adjusted_Penalty>  (42) 
0

>  <i_epik_Tot_Q>  (42) 
0

>  <i_epik_Tot_abs_Q>  (42) 
0

>  <s_epik_Chemistry_Notes>  (42) 
This compound contains an acetal/aminal-like group ( X-CH(R)-Y where X, Y are N, S, or O) that may be acid/base labile, releasing an aldehyde.

>  <s_lp_Force_Field>  (42) 
OPLS3e

>  <r_lp_Energy>  (42) 
7.62413

>  <b_lp_Chiralities_Consistent>  (42) 
1

>  <s_lp_Variant>  (42) 
15:0-1

>  <s_i_glide_gridfile>  (42) 
pfpi4k_grid

>  <i_i_glide_lignum>  (42) 
22

>  <i_i_glide_rotatable_bonds>  (42) 
2

>  <r_i_docking_score>  (42) 
-4.40875

>  <r_i_glide_ligand_efficiency>  (42) 
-0.23204

>  <r_i_glide_ligand_efficiency_sa>  (42) 
-0.619175

>  <r_i_glide_ligand_efficiency_ln>  (42) 
-1.11771

>  <r_i_glide_gscore>  (42) 
-4.40875

>  <r_i_glide_lipo>  (42) 
-0.0725521

>  <r_i_glide_hbond>  (42) 
-0.125051

>  <r_i_glide_metal>  (42) 
-0

>  <r_i_glide_rewards>  (42) 
-2.73227

>  <r_i_glide_evdw>  (42) 
-20.953

>  <r_i_glide_ecoul>  (42) 
-4.87794

>  <r_i_glide_erotb>  (42) 
0.505717

>  <r_i_glide_esite>  (42) 
-0.205251

>  <r_i_glide_emodel>  (42) 
-34.0104

>  <r_i_glide_energy>  (42) 
-25.8309

>  <r_i_glide_einternal>  (42) 
1.46486

>  <r_i_glide_intrahb_reward>  (42) 
-0

>  <i_i_glide_confnum>  (42) 
4

>  <i_i_glide_posenum>  (42) 
2

>  <r_i_glide_eff_state_penalty>  (42) 
0

>  <ligand_id>  (42) 
15

>  <original_smiles>  (42) 
Cc1cc(C(=O)N2CCC3(CC2)OCNC3=O)no1

>  <smiles>  (42) 
[H]c1c(C(=O)N2C([H])([H])C([H])([H])C3(OC([H])([H])N([H])C3=O)C([H])([H])C2([H])[H])noc1C([H])([H])[H]

$$$$
15:0:1
     RDKit          3D

 34 36  0  0  1  0  0  0  0  0999 V2000
    3.0259   -1.4872   -3.4419 C   0  0  0  0  0  0  0  0  0  0  0  0
    3.9016   -1.7048   -2.2608 C   0  0  0  0  0  0  0  0  0  0  0  0
    3.7433   -2.3489   -1.0630 C   0  0  0  0  0  0  0  0  0  0  0  0
    5.0004   -2.1785   -0.4161 C   0  0  0  0  0  0  0  0  0  0  0  0
    5.2295   -2.6614    0.9971 C   0  0  0  0  0  0  0  0  0  0  0  0
    5.7376   -1.9167    1.8361 O   0  0  0  0  0  0  0  0  0  0  0  0
    4.7493   -3.8833    1.3048 N   0  0  0  0  0  0  0  0  0  0  0  0
    4.9770   -5.0672    0.4692 C   0  0  0  0  0  0  0  0  0  0  0  0
    3.6558   -5.8162    0.2415 C   0  0  0  0  0  0  0  0  0  0  0  0
    2.9652   -6.1836    1.5713 C   0  0  0  0  0  0  0  0  0  0  0  0
    2.8435   -4.9111    2.4466 C   0  0  0  0  0  0  0  0  0  0  0  0
    4.1939   -4.1847    2.6287 C   0  0  0  0  0  0  0  0  0  0  0  0
    3.7202   -7.1798    2.2546 O   0  0  0  0  0  0  0  0  0  0  0  0
    3.0883   -8.4232    2.0867 C   0  0  0  0  0  0  0  0  0  0  0  0
    1.7624   -8.1394    1.6793 N   0  0  0  0  0  0  0  0  0  0  0  0
    1.6463   -6.8787    1.3537 C   0  0  0  0  0  0  0  0  0  0  0  0
    0.6323   -6.2986    0.9384 O   0  0  0  0  0  0  0  0  0  0  0  0
    5.8343   -1.4700   -1.1535 N   0  0  0  0  0  0  0  0  0  0  0  0
    5.1340   -1.1562   -2.3238 O   0  0  0  0  0  0  0  0  0  0  0  0
    2.0593   -1.9629   -3.2972 H   0  0  0  0  0  0  0  0  0  0  0  0
    3.4802   -1.9156   -4.3329 H   0  0  0  0  0  0  0  0  0  0  0  0
    2.8751   -0.4229   -3.6189 H   0  0  0  0  0  0  0  0  0  0  0  0
    2.8397   -2.8297   -0.7076 H   0  0  0  0  0  0  0  0  0  0  0  0
    5.4392   -4.8230   -0.4909 H   0  0  0  0  0  0  0  0  0  0  0  0
    5.6787   -5.7283    0.9743 H   0  0  0  0  0  0  0  0  0  0  0  0
    2.9898   -5.1826   -0.3484 H   0  0  0  0  0  0  0  0  0  0  0  0
    3.8456   -6.7146   -0.3407 H   0  0  0  0  0  0  0  0  0  0  0  0
    2.1533   -4.2153    1.9588 H   0  0  0  0  0  0  0  0  0  0  0  0
    2.3936   -5.1366    3.4171 H   0  0  0  0  0  0  0  0  0  0  0  0
    4.8735   -4.7967    3.2149 H   0  0  0  0  0  0  0  0  0  0  0  0
    4.0223   -3.2652    3.1929 H   0  0  0  0  0  0  0  0  0  0  0  0
    3.5695   -9.0141    1.3183 H   0  0  0  0  0  0  0  0  0  0  0  0
    3.0671   -8.9213    3.0386 H   0  0  0  0  0  0  0  0  0  0  0  0
    1.0375   -8.8405    1.6209 H   0  0  0  0  0  0  0  0  0  0  0  0
  1  2  1  0
  1 20  1  0
  1 21  1  0
  1 22  1  0
  2 19  1  0
  2  3  2  0
  3  4  1  0
  3 23  1  0
  4  5  1  0
  4 18  2  0
  5  6  2  0
  5  7  1  0
  7 12  1  0
  7  8  1  0
  8  9  1  0
  8 24  1  0
  8 25  1  0
  9 10  1  0
  9 26  1  0
  9 27  1  0
 10 16  1  0
 10 11  1  0
 10 13  1  0
 11 12  1  0
 11 28  1  0
 11 29  1  0
 12 30  1  0
 12 31  1  0
 13 14  1  0
 14 15  1  0
 14 32  1  0
 14 33  1  0
 15 16  1  0
 15 34  1  0
 16 17  2  0
 18 19  1  0
M  END
>  <i_m_ct_stereo_status>  (43) 
1

>  <s_m_source_file>  (43) 
/var/tmp/pbs.5076255.sched01/tmpyb5u0fxv/0ob_ovo1_.sdf

>  <i_m_source_file_index>  (43) 
22

>  <i_lp_mmshare_version>  (43) 
48012

>  <i_f3d_flags>  (43) 
0

>  <s_epik_input>  (43) 
W0NIM11jMVtjSF1jKG5vMSlDKD1PKU4oW0NIMl1bQ0gyXTIpW0NIMl1bQ0gyXUMyM09bQ0gyXVtOSF1DMz1P

>  <s_epik_cmdline>  (43) 
J2VwaWtfcHl0aG9uJywgJy1waHQnLCAnMi4wJywgJy1waCcsICc3LjAnLCAnLXRuJywgJzgnLCAnLW1hJywgJzIwMCcsICctaW1hZScsICc8aW5maWxlLm1hZT4nLCAnLW9tYWUnLCAnPG91dGZpbGUubWFlPic=

>  <r_lp_tautomer_probability>  (43) 
1

>  <r_epik_Ionization_Penalty>  (43) 
6.98771e-07

>  <r_epik_Ionization_Penalty_Charging>  (43) 
0

>  <r_epik_Ionization_Penalty_Neutral>  (43) 
6.98771e-07

>  <r_epik_State_Penalty>  (43) 
-0

>  <r_epik_Charging_Adjusted_Penalty>  (43) 
0

>  <i_epik_Tot_Q>  (43) 
0

>  <i_epik_Tot_abs_Q>  (43) 
0

>  <s_epik_Chemistry_Notes>  (43) 
This compound contains an acetal/aminal-like group ( X-CH(R)-Y where X, Y are N, S, or O) that may be acid/base labile, releasing an aldehyde.

>  <s_lp_Force_Field>  (43) 
OPLS3e

>  <r_lp_Energy>  (43) 
7.62413

>  <b_lp_Chiralities_Consistent>  (43) 
1

>  <s_lp_Variant>  (43) 
15:0-1

>  <s_i_glide_gridfile>  (43) 
pfpi4k_grid

>  <i_i_glide_lignum>  (43) 
22

>  <i_i_glide_rotatable_bonds>  (43) 
2

>  <r_i_docking_score>  (43) 
-3.96152

>  <r_i_glide_ligand_efficiency>  (43) 
-0.208501

>  <r_i_glide_ligand_efficiency_sa>  (43) 
-0.556365

>  <r_i_glide_ligand_efficiency_ln>  (43) 
-1.00433

>  <r_i_glide_gscore>  (43) 
-3.96152

>  <r_i_glide_lipo>  (43) 
-0.241352

>  <r_i_glide_hbond>  (43) 
-0.178773

>  <r_i_glide_metal>  (43) 
-0

>  <r_i_glide_rewards>  (43) 
-1.69422

>  <r_i_glide_evdw>  (43) 
-21.469

>  <r_i_glide_ecoul>  (43) 
-7.16701

>  <r_i_glide_erotb>  (43) 
0.505717

>  <r_i_glide_esite>  (43) 
-0.204391

>  <r_i_glide_emodel>  (43) 
-32.5373

>  <r_i_glide_energy>  (43) 
-28.6361

>  <r_i_glide_einternal>  (43) 
7.77636

>  <r_i_glide_intrahb_reward>  (43) 
-0

>  <i_i_glide_confnum>  (43) 
6

>  <i_i_glide_posenum>  (43) 
37

>  <r_i_glide_eff_state_penalty>  (43) 
0

>  <ligand_id>  (43) 
15

>  <original_smiles>  (43) 
Cc1cc(C(=O)N2CCC3(CC2)OCNC3=O)no1

>  <smiles>  (43) 
[H]c1c(C(=O)N2C([H])([H])C([H])([H])C3(OC([H])([H])N([H])C3=O)C([H])([H])C2([H])[H])noc1C([H])([H])[H]

$$$$
15:0:2
     RDKit          3D

 34 36  0  0  1  0  0  0  0  0999 V2000
    3.0762   -0.2142   -4.7264 C   0  0  0  0  0  0  0  0  0  0  0  0
    3.8107   -1.1616   -3.8454 C   0  0  0  0  0  0  0  0  0  0  0  0
    4.4201   -1.0563   -2.6267 C   0  0  0  0  0  0  0  0  0  0  0  0
    4.9432   -2.3594   -2.3922 C   0  0  0  0  0  0  0  0  0  0  0  0
    5.7387   -2.6620   -1.1499 C   0  0  0  0  0  0  0  0  0  0  0  0
    6.6093   -1.8544   -0.7902 O   0  0  0  0  0  0  0  0  0  0  0  0
    5.4841   -3.8214   -0.4845 N   0  0  0  0  0  0  0  0  0  0  0  0
    4.3101   -4.6817   -0.7127 C   0  0  0  0  0  0  0  0  0  0  0  0
    3.5598   -4.9656    0.5986 C   0  0  0  0  0  0  0  0  0  0  0  0
    4.4965   -5.5955    1.6421 C   0  0  0  0  0  0  0  0  0  0  0  0
    5.7378   -4.6921    1.8261 C   0  0  0  0  0  0  0  0  0  0  0  0
    6.4341   -4.3828    0.4879 C   0  0  0  0  0  0  0  0  0  0  0  0
    4.8709   -6.9087    1.2251 O   0  0  0  0  0  0  0  0  0  0  0  0
    4.1291   -7.8509    1.9569 C   0  0  0  0  0  0  0  0  0  0  0  0
    3.5982   -7.1584    3.0856 N   0  0  0  0  0  0  0  0  0  0  0  0
    3.7752   -5.8682    2.9423 C   0  0  0  0  0  0  0  0  0  0  0  0
    3.4363   -4.9988    3.7420 O   0  0  0  0  0  0  0  0  0  0  0  0
    4.7217   -3.1653   -3.4195 N   0  0  0  0  0  0  0  0  0  0  0  0
    3.9520   -2.4192   -4.3164 O   0  0  0  0  0  0  0  0  0  0  0  0
    3.0015    0.7743   -4.2753 H   0  0  0  0  0  0  0  0  0  0  0  0
    2.0691   -0.5789   -4.9192 H   0  0  0  0  0  0  0  0  0  0  0  0
    3.5797   -0.1094   -5.6875 H   0  0  0  0  0  0  0  0  0  0  0  0
    4.4837   -0.1871   -1.9954 H   0  0  0  0  0  0  0  0  0  0  0  0
    3.5723   -4.2531   -1.3871 H   0  0  0  0  0  0  0  0  0  0  0  0
    4.6383   -5.6203   -1.1525 H   0  0  0  0  0  0  0  0  0  0  0  0
    3.1395   -4.0297    0.9830 H   0  0  0  0  0  0  0  0  0  0  0  0
    2.7145   -5.6265    0.4009 H   0  0  0  0  0  0  0  0  0  0  0  0
    5.4355   -3.7396    2.2705 H   0  0  0  0  0  0  0  0  0  0  0  0
    6.4499   -5.1307    2.5282 H   0  0  0  0  0  0  0  0  0  0  0  0
    6.8590   -5.3002    0.0877 H   0  0  0  0  0  0  0  0  0  0  0  0
    7.2826   -3.7236    0.6750 H   0  0  0  0  0  0  0  0  0  0  0  0
    3.2941   -8.2629    1.3907 H   0  0  0  0  0  0  0  0  0  0  0  0
    4.7929   -8.6341    2.3064 H   0  0  0  0  0  0  0  0  0  0  0  0
    3.1852   -7.6203    3.8815 H   0  0  0  0  0  0  0  0  0  0  0  0
  1  2  1  0
  1 20  1  0
  1 21  1  0
  1 22  1  0
  2 19  1  0
  2  3  2  0
  3  4  1  0
  3 23  1  0
  4  5  1  0
  4 18  2  0
  5  6  2  0
  5  7  1  0
  7 12  1  0
  7  8  1  0
  8  9  1  0
  8 24  1  0
  8 25  1  0
  9 10  1  0
  9 26  1  0
  9 27  1  0
 10 16  1  0
 10 11  1  0
 10 13  1  0
 11 12  1  0
 11 28  1  0
 11 29  1  0
 12 30  1  0
 12 31  1  0
 13 14  1  0
 14 15  1  0
 14 32  1  0
 14 33  1  0
 15 16  1  0
 15 34  1  0
 16 17  2  0
 18 19  1  0
M  END
>  <i_m_ct_stereo_status>  (44) 
1

>  <s_m_source_file>  (44) 
/var/tmp/pbs.5076255.sched01/tmpyb5u0fxv/0ob_ovo1_.sdf

>  <i_m_source_file_index>  (44) 
22

>  <i_lp_mmshare_version>  (44) 
48012

>  <i_f3d_flags>  (44) 
0

>  <s_epik_input>  (44) 
W0NIM11jMVtjSF1jKG5vMSlDKD1PKU4oW0NIMl1bQ0gyXTIpW0NIMl1bQ0gyXUMyM09bQ0gyXVtOSF1DMz1P

>  <s_epik_cmdline>  (44) 
J2VwaWtfcHl0aG9uJywgJy1waHQnLCAnMi4wJywgJy1waCcsICc3LjAnLCAnLXRuJywgJzgnLCAnLW1hJywgJzIwMCcsICctaW1hZScsICc8aW5maWxlLm1hZT4nLCAnLW9tYWUnLCAnPG91dGZpbGUubWFlPic=

>  <r_lp_tautomer_probability>  (44) 
1

>  <r_epik_Ionization_Penalty>  (44) 
6.98771e-07

>  <r_epik_Ionization_Penalty_Charging>  (44) 
0

>  <r_epik_Ionization_Penalty_Neutral>  (44) 
6.98771e-07

>  <r_epik_State_Penalty>  (44) 
-0

>  <r_epik_Charging_Adjusted_Penalty>  (44) 
0

>  <i_epik_Tot_Q>  (44) 
0

>  <i_epik_Tot_abs_Q>  (44) 
0

>  <s_epik_Chemistry_Notes>  (44) 
This compound contains an acetal/aminal-like group ( X-CH(R)-Y where X, Y are N, S, or O) that may be acid/base labile, releasing an aldehyde.

>  <s_lp_Force_Field>  (44) 
OPLS3e

>  <r_lp_Energy>  (44) 
7.62413

>  <b_lp_Chiralities_Consistent>  (44) 
1

>  <s_lp_Variant>  (44) 
15:0-1

>  <s_i_glide_gridfile>  (44) 
pfpi4k_grid

>  <i_i_glide_lignum>  (44) 
22

>  <i_i_glide_rotatable_bonds>  (44) 
2

>  <r_i_docking_score>  (44) 
-3.94877

>  <r_i_glide_ligand_efficiency>  (44) 
-0.20783

>  <r_i_glide_ligand_efficiency_sa>  (44) 
-0.554574

>  <r_i_glide_ligand_efficiency_ln>  (44) 
-1.0011

>  <r_i_glide_gscore>  (44) 
-3.94877

>  <r_i_glide_lipo>  (44) 
-0.712474

>  <r_i_glide_hbond>  (44) 
-0.16

>  <r_i_glide_metal>  (44) 
-0

>  <r_i_glide_rewards>  (44) 
-1.68123

>  <r_i_glide_evdw>  (44) 
-24.1525

>  <r_i_glide_ecoul>  (44) 
-4.1672

>  <r_i_glide_erotb>  (44) 
0.505717

>  <r_i_glide_esite>  (44) 
-0.0680825

>  <r_i_glide_emodel>  (44) 
-35.6849

>  <r_i_glide_energy>  (44) 
-28.3197

>  <r_i_glide_einternal>  (44) 
1.3637

>  <r_i_glide_intrahb_reward>  (44) 
-0

>  <i_i_glide_confnum>  (44) 
1

>  <i_i_glide_posenum>  (44) 
36

>  <r_i_glide_eff_state_penalty>  (44) 
0

>  <ligand_id>  (44) 
15

>  <original_smiles>  (44) 
Cc1cc(C(=O)N2CCC3(CC2)OCNC3=O)no1

>  <smiles>  (44) 
[H]c1c(C(=O)N2C([H])([H])C([H])([H])C3(OC([H])([H])N([H])C3=O)C([H])([H])C2([H])[H])noc1C([H])([H])[H]

$$$$
16:0:0
     RDKit          3D

 52 55  0  0  1  0  0  0  0  0999 V2000
    8.3462   -6.2686    2.6436 C   0  0  0  0  0  0  0  0  0  0  0  0
    7.9227   -5.6450    1.3143 C   0  0  0  0  0  0  0  0  0  0  0  0
    8.6707   -5.6639    0.3446 O   0  0  0  0  0  0  0  0  0  0  0  0
    6.6843   -5.0884    1.2868 O   0  0  0  0  0  0  0  0  0  0  0  0
    5.8852   -4.9115    2.4495 C   0  0  2  0  0  0  0  0  0  0  0  0
    4.8860   -6.0698    2.5579 C   0  0  0  0  0  0  0  0  0  0  0  0
    3.5736   -5.5710    1.9367 C   0  0  0  0  0  0  0  0  0  0  0  0
    3.7731   -4.0800    1.5545 C   0  0  2  0  0  0  0  0  0  0  0  0
    3.8748   -3.8877    0.0093 C   0  0  1  0  0  0  0  0  0  0  0  0
    2.4793   -4.1043   -0.5903 C   0  0  0  0  0  0  0  0  0  0  0  0
    2.2245   -3.4451   -1.9212 C   0  0  0  0  0  0  0  0  0  0  0  0
    3.0861   -2.6428   -2.5606 C   0  0  0  0  0  0  0  0  0  0  0  0
    2.7526   -2.0750   -3.9266 C   0  0  0  0  0  0  0  0  0  0  0  0
    3.1583   -0.6094   -4.1034 C   0  0  0  0  0  0  0  0  0  0  0  0
    2.6929    0.0504   -5.0309 O   0  0  0  0  0  0  0  0  0  0  0  0
    4.1422   -0.0519   -3.1928 C   0  0  0  0  0  0  0  0  0  0  0  0
    4.7191   -0.7921   -2.2324 C   0  0  0  0  0  0  0  0  0  0  0  0
    4.4378   -2.2649   -1.9443 C   0  0  2  0  0  0  0  0  0  0  0  0
    5.5078   -3.1039   -2.6683 C   0  0  0  0  0  0  0  0  0  0  0  0
    4.4365   -2.5025   -0.3975 C   0  0  2  0  0  0  0  0  0  0  0  0
    5.8200   -2.3293    0.2470 C   0  0  0  0  0  0  0  0  0  0  0  0
    5.7238   -2.3892    1.7649 C   0  0  0  0  0  0  0  0  0  0  0  0
    5.0152   -3.6350    2.3563 C   0  0  2  0  0  0  0  0  0  0  0  0
    4.6051   -3.2602    3.8020 C   0  0  0  0  0  0  0  0  0  0  0  0
    7.6283   -7.0235    2.9622 H   0  0  0  0  0  0  0  0  0  0  0  0
    8.4358   -5.5120    3.4239 H   0  0  0  0  0  0  0  0  0  0  0  0
    9.3172   -6.7642    2.5510 H   0  0  0  0  0  0  0  0  0  0  0  0
    6.4922   -4.8425    3.3479 H   0  0  0  0  0  0  0  0  0  0  0  0
    5.2553   -6.9881    2.0921 H   0  0  0  0  0  0  0  0  0  0  0  0
    4.7307   -6.3014    3.6121 H   0  0  0  0  0  0  0  0  0  0  0  0
    3.3089   -6.1930    1.0829 H   0  0  0  0  0  0  0  0  0  0  0  0
    2.7754   -5.6716    2.6745 H   0  0  0  0  0  0  0  0  0  0  0  0
    2.9234   -3.4932    1.9232 H   0  0  0  0  0  0  0  0  0  0  0  0
    4.5456   -4.6488   -0.3961 H   0  0  0  0  0  0  0  0  0  0  0  0
    2.2699   -5.1722   -0.6975 H   0  0  0  0  0  0  0  0  0  0  0  0
    1.7650   -3.6762    0.0952 H   0  0  0  0  0  0  0  0  0  0  0  0
    1.2716   -3.6742   -2.3742 H   0  0  0  0  0  0  0  0  0  0  0  0
    3.2726   -2.6637   -4.6865 H   0  0  0  0  0  0  0  0  0  0  0  0
    1.6861   -2.1888   -4.1206 H   0  0  0  0  0  0  0  0  0  0  0  0
    4.4064    0.9847   -3.3269 H   0  0  0  0  0  0  0  0  0  0  0  0
    5.4495   -0.3027   -1.6098 H   0  0  0  0  0  0  0  0  0  0  0  0
    5.4279   -2.9701   -3.7486 H   0  0  0  0  0  0  0  0  0  0  0  0
    5.3755   -4.1707   -2.4728 H   0  0  0  0  0  0  0  0  0  0  0  0
    6.5198   -2.8218   -2.3806 H   0  0  0  0  0  0  0  0  0  0  0  0
    3.7831   -1.7469    0.0362 H   0  0  0  0  0  0  0  0  0  0  0  0
    6.5120   -3.0866   -0.1211 H   0  0  0  0  0  0  0  0  0  0  0  0
    6.2755   -1.3764   -0.0145 H   0  0  0  0  0  0  0  0  0  0  0  0
    6.7359   -2.3422    2.1321 H   0  0  0  0  0  0  0  0  0  0  0  0
    5.2229   -1.4814    2.1046 H   0  0  0  0  0  0  0  0  0  0  0  0
    3.9421   -2.3923    3.8134 H   0  0  0  0  0  0  0  0  0  0  0  0
    5.4767   -3.0106    4.4076 H   0  0  0  0  0  0  0  0  0  0  0  0
    4.0814   -4.0722    4.3098 H   0  0  0  0  0  0  0  0  0  0  0  0
  1  2  1  0
  1 25  1  0
  1 26  1  0
  1 27  1  0
  2  3  2  0
  2  4  1  0
  4  5  1  0
  5 23  1  0
  5  6  1  0
  5 28  1  1
  6  7  1  0
  6 29  1  0
  6 30  1  0
  7  8  1  0
  7 31  1  0
  7 32  1  0
  8 23  1  0
  8  9  1  0
  8 33  1  1
  9 20  1  0
  9 10  1  0
  9 34  1  6
 10 11  1  0
 10 35  1  0
 10 36  1  0
 11 12  2  0
 11 37  1  0
 12 18  1  0
 12 13  1  0
 13 14  1  0
 13 38  1  0
 13 39  1  0
 14 15  2  0
 14 16  1  0
 16 17  2  0
 16 40  1  0
 17 18  1  0
 17 41  1  0
 18 19  1  6
 18 20  1  0
 19 42  1  0
 19 43  1  0
 19 44  1  0
 20 21  1  0
 20 45  1  1
 21 22  1  0
 21 46  1  0
 21 47  1  0
 22 23  1  0
 22 48  1  0
 22 49  1  0
 23 24  1  1
 24 50  1  0
 24 51  1  0
 24 52  1  0
M  END
>  <i_m_ct_stereo_status>  (45) 
1

>  <s_m_source_file>  (45) 
/var/tmp/pbs.5076255.sched01/tmpyb5u0fxv/0ob_ovo1_.sdf

>  <i_m_source_file_index>  (45) 
23

>  <i_lp_mmshare_version>  (45) 
48012

>  <i_f3d_flags>  (45) 
0

>  <s_epik_input>  (45) 
W0NIM11DKD1PKU9bQ0BIXShbQ0gyXVtDSDJdMSlbQ0BAXShbQ0gzXSkoW0NIMl1bQ0gyXVtDQEhdMjMpW0NASF0xW0NASF0yW0NIMl1bQ0hdPUMoW0NAXTM0W0NIM10pW0NIMl1DKD1PKVtDSF09W0NIXTQ=

>  <s_epik_cmdline>  (45) 
J2VwaWtfcHl0aG9uJywgJy1waHQnLCAnMi4wJywgJy1waCcsICc3LjAnLCAnLXRuJywgJzgnLCAnLW1hJywgJzIwMCcsICctaW1hZScsICc8aW5maWxlLm1hZT4nLCAnLW9tYWUnLCAnPG91dGZpbGUubWFlPic=

>  <r_lp_tautomer_probability>  (45) 
1

>  <r_epik_Ionization_Penalty>  (45) 
0

>  <r_epik_Ionization_Penalty_Charging>  (45) 
0

>  <r_epik_Ionization_Penalty_Neutral>  (45) 
0

>  <r_epik_State_Penalty>  (45) 
-0

>  <r_epik_Charging_Adjusted_Penalty>  (45) 
0

>  <i_epik_Tot_Q>  (45) 
0

>  <i_epik_Tot_abs_Q>  (45) 
0

>  <s_epik_Chemistry_Notes>  (45) 
This compound has an ester and may undergo hydrolysis at high or low pH.

>  <s_lp_Force_Field>  (45) 
OPLS3e

>  <r_lp_Energy>  (45) 
42.8894

>  <b_lp_Chiralities_Consistent>  (45) 
1

>  <s_lp_Variant>  (45) 
16:0-1

>  <s_i_glide_gridfile>  (45) 
pfpi4k_grid

>  <i_i_glide_lignum>  (45) 
23

>  <i_i_glide_rotatable_bonds>  (45) 
2

>  <r_i_docking_score>  (45) 
-3.79947

>  <r_i_glide_ligand_efficiency>  (45) 
-0.158311

>  <r_i_glide_ligand_efficiency_sa>  (45) 
-0.456648

>  <r_i_glide_ligand_efficiency_ln>  (45) 
-0.909387

>  <r_i_glide_gscore>  (45) 
-3.79947

>  <r_i_glide_lipo>  (45) 
-0.831103

>  <r_i_glide_hbond>  (45) 
0

>  <r_i_glide_metal>  (45) 
-0

>  <r_i_glide_rewards>  (45) 
-1.58057

>  <r_i_glide_evdw>  (45) 
-28.6595

>  <r_i_glide_ecoul>  (45) 
-0.859463

>  <r_i_glide_erotb>  (45) 
0.174104

>  <r_i_glide_esite>  (45) 
0

>  <r_i_glide_emodel>  (45) 
-32.2096

>  <r_i_glide_energy>  (45) 
-29.519

>  <r_i_glide_einternal>  (45) 
5.5397

>  <r_i_glide_intrahb_reward>  (45) 
-0

>  <i_i_glide_confnum>  (45) 
2

>  <i_i_glide_posenum>  (45) 
30

>  <r_i_glide_eff_state_penalty>  (45) 
0

>  <ligand_id>  (45) 
16

>  <original_smiles>  (45) 
CC(=O)OC1CCC2C3CC=C4CC(=O)C=CC4(C)C3CCC12C

>  <smiles>  (45) 
[H]C1=C([H])C2(C([H])([H])[H])C(=C([H])C([H])([H])C3([H])C2([H])C([H])([H])C([H])([H])C2(C([H])([H])[H])C([H])(OC(=O)C([H])([H])[H])C([H])([H])C([H])([H])C32[H])C([H])([H])C1=O

$$$$
17:0:0
     RDKit          3D

 54 59  0  0  1  0  0  0  0  0999 V2000
    5.2977   -8.8830    2.6662 C   0  0  0  0  0  0  0  0  0  0  0  0
    3.8104   -8.4997    2.6298 C   0  0  0  0  0  0  0  0  0  0  0  0
    3.0166   -9.1155    1.4681 C   0  0  0  0  0  0  0  0  0  0  0  0
    3.5807   -7.0457    2.7966 N   0  0  0  0  0  0  0  0  0  0  0  0
    3.0585   -6.3623    3.8701 C   0  0  0  0  0  0  0  0  0  0  0  0
    2.5707   -6.9274    5.2031 C   0  0  1  0  0  0  0  0  0  0  0  0
    3.8215   -7.3404    6.0113 C   0  0  0  0  0  0  0  0  0  0  0  0
    1.8024   -5.8038    5.9659 C   0  0  2  0  0  0  0  0  0  0  0  0
    0.6526   -6.0927    6.9538 C   0  0  1  0  0  0  0  0  0  0  0  0
    0.1181   -4.7887    7.5558 C   0  0  0  0  0  0  0  0  0  0  0  0
    0.0487   -3.9877    6.2651 C   0  0  0  0  0  0  0  0  0  0  0  0
    0.5825   -5.0745    5.3346 C   0  0  2  0  0  0  0  0  0  0  0  0
   -0.0733   -6.4265    5.6230 C   0  0  1  0  0  0  0  0  0  0  0  0
    0.2912   -7.6257    4.7150 C   0  0  2  0  0  0  0  0  0  0  0  0
   -0.5070   -8.8851    5.0408 C   0  0  0  0  0  0  0  0  0  0  0  0
    0.2432   -9.5975    6.0073 O   0  0  0  0  0  0  0  0  0  0  0  0
    1.5373   -9.1022    6.0251 C   0  0  1  0  0  0  0  0  0  0  0  0
    2.4735  -10.1414    5.8296 O   0  0  0  0  0  0  0  0  0  0  0  0
    1.6444   -8.0726    5.0056 N   0  0  0  0  0  0  0  0  0  0  0  0
    3.1549   -5.0320    3.5670 N   0  0  0  0  0  0  0  0  0  0  0  0
    3.6640   -4.8618    2.2844 C   0  0  0  0  0  0  0  0  0  0  0  0
    3.8893   -3.6961    1.5558 C   0  0  0  0  0  0  0  0  0  0  0  0
    4.3872   -3.8552    0.2441 C   0  0  0  0  0  0  0  0  0  0  0  0
    4.6551   -5.1250   -0.2782 C   0  0  0  0  0  0  0  0  0  0  0  0
    4.4756   -6.2958    0.4951 C   0  0  0  0  0  0  0  0  0  0  0  0
    3.9471   -6.1427    1.7796 C   0  0  0  0  0  0  0  0  0  0  0  0
    5.3915   -9.9670    2.7577 H   0  0  0  0  0  0  0  0  0  0  0  0
    5.7964   -8.4565    3.5385 H   0  0  0  0  0  0  0  0  0  0  0  0
    5.8393   -8.5707    1.7724 H   0  0  0  0  0  0  0  0  0  0  0  0
    3.4054   -8.9815    3.5120 H   0  0  0  0  0  0  0  0  0  0  0  0
    3.0711  -10.2054    1.5112 H   0  0  0  0  0  0  0  0  0  0  0  0
    3.3963   -8.8335    0.4879 H   0  0  0  0  0  0  0  0  0  0  0  0
    1.9652   -8.8288    1.5386 H   0  0  0  0  0  0  0  0  0  0  0  0
    4.5100   -6.5026    6.0920 H   0  0  0  0  0  0  0  0  0  0  0  0
    4.3654   -8.1516    5.5311 H   0  0  0  0  0  0  0  0  0  0  0  0
    3.5916   -7.6505    7.0304 H   0  0  0  0  0  0  0  0  0  0  0  0
    2.4882   -5.0607    6.3701 H   0  0  0  0  0  0  0  0  0  0  0  0
    0.8232   -6.9170    7.6552 H   0  0  0  0  0  0  0  0  0  0  0  0
   -0.8568   -4.9255    8.0247 H   0  0  0  0  0  0  0  0  0  0  0  0
    0.8056   -4.3518    8.2821 H   0  0  0  0  0  0  0  0  0  0  0  0
   -0.9678   -3.6888    6.0098 H   0  0  0  0  0  0  0  0  0  0  0  0
    0.6894   -3.1058    6.2674 H   0  0  0  0  0  0  0  0  0  0  0  0
    0.6274   -4.8449    4.2668 H   0  0  0  0  0  0  0  0  0  0  0  0
   -1.1455   -6.2830    5.7163 H   0  0  0  0  0  0  0  0  0  0  0  0
    0.1710   -7.3592    3.6582 H   0  0  0  0  0  0  0  0  0  0  0  0
   -1.4873   -8.6731    5.4488 H   0  0  0  0  0  0  0  0  0  0  0  0
   -0.6661   -9.4697    4.1389 H   0  0  0  0  0  0  0  0  0  0  0  0
    1.6812   -8.7110    7.0292 H   0  0  0  0  0  0  0  0  0  0  0  0
    2.2205  -10.8733    6.3801 H   0  0  0  0  0  0  0  0  0  0  0  0
    3.6693   -2.7148    1.9424 H   0  0  0  0  0  0  0  0  0  0  0  0
    4.5486   -2.9868   -0.3785 H   0  0  0  0  0  0  0  0  0  0  0  0
    4.9923   -5.2181   -1.3016 H   0  0  0  0  0  0  0  0  0  0  0  0
    4.7047   -7.2567    0.0764 H   0  0  0  0  0  0  0  0  0  0  0  0
    2.8850   -4.2958    4.2098 H   0  0  0  0  0  0  0  0  0  0  0  0
  1  2  1  0
  1 27  1  0
  1 28  1  0
  1 29  1  0
  2  3  1  0
  2  4  1  0
  2 30  1  0
  3 31  1  0
  3 32  1  0
  3 33  1  0
  4 26  1  0
  4  5  1  0
  5  6  1  0
  5 20  2  0
  6 19  1  0
  6  7  1  1
  6  8  1  0
  7 34  1  0
  7 35  1  0
  7 36  1  0
  8 12  1  0
  8  9  1  0
  8 37  1  1
  9 13  1  0
  9 10  1  0
  9 38  1  1
 10 11  1  0
 10 39  1  0
 10 40  1  0
 11 12  1  0
 11 41  1  0
 11 42  1  0
 12 13  1  0
 12 43  1  6
 13 14  1  0
 13 44  1  1
 14 19  1  0
 14 15  1  0
 14 45  1  6
 15 16  1  0
 15 46  1  0
 15 47  1  0
 16 17  1  0
 17 18  1  0
 17 19  1  0
 17 48  1  1
 18 49  1  0
 20 21  1  0
 20 54  1  0
 21 26  2  0
 21 22  1  0
 22 23  2  0
 22 50  1  0
 23 24  1  0
 23 51  1  0
 24 25  2  0
 24 52  1  0
 25 26  1  0
 25 53  1  0
M  CHG  1  20   1
M  END
>  <i_m_ct_stereo_status>  (46) 
1

>  <s_m_source_file>  (46) 
/var/tmp/pbs.5076255.sched01/tmpyb5u0fxv/0ob_ovo1_.sdf

>  <i_m_source_file_index>  (46) 
24

>  <i_lp_mmshare_version>  (46) 
48012

>  <i_f3d_flags>  (46) 
0

>  <s_epik_input>  (46) 
W2NIXTFbY0hdW2NIXVtjSF1jKGMxMiluKFtDSF0oW0NIM10pW0NIM10pYyhuMilbQ0BdMyhbQ0gzXSlOKFtDQEhdKFtPSF0pT1tDSDJdNClbQ0BASF00W0NAQEhdKFtDQEhdNVtDQEBIXTM2KVtDQEhdNltDSDJdW0NIMl01

>  <s_epik_cmdline>  (46) 
J2VwaWtfcHl0aG9uJywgJy1waHQnLCAnMi4wJywgJy1waCcsICc3LjAnLCAnLXRuJywgJzgnLCAnLW1hJywgJzIwMCcsICctaW1hZScsICc8aW5maWxlLm1hZT4nLCAnLW9tYWUnLCAnPG91dGZpbGUubWFlPic=

>  <r_epik_Ionization_Penalty>  (46) 
0.159029

>  <r_epik_Ionization_Penalty_Charging>  (46) 
0.159026

>  <r_epik_Ionization_Penalty_Neutral>  (46) 
2.89312e-06

>  <r_epik_State_Penalty>  (46) 
0.148333

>  <r_epik_Charging_Adjusted_Penalty>  (46) 
0.307359

>  <i_epik_Tot_Q>  (46) 
1

>  <i_epik_Tot_abs_Q>  (46) 
1

>  <s_epik_Chemistry_Notes>  (46) 
This compound contains an acetal/aminal-like group ( X-CH(R)-Y where X, Y are N, S, or O) that may be acid/base labile, releasing an aldehyde.

>  <s_lp_Force_Field>  (46) 
OPLS3e

>  <r_lp_Energy>  (46) 
67.4866

>  <b_lp_Chiralities_Consistent>  (46) 
1

>  <s_lp_Variant>  (46) 
17:0-1

>  <s_i_glide_gridfile>  (46) 
pfpi4k_grid

>  <i_i_glide_lignum>  (46) 
24

>  <i_i_glide_rotatable_bonds>  (46) 
3

>  <r_i_docking_score>  (46) 
-2.55298

>  <r_i_glide_ligand_efficiency>  (46) 
-0.0981915

>  <r_i_glide_ligand_efficiency_sa>  (46) 
-0.290892

>  <r_i_glide_ligand_efficiency_ln>  (46) 
-0.599559

>  <r_i_glide_gscore>  (46) 
-2.55298

>  <r_i_glide_lipo>  (46) 
-0.207336

>  <r_i_glide_hbond>  (46) 
0

>  <r_i_glide_metal>  (46) 
-0

>  <r_i_glide_rewards>  (46) 
-0.992278

>  <r_i_glide_evdw>  (46) 
-17.3884

>  <r_i_glide_ecoul>  (46) 
-3.96708

>  <r_i_glide_erotb>  (46) 
0.152086

>  <r_i_glide_esite>  (46) 
-0.0409675

>  <r_i_glide_emodel>  (46) 
-22.7212

>  <r_i_glide_energy>  (46) 
-21.3555

>  <r_i_glide_einternal>  (46) 
1.19362

>  <r_i_glide_intrahb_reward>  (46) 
-0

>  <i_i_glide_confnum>  (46) 
1

>  <i_i_glide_posenum>  (46) 
10

>  <r_i_glide_eff_state_penalty>  (46) 
0

>  <ligand_id>  (46) 
17

>  <original_smiles>  (46) 
CC(C)n1c(C2(C)C3C4CCC3C4C3COC(O)N32)nc2ccccc21

>  <smiles>  (46) 
[H]OC1([H])OC([H])([H])C2([H])N1C(c1n(C([H])(C([H])([H])[H])C([H])([H])[H])c3c([H])c([H])c([H])c([H])c3[n+]1[H])(C([H])([H])[H])C1([H])C3([H])C([H])([H])C([H])([H])C1([H])C23[H]

$$$$
17:0:1
     RDKit          3D

 54 59  0  0  1  0  0  0  0  0999 V2000
    4.3909   -7.7275    1.3403 C   0  0  0  0  0  0  0  0  0  0  0  0
    3.1684   -7.3387    2.2143 C   0  0  0  0  0  0  0  0  0  0  0  0
    1.8580   -7.9532    1.6843 C   0  0  0  0  0  0  0  0  0  0  0  0
    3.0007   -5.8992    2.5870 N   0  0  0  0  0  0  0  0  0  0  0  0
    2.6637   -5.3485    3.8051 C   0  0  0  0  0  0  0  0  0  0  0  0
    2.4011   -6.0586    5.1397 C   0  0  1  0  0  0  0  0  0  0  0  0
    3.7730   -6.2696    5.8203 C   0  0  0  0  0  0  0  0  0  0  0  0
    1.5136   -5.1381    6.0366 C   0  0  2  0  0  0  0  0  0  0  0  0
    0.5247   -5.6929    7.0940 C   0  0  1  0  0  0  0  0  0  0  0  0
   -0.2009   -4.5426    7.8027 C   0  0  0  0  0  0  0  0  0  0  0  0
   -0.5276   -3.7150    6.5659 C   0  0  0  0  0  0  0  0  0  0  0  0
    0.1258   -4.6386    5.5357 C   0  0  2  0  0  0  0  0  0  0  0  0
   -0.2498   -6.1045    5.8160 C   0  0  1  0  0  0  0  0  0  0  0  0
    0.2347   -7.1637    4.8223 C   0  0  2  0  0  0  0  0  0  0  0  0
   -0.2525   -8.5943    5.1108 C   0  0  0  0  0  0  0  0  0  0  0  0
    0.7107   -9.1838    5.9614 O   0  0  0  0  0  0  0  0  0  0  0  0
    1.8763   -8.4302    5.9127 C   0  0  1  0  0  0  0  0  0  0  0  0
    2.9813   -9.2298    5.5544 O   0  0  0  0  0  0  0  0  0  0  0  0
    1.6770   -7.3449    4.9596 N   0  0  0  0  0  0  0  0  0  0  0  0
    2.7147   -3.9838    3.6662 N   0  0  0  0  0  0  0  0  0  0  0  0
    3.0042   -3.6506    2.3424 C   0  0  0  0  0  0  0  0  0  0  0  0
    3.1348   -2.4011    1.7255 C   0  0  0  0  0  0  0  0  0  0  0  0
    3.4105   -2.3995    0.3323 C   0  0  0  0  0  0  0  0  0  0  0  0
    3.5364   -3.6018   -0.3702 C   0  0  0  0  0  0  0  0  0  0  0  0
    3.3997   -4.8631    0.2742 C   0  0  0  0  0  0  0  0  0  0  0  0
    3.1460   -4.8624    1.6407 C   0  0  0  0  0  0  0  0  0  0  0  0
    4.5581   -8.8099    1.4354 H   0  0  0  0  0  0  0  0  0  0  0  0
    5.3008   -7.2365    1.7092 H   0  0  0  0  0  0  0  0  0  0  0  0
    4.2681   -7.5260    0.2585 H   0  0  0  0  0  0  0  0  0  0  0  0
    3.4049   -7.8223    3.1529 H   0  0  0  0  0  0  0  0  0  0  0  0
    1.9625   -9.0378    1.5616 H   0  0  0  0  0  0  0  0  0  0  0  0
    1.5366   -7.4961    0.7400 H   0  0  0  0  0  0  0  0  0  0  0  0
    1.0396   -7.8082    2.3849 H   0  0  0  0  0  0  0  0  0  0  0  0
    4.2905   -5.3194    5.9034 H   0  0  0  0  0  0  0  0  0  0  0  0
    4.4160   -6.9294    5.2370 H   0  0  0  0  0  0  0  0  0  0  0  0
    3.7003   -6.6683    6.8334 H   0  0  0  0  0  0  0  0  0  0  0  0
    2.0833   -4.2897    6.4320 H   0  0  0  0  0  0  0  0  0  0  0  0
    0.9068   -6.5110    7.7288 H   0  0  0  0  0  0  0  0  0  0  0  0
   -1.0917   -4.8900    8.3282 H   0  0  0  0  0  0  0  0  0  0  0  0
    0.4427   -4.0154    8.5077 H   0  0  0  0  0  0  0  0  0  0  0  0
   -1.6010   -3.6054    6.4179 H   0  0  0  0  0  0  0  0  0  0  0  0
   -0.0729   -2.7225    6.5759 H   0  0  0  0  0  0  0  0  0  0  0  0
    0.0686   -4.3575    4.4721 H   0  0  0  0  0  0  0  0  0  0  0  0
   -1.3197   -6.1733    6.0016 H   0  0  0  0  0  0  0  0  0  0  0  0
   -0.0721   -6.8274    3.8240 H   0  0  0  0  0  0  0  0  0  0  0  0
   -1.2140   -8.6571    5.6037 H   0  0  0  0  0  0  0  0  0  0  0  0
   -0.3508   -9.1448    4.1752 H   0  0  0  0  0  0  0  0  0  0  0  0
    2.0443   -8.0762    6.9215 H   0  0  0  0  0  0  0  0  0  0  0  0
    2.9169  -10.0466    6.0231 H   0  0  0  0  0  0  0  0  0  0  0  0
    2.9975   -1.4734    2.2622 H   0  0  0  0  0  0  0  0  0  0  0  0
    3.4759   -1.4565   -0.1983 H   0  0  0  0  0  0  0  0  0  0  0  0
    3.7266   -3.5854   -1.4338 H   0  0  0  0  0  0  0  0  0  0  0  0
    3.4603   -5.7895   -0.2670 H   0  0  0  0  0  0  0  0  0  0  0  0
    2.5704   -3.3461    4.4411 H   0  0  0  0  0  0  0  0  0  0  0  0
  1  2  1  0
  1 27  1  0
  1 28  1  0
  1 29  1  0
  2  3  1  0
  2  4  1  0
  2 30  1  0
  3 31  1  0
  3 32  1  0
  3 33  1  0
  4 26  1  0
  4  5  1  0
  5  6  1  0
  5 20  2  0
  6 19  1  0
  6  7  1  1
  6  8  1  0
  7 34  1  0
  7 35  1  0
  7 36  1  0
  8 12  1  0
  8  9  1  0
  8 37  1  1
  9 13  1  0
  9 10  1  0
  9 38  1  1
 10 11  1  0
 10 39  1  0
 10 40  1  0
 11 12  1  0
 11 41  1  0
 11 42  1  0
 12 13  1  0
 12 43  1  6
 13 14  1  0
 13 44  1  1
 14 19  1  0
 14 15  1  0
 14 45  1  6
 15 16  1  0
 15 46  1  0
 15 47  1  0
 16 17  1  0
 17 18  1  0
 17 19  1  0
 17 48  1  1
 18 49  1  0
 20 21  1  0
 20 54  1  0
 21 26  2  0
 21 22  1  0
 22 23  2  0
 22 50  1  0
 23 24  1  0
 23 51  1  0
 24 25  2  0
 24 52  1  0
 25 26  1  0
 25 53  1  0
M  CHG  1  20   1
M  END
>  <i_m_ct_stereo_status>  (47) 
1

>  <s_m_source_file>  (47) 
/var/tmp/pbs.5076255.sched01/tmpyb5u0fxv/0ob_ovo1_.sdf

>  <i_m_source_file_index>  (47) 
24

>  <i_lp_mmshare_version>  (47) 
48012

>  <i_f3d_flags>  (47) 
0

>  <s_epik_input>  (47) 
W2NIXTFbY0hdW2NIXVtjSF1jKGMxMiluKFtDSF0oW0NIM10pW0NIM10pYyhuMilbQ0BdMyhbQ0gzXSlOKFtDQEhdKFtPSF0pT1tDSDJdNClbQ0BASF00W0NAQEhdKFtDQEhdNVtDQEBIXTM2KVtDQEhdNltDSDJdW0NIMl01

>  <s_epik_cmdline>  (47) 
J2VwaWtfcHl0aG9uJywgJy1waHQnLCAnMi4wJywgJy1waCcsICc3LjAnLCAnLXRuJywgJzgnLCAnLW1hJywgJzIwMCcsICctaW1hZScsICc8aW5maWxlLm1hZT4nLCAnLW9tYWUnLCAnPG91dGZpbGUubWFlPic=

>  <r_epik_Ionization_Penalty>  (47) 
0.159029

>  <r_epik_Ionization_Penalty_Charging>  (47) 
0.159026

>  <r_epik_Ionization_Penalty_Neutral>  (47) 
2.89312e-06

>  <r_epik_State_Penalty>  (47) 
0.148333

>  <r_epik_Charging_Adjusted_Penalty>  (47) 
0.307359

>  <i_epik_Tot_Q>  (47) 
1

>  <i_epik_Tot_abs_Q>  (47) 
1

>  <s_epik_Chemistry_Notes>  (47) 
This compound contains an acetal/aminal-like group ( X-CH(R)-Y where X, Y are N, S, or O) that may be acid/base labile, releasing an aldehyde.

>  <s_lp_Force_Field>  (47) 
OPLS3e

>  <r_lp_Energy>  (47) 
67.4866

>  <b_lp_Chiralities_Consistent>  (47) 
1

>  <s_lp_Variant>  (47) 
17:0-1

>  <s_i_glide_gridfile>  (47) 
pfpi4k_grid

>  <i_i_glide_lignum>  (47) 
24

>  <i_i_glide_rotatable_bonds>  (47) 
3

>  <r_i_docking_score>  (47) 
-2.33657

>  <r_i_glide_ligand_efficiency>  (47) 
-0.0898682

>  <r_i_glide_ligand_efficiency_sa>  (47) 
-0.266234

>  <r_i_glide_ligand_efficiency_ln>  (47) 
-0.548737

>  <r_i_glide_gscore>  (47) 
-2.33657

>  <r_i_glide_lipo>  (47) 
-0.0718976

>  <r_i_glide_hbond>  (47) 
0

>  <r_i_glide_metal>  (47) 
-0

>  <r_i_glide_rewards>  (47) 
-0.992278

>  <r_i_glide_evdw>  (47) 
-17.5081

>  <r_i_glide_ecoul>  (47) 
-3.54219

>  <r_i_glide_erotb>  (47) 
0.152086

>  <r_i_glide_esite>  (47) 
-0.017754

>  <r_i_glide_emodel>  (47) 
-21.5495

>  <r_i_glide_energy>  (47) 
-21.0502

>  <r_i_glide_einternal>  (47) 
1.78225

>  <r_i_glide_intrahb_reward>  (47) 
-0

>  <i_i_glide_confnum>  (47) 
3

>  <i_i_glide_posenum>  (47) 
2

>  <r_i_glide_eff_state_penalty>  (47) 
0

>  <ligand_id>  (47) 
17

>  <original_smiles>  (47) 
CC(C)n1c(C2(C)C3C4CCC3C4C3COC(O)N32)nc2ccccc21

>  <smiles>  (47) 
[H]OC1([H])OC([H])([H])C2([H])N1C(c1n(C([H])(C([H])([H])[H])C([H])([H])[H])c3c([H])c([H])c([H])c([H])c3[n+]1[H])(C([H])([H])[H])C1([H])C3([H])C([H])([H])C([H])([H])C1([H])C23[H]

$$$$
17:1:0
     RDKit          3D

 53 58  0  0  1  0  0  0  0  0999 V2000
    5.8256   -6.0871    2.1316 C   0  0  0  0  0  0  0  0  0  0  0  0
    4.4784   -6.5146    1.5032 C   0  0  0  0  0  0  0  0  0  0  0  0
    4.2665   -5.9365    0.0767 C   0  0  0  0  0  0  0  0  0  0  0  0
    3.3244   -6.1969    2.4045 N   0  0  0  0  0  0  0  0  0  0  0  0
    2.5114   -7.0225    3.1432 C   0  0  0  0  0  0  0  0  0  0  0  0
    2.5735   -8.5723    3.2716 C   0  0  1  0  0  0  0  0  0  0  0  0
    2.8037   -9.2596    1.8817 C   0  0  0  0  0  0  0  0  0  0  0  0
    3.7147   -8.9482    4.2708 C   0  0  2  0  0  0  0  0  0  0  0  0
    4.1212  -10.4183    4.4794 C   0  0  1  0  0  0  0  0  0  0  0  0
    5.3085  -10.5315    5.4353 C   0  0  0  0  0  0  0  0  0  0  0  0
    4.8117   -9.5380    6.4875 C   0  0  0  0  0  0  0  0  0  0  0  0
    3.5060   -9.1695    5.7935 C   0  0  2  0  0  0  0  0  0  0  0  0
    2.8158  -10.4331    5.2869 C   0  0  1  0  0  0  0  0  0  0  0  0
    1.4325  -10.3055    4.6613 C   0  0  2  0  0  0  0  0  0  0  0  0
    0.9864  -11.4138    3.6910 C   0  0  0  0  0  0  0  0  0  0  0  0
    0.2455  -10.7186    2.6850 O   0  0  0  0  0  0  0  0  0  0  0  0
    0.1873   -9.3730    3.0228 C   0  0  1  0  0  0  0  0  0  0  0  0
   -1.0220   -9.0492    3.6714 O   0  0  0  0  0  0  0  0  0  0  0  0
    1.3073   -9.0948    3.8724 N   0  0  0  0  0  0  0  0  0  0  0  0
    1.6023   -6.3509    3.8766 N   0  0  0  0  0  0  0  0  0  0  0  0
    1.7990   -5.0238    3.5609 C   0  0  0  0  0  0  0  0  0  0  0  0
    1.1233   -3.8736    3.9877 C   0  0  0  0  0  0  0  0  0  0  0  0
    1.4655   -2.5896    3.4979 C   0  0  0  0  0  0  0  0  0  0  0  0
    2.5246   -2.4588    2.5731 C   0  0  0  0  0  0  0  0  0  0  0  0
    3.2279   -3.5957    2.1701 C   0  0  0  0  0  0  0  0  0  0  0  0
    2.8741   -4.8838    2.6311 C   0  0  0  0  0  0  0  0  0  0  0  0
    6.6383   -6.4837    1.5227 H   0  0  0  0  0  0  0  0  0  0  0  0
    5.9265   -6.5494    3.1132 H   0  0  0  0  0  0  0  0  0  0  0  0
    5.9746   -5.0023    2.2409 H   0  0  0  0  0  0  0  0  0  0  0  0
    4.5919   -7.5599    1.3747 H   0  0  0  0  0  0  0  0  0  0  0  0
    5.0164   -6.3250   -0.6062 H   0  0  0  0  0  0  0  0  0  0  0  0
    4.3104   -4.8449   -0.0360 H   0  0  0  0  0  0  0  0  0  0  0  0
    3.2963   -6.2544   -0.3048 H   0  0  0  0  0  0  0  0  0  0  0  0
    3.8275   -9.2645    1.5582 H   0  0  0  0  0  0  0  0  0  0  0  0
    2.1796   -8.7797    1.1215 H   0  0  0  0  0  0  0  0  0  0  0  0
    2.5354  -10.3217    1.9034 H   0  0  0  0  0  0  0  0  0  0  0  0
    4.6008   -8.3459    4.0973 H   0  0  0  0  0  0  0  0  0  0  0  0
    4.1376  -11.0475    3.5900 H   0  0  0  0  0  0  0  0  0  0  0  0
    5.4164  -11.5436    5.8383 H   0  0  0  0  0  0  0  0  0  0  0  0
    6.2477  -10.2195    4.9699 H   0  0  0  0  0  0  0  0  0  0  0  0
    4.6456  -10.0024    7.4669 H   0  0  0  0  0  0  0  0  0  0  0  0
    5.4699   -8.6731    6.6026 H   0  0  0  0  0  0  0  0  0  0  0  0
    2.8479   -8.4658    6.3016 H   0  0  0  0  0  0  0  0  0  0  0  0
    2.8369  -11.2287    6.0236 H   0  0  0  0  0  0  0  0  0  0  0  0
    0.6842  -10.2528    5.4594 H   0  0  0  0  0  0  0  0  0  0  0  0
    1.8327  -11.9254    3.2311 H   0  0  0  0  0  0  0  0  0  0  0  0
    0.3996  -12.1794    4.1943 H   0  0  0  0  0  0  0  0  0  0  0  0
    0.2219   -8.7729    2.1154 H   0  0  0  0  0  0  0  0  0  0  0  0
   -1.3019   -9.8033    4.1848 H   0  0  0  0  0  0  0  0  0  0  0  0
    0.3111   -3.9756    4.6941 H   0  0  0  0  0  0  0  0  0  0  0  0
    0.9308   -1.7144    3.8181 H   0  0  0  0  0  0  0  0  0  0  0  0
    2.7950   -1.4799    2.1799 H   0  0  0  0  0  0  0  0  0  0  0  0
    4.0504   -3.4556    1.4836 H   0  0  0  0  0  0  0  0  0  0  0  0
  1  2  1  0
  1 27  1  0
  1 28  1  0
  1 29  1  0
  2  3  1  0
  2  4  1  0
  2 30  1  0
  3 31  1  0
  3 32  1  0
  3 33  1  0
  4 26  1  0
  4  5  1  0
  5  6  1  0
  5 20  2  0
  6 19  1  0
  6  7  1  6
  6  8  1  0
  7 34  1  0
  7 35  1  0
  7 36  1  0
  8 12  1  0
  8  9  1  0
  8 37  1  1
  9 13  1  0
  9 10  1  0
  9 38  1  6
 10 11  1  0
 10 39  1  0
 10 40  1  0
 11 12  1  0
 11 41  1  0
 11 42  1  0
 12 13  1  0
 12 43  1  1
 13 14  1  0
 13 44  1  1
 14 19  1  0
 14 15  1  0
 14 45  1  1
 15 16  1  0
 15 46  1  0
 15 47  1  0
 16 17  1  0
 17 18  1  0
 17 19  1  0
 17 48  1  6
 18 49  1  0
 20 21  1  0
 21 26  2  0
 21 22  1  0
 22 23  2  0
 22 50  1  0
 23 24  1  0
 23 51  1  0
 24 25  2  0
 24 52  1  0
 25 26  1  0
 25 53  1  0
M  END
>  <i_m_ct_stereo_status>  (48) 
1

>  <s_m_source_file>  (48) 
/var/tmp/pbs.5076255.sched01/tmpyb5u0fxv/0ob_ovo1_.sdf

>  <i_m_source_file_index>  (48) 
25

>  <i_lp_mmshare_version>  (48) 
48012

>  <i_f3d_flags>  (48) 
0

>  <s_epik_input>  (48) 
W2NIXTFbY0hdW2NIXVtjSF1jKGMxMiluKFtDSF0oW0NIM10pW0NIM10pYyhuMilbQ0BdMyhbQ0gzXSlOKFtDQEhdKFtPSF0pT1tDSDJdNClbQ0BASF00W0NAQEhdKFtDQEhdNVtDQEBIXTM2KVtDQEhdNltDSDJdW0NIMl01

>  <s_epik_cmdline>  (48) 
J2VwaWtfcHl0aG9uJywgJy1waHQnLCAnMi4wJywgJy1waCcsICc3LjAnLCAnLXRuJywgJzgnLCAnLW1hJywgJzIwMCcsICctaW1hZScsICc8aW5maWxlLm1hZT4nLCAnLW9tYWUnLCAnPG91dGZpbGUubWFlPic=

>  <r_epik_Ionization_Penalty>  (48) 
0.85702

>  <r_epik_Ionization_Penalty_Charging>  (48) 
0

>  <r_epik_Ionization_Penalty_Neutral>  (48) 
0.85702

>  <r_epik_State_Penalty>  (48) 
0.893135

>  <r_epik_Charging_Adjusted_Penalty>  (48) 
0.893135

>  <i_epik_Tot_Q>  (48) 
0

>  <i_epik_Tot_abs_Q>  (48) 
0

>  <s_epik_Chemistry_Notes>  (48) 
This compound contains an acetal/aminal-like group ( X-CH(R)-Y where X, Y are N, S, or O) that may be acid/base labile, releasing an aldehyde.

>  <s_lp_Force_Field>  (48) 
OPLS3e

>  <r_lp_Energy>  (48) 
65.6185

>  <b_lp_Chiralities_Consistent>  (48) 
1

>  <s_lp_Variant>  (48) 
17:0-2

>  <s_i_glide_gridfile>  (48) 
pfpi4k_grid

>  <i_i_glide_lignum>  (48) 
25

>  <i_i_glide_rotatable_bonds>  (48) 
3

>  <r_i_docking_score>  (48) 
-2.82558

>  <r_i_glide_ligand_efficiency>  (48) 
-0.108676

>  <r_i_glide_ligand_efficiency_sa>  (48) 
-0.321953

>  <r_i_glide_ligand_efficiency_ln>  (48) 
-0.663578

>  <r_i_glide_gscore>  (48) 
-2.82558

>  <r_i_glide_lipo>  (48) 
-0.353088

>  <r_i_glide_hbond>  (48) 
0

>  <r_i_glide_metal>  (48) 
-0

>  <r_i_glide_rewards>  (48) 
-0.99915

>  <r_i_glide_evdw>  (48) 
-20.8504

>  <r_i_glide_ecoul>  (48) 
-3.66844

>  <r_i_glide_erotb>  (48) 
0.152859

>  <r_i_glide_esite>  (48) 
-0.0334162

>  <r_i_glide_emodel>  (48) 
-27.9735

>  <r_i_glide_energy>  (48) 
-24.5188

>  <r_i_glide_einternal>  (48) 
1.8844

>  <r_i_glide_intrahb_reward>  (48) 
-0

>  <i_i_glide_confnum>  (48) 
4

>  <i_i_glide_posenum>  (48) 
31

>  <r_i_glide_eff_state_penalty>  (48) 
0

>  <ligand_id>  (48) 
17

>  <original_smiles>  (48) 
CC(C)n1c(C2(C)C3C4CCC3C4C3COC(O)N32)nc2ccccc21

>  <smiles>  (48) 
[H]OC1([H])OC([H])([H])C2([H])N1C(c1nc3c([H])c([H])c([H])c([H])c3n1C([H])(C([H])([H])[H])C([H])([H])[H])(C([H])([H])[H])C1([H])C3([H])C([H])([H])C([H])([H])C1([H])C23[H]

$$$$
17:1:1
     RDKit          3D

 53 58  0  0  1  0  0  0  0  0999 V2000
    0.4860   -6.8654    2.0290 C   0  0  0  0  0  0  0  0  0  0  0  0
    1.8551   -6.6831    2.6917 C   0  0  0  0  0  0  0  0  0  0  0  0
    2.2448   -7.8641    3.6010 C   0  0  0  0  0  0  0  0  0  0  0  0
    1.9486   -5.3999    3.3935 N   0  0  0  0  0  0  0  0  0  0  0  0
    2.7964   -4.3322    3.1924 C   0  0  0  0  0  0  0  0  0  0  0  0
    3.9158   -4.2502    2.1373 C   0  0  1  0  0  0  0  0  0  0  0  0
    4.3660   -2.7554    2.0149 C   0  0  0  0  0  0  0  0  0  0  0  0
    5.1483   -5.0919    2.6036 C   0  0  2  0  0  0  0  0  0  0  0  0
    6.4976   -5.0282    1.8479 C   0  0  1  0  0  0  0  0  0  0  0  0
    7.5647   -5.9045    2.5174 C   0  0  0  0  0  0  0  0  0  0  0  0
    6.6863   -7.1194    2.7822 C   0  0  0  0  0  0  0  0  0  0  0  0
    5.4112   -6.5625    2.1762 C   0  0  2  0  0  0  0  0  0  0  0  0
    5.6986   -5.8684    0.8437 C   0  0  1  0  0  0  0  0  0  0  0  0
    4.5379   -5.3368    0.0010 C   0  0  2  0  0  0  0  0  0  0  0  0
    4.8492   -4.2240   -1.0099 C   0  0  0  0  0  0  0  0  0  0  0  0
    3.7168   -3.3553   -0.9642 O   0  0  0  0  0  0  0  0  0  0  0  0
    2.7917   -3.8869   -0.0736 C   0  0  1  0  0  0  0  0  0  0  0  0
    1.8103   -4.6356   -0.7233 O   0  0  0  0  0  0  0  0  0  0  0  0
    3.4919   -4.7513    0.8137 N   0  0  0  0  0  0  0  0  0  0  0  0
    2.6585   -3.3472    4.0897 N   0  0  0  0  0  0  0  0  0  0  0  0
    1.6001   -3.7568    4.8696 C   0  0  0  0  0  0  0  0  0  0  0  0
    0.9463   -3.0995    5.9416 C   0  0  0  0  0  0  0  0  0  0  0  0
   -0.1176   -3.7166    6.6333 C   0  0  0  0  0  0  0  0  0  0  0  0
   -0.5421   -5.0036    6.2678 C   0  0  0  0  0  0  0  0  0  0  0  0
    0.0955   -5.6708    5.1961 C   0  0  0  0  0  0  0  0  0  0  0  0
    1.1467   -5.0398    4.4905 C   0  0  0  0  0  0  0  0  0  0  0  0
    0.4820   -7.7488    1.3890 H   0  0  0  0  0  0  0  0  0  0  0  0
    0.2673   -6.0075    1.3992 H   0  0  0  0  0  0  0  0  0  0  0  0
   -0.3248   -6.9800    2.7473 H   0  0  0  0  0  0  0  0  0  0  0  0
    2.5502   -6.6991    1.8693 H   0  0  0  0  0  0  0  0  0  0  0  0
    2.2950   -8.7927    3.0307 H   0  0  0  0  0  0  0  0  0  0  0  0
    1.5384   -8.0241    4.4179 H   0  0  0  0  0  0  0  0  0  0  0  0
    3.2270   -7.7142    4.0538 H   0  0  0  0  0  0  0  0  0  0  0  0
    4.8789   -2.4292    2.9239 H   0  0  0  0  0  0  0  0  0  0  0  0
    3.5174   -2.0810    1.9011 H   0  0  0  0  0  0  0  0  0  0  0  0
    5.0433   -2.5554    1.1808 H   0  0  0  0  0  0  0  0  0  0  0  0
    5.3334   -4.9522    3.6640 H   0  0  0  0  0  0  0  0  0  0  0  0
    6.8139   -4.0501    1.4828 H   0  0  0  0  0  0  0  0  0  0  0  0
    8.3893   -6.1423    1.8416 H   0  0  0  0  0  0  0  0  0  0  0  0
    7.9518   -5.4568    3.4323 H   0  0  0  0  0  0  0  0  0  0  0  0
    7.0106   -8.0227    2.2591 H   0  0  0  0  0  0  0  0  0  0  0  0
    6.5541   -7.3388    3.8419 H   0  0  0  0  0  0  0  0  0  0  0  0
    4.5678   -7.2447    2.1529 H   0  0  0  0  0  0  0  0  0  0  0  0
    6.3768   -6.4555    0.2457 H   0  0  0  0  0  0  0  0  0  0  0  0
    4.0854   -6.1693   -0.5404 H   0  0  0  0  0  0  0  0  0  0  0  0
    5.7424   -3.6588   -0.7360 H   0  0  0  0  0  0  0  0  0  0  0  0
    5.0254   -4.6287   -2.0044 H   0  0  0  0  0  0  0  0  0  0  0  0
    2.2718   -3.0869    0.4593 H   0  0  0  0  0  0  0  0  0  0  0  0
    2.2319   -5.1119   -1.4465 H   0  0  0  0  0  0  0  0  0  0  0  0
    1.2762   -2.1136    6.2266 H   0  0  0  0  0  0  0  0  0  0  0  0
   -0.5942   -3.2109    7.4578 H   0  0  0  0  0  0  0  0  0  0  0  0
   -1.3631   -5.4655    6.8034 H   0  0  0  0  0  0  0  0  0  0  0  0
   -0.2310   -6.6573    4.9222 H   0  0  0  0  0  0  0  0  0  0  0  0
  1  2  1  0
  1 27  1  0
  1 28  1  0
  1 29  1  0
  2  3  1  0
  2  4  1  0
  2 30  1  0
  3 31  1  0
  3 32  1  0
  3 33  1  0
  4 26  1  0
  4  5  1  0
  5  6  1  0
  5 20  2  0
  6 19  1  0
  6  7  1  6
  6  8  1  0
  7 34  1  0
  7 35  1  0
  7 36  1  0
  8 12  1  0
  8  9  1  0
  8 37  1  1
  9 13  1  0
  9 10  1  0
  9 38  1  6
 10 11  1  0
 10 39  1  0
 10 40  1  0
 11 12  1  0
 11 41  1  0
 11 42  1  0
 12 13  1  0
 12 43  1  6
 13 14  1  0
 13 44  1  6
 14 19  1  0
 14 15  1  0
 14 45  1  6
 15 16  1  0
 15 46  1  0
 15 47  1  0
 16 17  1  0
 17 18  1  0
 17 19  1  0
 17 48  1  1
 18 49  1  0
 20 21  1  0
 21 26  2  0
 21 22  1  0
 22 23  2  0
 22 50  1  0
 23 24  1  0
 23 51  1  0
 24 25  2  0
 24 52  1  0
 25 26  1  0
 25 53  1  0
M  END
>  <i_m_ct_stereo_status>  (49) 
1

>  <s_m_source_file>  (49) 
/var/tmp/pbs.5076255.sched01/tmpyb5u0fxv/0ob_ovo1_.sdf

>  <i_m_source_file_index>  (49) 
25

>  <i_lp_mmshare_version>  (49) 
48012

>  <i_f3d_flags>  (49) 
0

>  <s_epik_input>  (49) 
W2NIXTFbY0hdW2NIXVtjSF1jKGMxMiluKFtDSF0oW0NIM10pW0NIM10pYyhuMilbQ0BdMyhbQ0gzXSlOKFtDQEhdKFtPSF0pT1tDSDJdNClbQ0BASF00W0NAQEhdKFtDQEhdNVtDQEBIXTM2KVtDQEhdNltDSDJdW0NIMl01

>  <s_epik_cmdline>  (49) 
J2VwaWtfcHl0aG9uJywgJy1waHQnLCAnMi4wJywgJy1waCcsICc3LjAnLCAnLXRuJywgJzgnLCAnLW1hJywgJzIwMCcsICctaW1hZScsICc8aW5maWxlLm1hZT4nLCAnLW9tYWUnLCAnPG91dGZpbGUubWFlPic=

>  <r_epik_Ionization_Penalty>  (49) 
0.85702

>  <r_epik_Ionization_Penalty_Charging>  (49) 
0

>  <r_epik_Ionization_Penalty_Neutral>  (49) 
0.85702

>  <r_epik_State_Penalty>  (49) 
0.893135

>  <r_epik_Charging_Adjusted_Penalty>  (49) 
0.893135

>  <i_epik_Tot_Q>  (49) 
0

>  <i_epik_Tot_abs_Q>  (49) 
0

>  <s_epik_Chemistry_Notes>  (49) 
This compound contains an acetal/aminal-like group ( X-CH(R)-Y where X, Y are N, S, or O) that may be acid/base labile, releasing an aldehyde.

>  <s_lp_Force_Field>  (49) 
OPLS3e

>  <r_lp_Energy>  (49) 
65.6185

>  <b_lp_Chiralities_Consistent>  (49) 
1

>  <s_lp_Variant>  (49) 
17:0-2

>  <s_i_glide_gridfile>  (49) 
pfpi4k_grid

>  <i_i_glide_lignum>  (49) 
25

>  <i_i_glide_rotatable_bonds>  (49) 
3

>  <r_i_docking_score>  (49) 
-2.73489

>  <r_i_glide_ligand_efficiency>  (49) 
-0.105188

>  <r_i_glide_ligand_efficiency_sa>  (49) 
-0.311619

>  <r_i_glide_ligand_efficiency_ln>  (49) 
-0.64228

>  <r_i_glide_gscore>  (49) 
-2.73489

>  <r_i_glide_lipo>  (49) 
-0.244134

>  <r_i_glide_hbond>  (49) 
0

>  <r_i_glide_metal>  (49) 
-0

>  <r_i_glide_rewards>  (49) 
-0.99915

>  <r_i_glide_evdw>  (49) 
-17.4961

>  <r_i_glide_ecoul>  (49) 
-4.90272

>  <r_i_glide_erotb>  (49) 
0.152859

>  <r_i_glide_esite>  (49) 
-0.0342516

>  <r_i_glide_emodel>  (49) 
-25.9827

>  <r_i_glide_energy>  (49) 
-22.3988

>  <r_i_glide_einternal>  (49) 
2.56607

>  <r_i_glide_intrahb_reward>  (49) 
-0

>  <i_i_glide_confnum>  (49) 
3

>  <i_i_glide_posenum>  (49) 
11

>  <r_i_glide_eff_state_penalty>  (49) 
0

>  <ligand_id>  (49) 
17

>  <original_smiles>  (49) 
CC(C)n1c(C2(C)C3C4CCC3C4C3COC(O)N32)nc2ccccc21

>  <smiles>  (49) 
[H]OC1([H])OC([H])([H])C2([H])N1C(c1nc3c([H])c([H])c([H])c([H])c3n1C([H])(C([H])([H])[H])C([H])([H])[H])(C([H])([H])[H])C1([H])C3([H])C([H])([H])C([H])([H])C1([H])C23[H]

$$$$
17:1:2
     RDKit          3D

 53 58  0  0  1  0  0  0  0  0999 V2000
    0.2308   -6.8141    2.5436 C   0  0  0  0  0  0  0  0  0  0  0  0
    1.5588   -6.9911    3.2925 C   0  0  0  0  0  0  0  0  0  0  0  0
    1.6335   -8.2754    4.1223 C   0  0  0  0  0  0  0  0  0  0  0  0
    1.8800   -5.7979    4.0867 N   0  0  0  0  0  0  0  0  0  0  0  0
    2.9257   -4.8975    3.9910 C   0  0  0  0  0  0  0  0  0  0  0  0
    4.0922   -4.9596    2.9892 C   0  0  1  0  0  0  0  0  0  0  0  0
    4.6450   -3.5113    2.8002 C   0  0  0  0  0  0  0  0  0  0  0  0
    5.2356   -5.8544    3.5655 C   0  0  2  0  0  0  0  0  0  0  0  0
    6.6155   -5.9499    2.8726 C   0  0  1  0  0  0  0  0  0  0  0  0
    7.5796   -6.8445    3.6597 C   0  0  0  0  0  0  0  0  0  0  0  0
    6.6000   -7.9682    3.9622 C   0  0  0  0  0  0  0  0  0  0  0  0
    5.3907   -7.3634    3.2522 C   0  0  2  0  0  0  0  0  0  0  0  0
    5.8045   -6.8015    1.8887 C   0  0  1  0  0  0  0  0  0  0  0  0
    4.7315   -6.2393    0.9530 C   0  0  2  0  0  0  0  0  0  0  0  0
    5.1593   -5.2205   -0.1082 C   0  0  0  0  0  0  0  0  0  0  0  0
    4.0815   -4.2800   -0.1822 O   0  0  0  0  0  0  0  0  0  0  0  0
    3.0837   -4.6815    0.7005 C   0  0  1  0  0  0  0  0  0  0  0  0
    2.0777   -5.4236    0.0687 O   0  0  0  0  0  0  0  0  0  0  0  0
    3.7109   -5.5091    1.6752 N   0  0  0  0  0  0  0  0  0  0  0  0
    2.9408   -3.9687    4.9548 N   0  0  0  0  0  0  0  0  0  0  0  0
    1.7880   -4.2108    5.6678 C   0  0  0  0  0  0  0  0  0  0  0  0
    1.2199   -3.5188    6.7712 C   0  0  0  0  0  0  0  0  0  0  0  0
    0.0214   -3.9602    7.3741 C   0  0  0  0  0  0  0  0  0  0  0  0
   -0.6313   -5.1037    6.8845 C   0  0  0  0  0  0  0  0  0  0  0  0
   -0.0830   -5.7994    5.7815 C   0  0  0  0  0  0  0  0  0  0  0  0
    1.1103   -5.3481    5.1717 C   0  0  0  0  0  0  0  0  0  0  0  0
    0.0847   -7.6227    1.8275 H   0  0  0  0  0  0  0  0  0  0  0  0
    0.2357   -5.8787    1.9876 H   0  0  0  0  0  0  0  0  0  0  0  0
   -0.6315   -6.8008    3.2088 H   0  0  0  0  0  0  0  0  0  0  0  0
    2.3070   -7.1762    2.5390 H   0  0  0  0  0  0  0  0  0  0  0  0
    1.5356   -9.1451    3.4721 H   0  0  0  0  0  0  0  0  0  0  0  0
    0.8597   -8.3384    4.8866 H   0  0  0  0  0  0  0  0  0  0  0  0
    2.6019   -8.3571    4.6207 H   0  0  0  0  0  0  0  0  0  0  0  0
    5.1438   -3.1589    3.7070 H   0  0  0  0  0  0  0  0  0  0  0  0
    3.8429   -2.7983    2.6065 H   0  0  0  0  0  0  0  0  0  0  0  0
    5.3680   -3.4169    1.9846 H   0  0  0  0  0  0  0  0  0  0  0  0
    5.3824   -5.6604    4.6211 H   0  0  0  0  0  0  0  0  0  0  0  0
    7.0178   -5.0232    2.4631 H   0  0  0  0  0  0  0  0  0  0  0  0
    8.4172   -7.1751    3.0453 H   0  0  0  0  0  0  0  0  0  0  0  0
    7.9568   -6.3533    4.5562 H   0  0  0  0  0  0  0  0  0  0  0  0
    6.8894   -8.9241    3.5199 H   0  0  0  0  0  0  0  0  0  0  0  0
    6.4153   -8.1026    5.0275 H   0  0  0  0  0  0  0  0  0  0  0  0
    4.4706   -7.9469    3.2434 H   0  0  0  0  0  0  0  0  0  0  0  0
    6.4540   -7.4914    1.3704 H   0  0  0  0  0  0  0  0  0  0  0  0
    4.2237   -7.0689    0.4549 H   0  0  0  0  0  0  0  0  0  0  0  0
    6.0751   -4.7023    0.1732 H   0  0  0  0  0  0  0  0  0  0  0  0
    5.3411   -5.7031   -1.0600 H   0  0  0  0  0  0  0  0  0  0  0  0
    2.5972   -3.8162    1.1570 H   0  0  0  0  0  0  0  0  0  0  0  0
    2.3694   -5.5734   -0.8287 H   0  0  0  0  0  0  0  0  0  0  0  0
    1.7221   -2.6430    7.1527 H   0  0  0  0  0  0  0  0  0  0  0  0
   -0.3840   -3.4361    8.2301 H   0  0  0  0  0  0  0  0  0  0  0  0
   -1.5439   -5.4510    7.3569 H   0  0  0  0  0  0  0  0  0  0  0  0
   -0.5768   -6.6807    5.4191 H   0  0  0  0  0  0  0  0  0  0  0  0
  1  2  1  0
  1 27  1  0
  1 28  1  0
  1 29  1  0
  2  3  1  0
  2  4  1  0
  2 30  1  0
  3 31  1  0
  3 32  1  0
  3 33  1  0
  4 26  1  0
  4  5  1  0
  5  6  1  0
  5 20  2  0
  6 19  1  0
  6  7  1  6
  6  8  1  0
  7 34  1  0
  7 35  1  0
  7 36  1  0
  8 12  1  0
  8  9  1  0
  8 37  1  1
  9 13  1  0
  9 10  1  0
  9 38  1  6
 10 11  1  0
 10 39  1  0
 10 40  1  0
 11 12  1  0
 11 41  1  0
 11 42  1  0
 12 13  1  0
 12 43  1  6
 13 14  1  0
 13 44  1  6
 14 19  1  0
 14 15  1  0
 14 45  1  6
 15 16  1  0
 15 46  1  0
 15 47  1  0
 16 17  1  0
 17 18  1  0
 17 19  1  0
 17 48  1  1
 18 49  1  0
 20 21  1  0
 21 26  2  0
 21 22  1  0
 22 23  2  0
 22 50  1  0
 23 24  1  0
 23 51  1  0
 24 25  2  0
 24 52  1  0
 25 26  1  0
 25 53  1  0
M  END
>  <i_m_ct_stereo_status>  (50) 
1

>  <s_m_source_file>  (50) 
/var/tmp/pbs.5076255.sched01/tmpyb5u0fxv/0ob_ovo1_.sdf

>  <i_m_source_file_index>  (50) 
25

>  <i_lp_mmshare_version>  (50) 
48012

>  <i_f3d_flags>  (50) 
0

>  <s_epik_input>  (50) 
W2NIXTFbY0hdW2NIXVtjSF1jKGMxMiluKFtDSF0oW0NIM10pW0NIM10pYyhuMilbQ0BdMyhbQ0gzXSlOKFtDQEhdKFtPSF0pT1tDSDJdNClbQ0BASF00W0NAQEhdKFtDQEhdNVtDQEBIXTM2KVtDQEhdNltDSDJdW0NIMl01

>  <s_epik_cmdline>  (50) 
J2VwaWtfcHl0aG9uJywgJy1waHQnLCAnMi4wJywgJy1waCcsICc3LjAnLCAnLXRuJywgJzgnLCAnLW1hJywgJzIwMCcsICctaW1hZScsICc8aW5maWxlLm1hZT4nLCAnLW9tYWUnLCAnPG91dGZpbGUubWFlPic=

>  <r_epik_Ionization_Penalty>  (50) 
0.85702

>  <r_epik_Ionization_Penalty_Charging>  (50) 
0

>  <r_epik_Ionization_Penalty_Neutral>  (50) 
0.85702

>  <r_epik_State_Penalty>  (50) 
0.893135

>  <r_epik_Charging_Adjusted_Penalty>  (50) 
0.893135

>  <i_epik_Tot_Q>  (50) 
0

>  <i_epik_Tot_abs_Q>  (50) 
0

>  <s_epik_Chemistry_Notes>  (50) 
This compound contains an acetal/aminal-like group ( X-CH(R)-Y where X, Y are N, S, or O) that may be acid/base labile, releasing an aldehyde.

>  <s_lp_Force_Field>  (50) 
OPLS3e

>  <r_lp_Energy>  (50) 
65.6185

>  <b_lp_Chiralities_Consistent>  (50) 
1

>  <s_lp_Variant>  (50) 
17:0-2

>  <s_i_glide_gridfile>  (50) 
pfpi4k_grid

>  <i_i_glide_lignum>  (50) 
25

>  <i_i_glide_rotatable_bonds>  (50) 
3

>  <r_i_docking_score>  (50) 
-2.44166

>  <r_i_glide_ligand_efficiency>  (50) 
-0.0939101

>  <r_i_glide_ligand_efficiency_sa>  (50) 
-0.278208

>  <r_i_glide_ligand_efficiency_ln>  (50) 
-0.573416

>  <r_i_glide_gscore>  (50) 
-2.44166

>  <r_i_glide_lipo>  (50) 
-0.27067

>  <r_i_glide_hbond>  (50) 
0

>  <r_i_glide_metal>  (50) 
-0

>  <r_i_glide_rewards>  (50) 
-0.99915

>  <r_i_glide_evdw>  (50) 
-16.9837

>  <r_i_glide_ecoul>  (50) 
-3.06341

>  <r_i_glide_erotb>  (50) 
0.152859

>  <r_i_glide_esite>  (50) 
-0.0160054

>  <r_i_glide_emodel>  (50) 
-23.3713

>  <r_i_glide_energy>  (50) 
-20.0471

>  <r_i_glide_einternal>  (50) 
1.80489

>  <r_i_glide_intrahb_reward>  (50) 
-0

>  <i_i_glide_confnum>  (50) 
4

>  <i_i_glide_posenum>  (50) 
39

>  <r_i_glide_eff_state_penalty>  (50) 
0

>  <ligand_id>  (50) 
17

>  <original_smiles>  (50) 
CC(C)n1c(C2(C)C3C4CCC3C4C3COC(O)N32)nc2ccccc21

>  <smiles>  (50) 
[H]OC1([H])OC([H])([H])C2([H])N1C(c1nc3c([H])c([H])c([H])c([H])c3n1C([H])(C([H])([H])[H])C([H])([H])[H])(C([H])([H])[H])C1([H])C3([H])C([H])([H])C([H])([H])C1([H])C23[H]

$$$$
18:0:0
     RDKit          3D

 28 29  0  0  1  0  0  0  0  0999 V2000
    2.1823   -3.1104   -3.3011 C   0  0  0  0  0  0  0  0  0  0  0  0
    3.3559   -2.6011   -2.6032 N   0  0  0  0  0  0  0  0  0  0  0  0
    4.1754   -1.6337   -3.1451 C   0  0  0  0  0  0  0  0  0  0  0  0
    4.0527   -1.0210   -4.2118 O   0  0  0  0  0  0  0  0  0  0  0  0
    5.2222   -1.4996   -2.2911 O   0  0  0  0  0  0  0  0  0  0  0  0
    4.9830   -2.1746   -1.0734 C   0  0  2  0  0  0  0  0  0  0  0  0
    6.1517   -2.8249   -0.3151 C   0  0  1  0  0  0  0  0  0  0  0  0
    7.0789   -1.8517    0.1146 O   0  0  0  0  0  0  0  0  0  0  0  0
    5.5674   -3.5337    0.9372 C   0  0  1  0  0  0  0  0  0  0  0  0
    5.1493   -2.5293    1.8480 O   0  0  0  0  0  0  0  0  0  0  0  0
    4.3968   -4.5062    0.5676 C   0  0  1  0  0  0  0  0  0  0  0  0
    3.8052   -5.1054    1.6996 O   0  0  0  0  0  0  0  0  0  0  0  0
    3.3136   -3.9084   -0.3742 C   0  0  1  0  0  0  0  0  0  0  0  0
    2.6122   -2.8779    0.3106 O   0  0  0  0  0  0  0  0  0  0  0  0
    4.0624   -3.2842   -1.5612 C   0  0  1  0  0  0  0  0  0  0  0  0
    1.7350   -2.3351   -3.9252 H   0  0  0  0  0  0  0  0  0  0  0  0
    1.4308   -3.4467   -2.5867 H   0  0  0  0  0  0  0  0  0  0  0  0
    2.4710   -3.9383   -3.9472 H   0  0  0  0  0  0  0  0  0  0  0  0
    4.4583   -1.4686   -0.4192 H   0  0  0  0  0  0  0  0  0  0  0  0
    6.6482   -3.5576   -0.9527 H   0  0  0  0  0  0  0  0  0  0  0  0
    6.6508   -1.3540    0.8142 H   0  0  0  0  0  0  0  0  0  0  0  0
    6.3592   -4.1042    1.4244 H   0  0  0  0  0  0  0  0  0  0  0  0
    4.2921   -2.2117    1.5573 H   0  0  0  0  0  0  0  0  0  0  0  0
    4.8516   -5.3241    0.0115 H   0  0  0  0  0  0  0  0  0  0  0  0
    4.4959   -5.5346    2.1971 H   0  0  0  0  0  0  0  0  0  0  0  0
    2.6244   -4.7019   -0.7014 H   0  0  0  0  0  0  0  0  0  0  0  0
    2.0337   -2.4267   -0.3034 H   0  0  0  0  0  0  0  0  0  0  0  0
    4.6390   -4.0695   -2.0545 H   0  0  0  0  0  0  0  0  0  0  0  0
  1  2  1  0
  1 16  1  0
  1 17  1  0
  1 18  1  0
  2 15  1  0
  2  3  1  0
  3  4  2  0
  3  5  1  0
  5  6  1  0
  6 15  1  0
  6  7  1  0
  6 19  1  1
  7  8  1  0
  7  9  1  0
  7 20  1  6
  8 21  1  0
  9 10  1  0
  9 11  1  0
  9 22  1  1
 10 23  1  0
 11 12  1  0
 11 13  1  0
 11 24  1  6
 12 25  1  0
 13 14  1  0
 13 15  1  0
 13 26  1  6
 14 27  1  0
 15 28  1  6
M  END
>  <i_m_ct_stereo_status>  (51) 
1

>  <s_m_source_file>  (51) 
/var/tmp/pbs.5076255.sched01/tmpyb5u0fxv/0ob_ovo1_.sdf

>  <i_m_source_file_index>  (51) 
26

>  <i_lp_mmshare_version>  (51) 
48012

>  <i_f3d_flags>  (51) 
0

>  <s_epik_input>  (51) 
Tz1DKE8xKU4oW0NIM10pW0NAQEhdKFtDQEhdMTIpW0NASF0oW09IXSlbQ0BIXShbT0hdKVtDQEhdKFtPSF0pW0NAQEhdMltPSF0=

>  <s_epik_cmdline>  (51) 
J2VwaWtfcHl0aG9uJywgJy1waHQnLCAnMi4wJywgJy1waCcsICc3LjAnLCAnLXRuJywgJzgnLCAnLW1hJywgJzIwMCcsICctaW1hZScsICc8aW5maWxlLm1hZT4nLCAnLW9tYWUnLCAnPG91dGZpbGUubWFlPic=

>  <r_lp_tautomer_probability>  (51) 
1

>  <r_epik_Ionization_Penalty>  (51) 
2.64762e-06

>  <r_epik_Ionization_Penalty_Charging>  (51) 
0

>  <r_epik_Ionization_Penalty_Neutral>  (51) 
2.64762e-06

>  <r_epik_State_Penalty>  (51) 
-0

>  <r_epik_Charging_Adjusted_Penalty>  (51) 
0

>  <i_epik_Tot_Q>  (51) 
0

>  <i_epik_Tot_abs_Q>  (51) 
0

>  <s_epik_Chemistry_Notes>  (51) 
This compound has an ester and may undergo hydrolysis at high or low pH.

>  <s_lp_Force_Field>  (51) 
OPLS3e

>  <r_lp_Energy>  (51) 
11.2274

>  <b_lp_Chiralities_Consistent>  (51) 
1

>  <s_lp_Variant>  (51) 
18:0-1

>  <s_i_glide_gridfile>  (51) 
pfpi4k_grid

>  <i_i_glide_lignum>  (51) 
26

>  <i_i_glide_rotatable_bonds>  (51) 
4

>  <r_i_docking_score>  (51) 
-4.87251

>  <r_i_glide_ligand_efficiency>  (51) 
-0.324834

>  <r_i_glide_ligand_efficiency_sa>  (51) 
-0.80111

>  <r_i_glide_ligand_efficiency_ln>  (51) 
-1.31404

>  <r_i_glide_gscore>  (51) 
-4.87251

>  <r_i_glide_lipo>  (51) 
-0.331367

>  <r_i_glide_hbond>  (51) 
-0.0403539

>  <r_i_glide_metal>  (51) 
-0

>  <r_i_glide_rewards>  (51) 
-2.52413

>  <r_i_glide_evdw>  (51) 
-20.7147

>  <r_i_glide_ecoul>  (51) 
-6.09141

>  <r_i_glide_erotb>  (51) 
0

>  <r_i_glide_esite>  (51) 
-0.0272113

>  <r_i_glide_emodel>  (51) 
-40.0383

>  <r_i_glide_energy>  (51) 
-26.8062

>  <r_i_glide_einternal>  (51) 
1.30371

>  <r_i_glide_intrahb_reward>  (51) 
-0.5

>  <i_i_glide_confnum>  (51) 
1

>  <i_i_glide_posenum>  (51) 
5

>  <r_i_glide_eff_state_penalty>  (51) 
0

>  <ligand_id>  (51) 
18

>  <original_smiles>  (51) 
CN1C(=O)OC2C(O)C(O)C(O)C(O)C21

>  <smiles>  (51) 
[H]OC1([H])C([H])(O[H])C([H])(O[H])C2([H])N(C([H])([H])[H])C(=O)OC2([H])C1([H])O[H]

$$$$
18:0:1
     RDKit          3D

 28 29  0  0  1  0  0  0  0  0999 V2000
    2.2148   -2.9670   -3.6346 C   0  0  0  0  0  0  0  0  0  0  0  0
    3.2408   -2.3123   -2.8401 N   0  0  0  0  0  0  0  0  0  0  0  0
    3.9303   -1.1892   -3.2693 C   0  0  0  0  0  0  0  0  0  0  0  0
    3.7820   -0.5421   -4.3071 O   0  0  0  0  0  0  0  0  0  0  0  0
    4.8959   -0.9687   -2.3460 O   0  0  0  0  0  0  0  0  0  0  0  0
    4.6838   -1.7355   -1.1777 C   0  0  2  0  0  0  0  0  0  0  0  0
    5.8899   -2.2460   -0.3775 C   0  0  1  0  0  0  0  0  0  0  0  0
    6.6193   -1.1544    0.1408 O   0  0  0  0  0  0  0  0  0  0  0  0
    5.3544   -3.1045    0.7981 C   0  0  1  0  0  0  0  0  0  0  0  0
    4.7232   -2.2323    1.7268 O   0  0  0  0  0  0  0  0  0  0  0  0
    4.3898   -4.2319    0.3005 C   0  0  1  0  0  0  0  0  0  0  0  0
    3.8613   -4.9754    1.3784 O   0  0  0  0  0  0  0  0  0  0  0  0
    3.2718   -3.7736   -0.6880 C   0  0  1  0  0  0  0  0  0  0  0  0
    2.2975   -3.0329    0.0217 O   0  0  0  0  0  0  0  0  0  0  0  0
    3.9800   -2.9376   -1.7766 C   0  0  1  0  0  0  0  0  0  0  0  0
    1.6774   -2.2551   -4.2664 H   0  0  0  0  0  0  0  0  0  0  0  0
    1.4879   -3.4522   -2.9822 H   0  0  0  0  0  0  0  0  0  0  0  0
    2.6689   -3.7107   -4.2919 H   0  0  0  0  0  0  0  0  0  0  0  0
    4.0151   -1.1594   -0.5308 H   0  0  0  0  0  0  0  0  0  0  0  0
    6.5381   -2.8579   -1.0044 H   0  0  0  0  0  0  0  0  0  0  0  0
    6.0481   -0.7085    0.7568 H   0  0  0  0  0  0  0  0  0  0  0  0
    6.1932   -3.5781    1.3132 H   0  0  0  0  0  0  0  0  0  0  0  0
    3.8426   -2.0475    1.4066 H   0  0  0  0  0  0  0  0  0  0  0  0
    5.0088   -4.9286   -0.2632 H   0  0  0  0  0  0  0  0  0  0  0  0
    3.4106   -5.7337    1.0203 H   0  0  0  0  0  0  0  0  0  0  0  0
    2.7641   -4.6418   -1.1124 H   0  0  0  0  0  0  0  0  0  0  0  0
    1.8601   -2.4181   -0.5820 H   0  0  0  0  0  0  0  0  0  0  0  0
    4.7025   -3.5842   -2.2792 H   0  0  0  0  0  0  0  0  0  0  0  0
  1  2  1  0
  1 16  1  0
  1 17  1  0
  1 18  1  0
  2 15  1  0
  2  3  1  0
  3  4  2  0
  3  5  1  0
  5  6  1  0
  6 15  1  0
  6  7  1  0
  6 19  1  1
  7  8  1  0
  7  9  1  0
  7 20  1  6
  8 21  1  0
  9 10  1  0
  9 11  1  0
  9 22  1  1
 10 23  1  0
 11 12  1  0
 11 13  1  0
 11 24  1  6
 12 25  1  0
 13 14  1  0
 13 15  1  0
 13 26  1  6
 14 27  1  0
 15 28  1  6
M  END
>  <i_m_ct_stereo_status>  (52) 
1

>  <s_m_source_file>  (52) 
/var/tmp/pbs.5076255.sched01/tmpyb5u0fxv/0ob_ovo1_.sdf

>  <i_m_source_file_index>  (52) 
26

>  <i_lp_mmshare_version>  (52) 
48012

>  <i_f3d_flags>  (52) 
0

>  <s_epik_input>  (52) 
Tz1DKE8xKU4oW0NIM10pW0NAQEhdKFtDQEhdMTIpW0NASF0oW09IXSlbQ0BIXShbT0hdKVtDQEhdKFtPSF0pW0NAQEhdMltPSF0=

>  <s_epik_cmdline>  (52) 
J2VwaWtfcHl0aG9uJywgJy1waHQnLCAnMi4wJywgJy1waCcsICc3LjAnLCAnLXRuJywgJzgnLCAnLW1hJywgJzIwMCcsICctaW1hZScsICc8aW5maWxlLm1hZT4nLCAnLW9tYWUnLCAnPG91dGZpbGUubWFlPic=

>  <r_lp_tautomer_probability>  (52) 
1

>  <r_epik_Ionization_Penalty>  (52) 
2.64762e-06

>  <r_epik_Ionization_Penalty_Charging>  (52) 
0

>  <r_epik_Ionization_Penalty_Neutral>  (52) 
2.64762e-06

>  <r_epik_State_Penalty>  (52) 
-0

>  <r_epik_Charging_Adjusted_Penalty>  (52) 
0

>  <i_epik_Tot_Q>  (52) 
0

>  <i_epik_Tot_abs_Q>  (52) 
0

>  <s_epik_Chemistry_Notes>  (52) 
This compound has an ester and may undergo hydrolysis at high or low pH.

>  <s_lp_Force_Field>  (52) 
OPLS3e

>  <r_lp_Energy>  (52) 
11.2274

>  <b_lp_Chiralities_Consistent>  (52) 
1

>  <s_lp_Variant>  (52) 
18:0-1

>  <s_i_glide_gridfile>  (52) 
pfpi4k_grid

>  <i_i_glide_lignum>  (52) 
26

>  <i_i_glide_rotatable_bonds>  (52) 
4

>  <r_i_docking_score>  (52) 
-4.8487

>  <r_i_glide_ligand_efficiency>  (52) 
-0.323247

>  <r_i_glide_ligand_efficiency_sa>  (52) 
-0.797194

>  <r_i_glide_ligand_efficiency_ln>  (52) 
-1.30761

>  <r_i_glide_gscore>  (52) 
-4.8487

>  <r_i_glide_lipo>  (52) 
-0.328098

>  <r_i_glide_hbond>  (52) 
0

>  <r_i_glide_metal>  (52) 
-0

>  <r_i_glide_rewards>  (52) 
-2.57706

>  <r_i_glide_evdw>  (52) 
-19.0974

>  <r_i_glide_ecoul>  (52) 
-6.53359

>  <r_i_glide_erotb>  (52) 
0

>  <r_i_glide_esite>  (52) 
-0.00863011

>  <r_i_glide_emodel>  (52) 
-38.5426

>  <r_i_glide_energy>  (52) 
-25.631

>  <r_i_glide_einternal>  (52) 
1.49493

>  <r_i_glide_intrahb_reward>  (52) 
-0.5

>  <i_i_glide_confnum>  (52) 
1

>  <i_i_glide_posenum>  (52) 
21

>  <r_i_glide_eff_state_penalty>  (52) 
0

>  <ligand_id>  (52) 
18

>  <original_smiles>  (52) 
CN1C(=O)OC2C(O)C(O)C(O)C(O)C21

>  <smiles>  (52) 
[H]OC1([H])C([H])(O[H])C([H])(O[H])C2([H])N(C([H])([H])[H])C(=O)OC2([H])C1([H])O[H]

$$$$
18:0:2
     RDKit          3D

 28 29  0  0  1  0  0  0  0  0999 V2000
    1.2469   -4.3439   -1.5266 C   0  0  0  0  0  0  0  0  0  0  0  0
    2.3315   -4.1628   -0.5973 N   0  0  0  0  0  0  0  0  0  0  0  0
    2.5434   -4.9622    0.5186 C   0  0  0  0  0  0  0  0  0  0  0  0
    1.8843   -5.9333    0.8855 O   0  0  0  0  0  0  0  0  0  0  0  0
    3.5702   -4.4050    1.1772 O   0  0  0  0  0  0  0  0  0  0  0  0
    4.2558   -3.4578    0.3683 C   0  0  2  0  0  0  0  0  0  0  0  0
    4.9028   -2.2195    0.9812 C   0  0  1  0  0  0  0  0  0  0  0  0
    5.9127   -2.6260    1.8786 O   0  0  0  0  0  0  0  0  0  0  0  0
    5.5119   -1.3552   -0.1556 C   0  0  1  0  0  0  0  0  0  0  0  0
    6.6504   -1.9805   -0.7304 O   0  0  0  0  0  0  0  0  0  0  0  0
    4.4509   -1.0477   -1.2431 C   0  0  1  0  0  0  0  0  0  0  0  0
    4.9509   -0.2774   -2.3211 O   0  0  0  0  0  0  0  0  0  0  0  0
    3.6098   -2.2548   -1.7492 C   0  0  1  0  0  0  0  0  0  0  0  0
    4.3965   -3.1627   -2.5068 O   0  0  0  0  0  0  0  0  0  0  0  0
    3.1064   -2.9612   -0.4942 C   0  0  1  0  0  0  0  0  0  0  0  0
    0.9262   -5.3987   -1.5405 H   0  0  0  0  0  0  0  0  0  0  0  0
    1.5712   -4.0720   -2.5304 H   0  0  0  0  0  0  0  0  0  0  0  0
    0.3889   -3.7052   -1.3147 H   0  0  0  0  0  0  0  0  0  0  0  0
    4.9944   -4.0136   -0.2132 H   0  0  0  0  0  0  0  0  0  0  0  0
    4.1564   -1.6454    1.5416 H   0  0  0  0  0  0  0  0  0  0  0  0
    5.5030   -3.1797    2.5288 H   0  0  0  0  0  0  0  0  0  0  0  0
    5.8413   -0.4125    0.2761 H   0  0  0  0  0  0  0  0  0  0  0  0
    6.3640   -2.8085   -1.0879 H   0  0  0  0  0  0  0  0  0  0  0  0
    3.7619   -0.4032   -0.7232 H   0  0  0  0  0  0  0  0  0  0  0  0
    4.2079    0.1412   -2.7428 H   0  0  0  0  0  0  0  0  0  0  0  0
    2.7631   -1.9191   -2.3481 H   0  0  0  0  0  0  0  0  0  0  0  0
    3.8733   -3.9212   -2.7485 H   0  0  0  0  0  0  0  0  0  0  0  0
    2.4870   -2.2625    0.0798 H   0  0  0  0  0  0  0  0  0  0  0  0
  1  2  1  0
  1 16  1  0
  1 17  1  0
  1 18  1  0
  2 15  1  0
  2  3  1  0
  3  4  2  0
  3  5  1  0
  5  6  1  0
  6 15  1  0
  6  7  1  0
  6 19  1  6
  7  8  1  0
  7  9  1  0
  7 20  1  1
  8 21  1  0
  9 10  1  0
  9 11  1  0
  9 22  1  1
 10 23  1  0
 11 12  1  0
 11 13  1  0
 11 24  1  1
 12 25  1  0
 13 14  1  0
 13 15  1  0
 13 26  1  6
 14 27  1  0
 15 28  1  1
M  END
>  <i_m_ct_stereo_status>  (53) 
1

>  <s_m_source_file>  (53) 
/var/tmp/pbs.5076255.sched01/tmpyb5u0fxv/0ob_ovo1_.sdf

>  <i_m_source_file_index>  (53) 
26

>  <i_lp_mmshare_version>  (53) 
48012

>  <i_f3d_flags>  (53) 
0

>  <s_epik_input>  (53) 
Tz1DKE8xKU4oW0NIM10pW0NAQEhdKFtDQEhdMTIpW0NASF0oW09IXSlbQ0BIXShbT0hdKVtDQEhdKFtPSF0pW0NAQEhdMltPSF0=

>  <s_epik_cmdline>  (53) 
J2VwaWtfcHl0aG9uJywgJy1waHQnLCAnMi4wJywgJy1waCcsICc3LjAnLCAnLXRuJywgJzgnLCAnLW1hJywgJzIwMCcsICctaW1hZScsICc8aW5maWxlLm1hZT4nLCAnLW9tYWUnLCAnPG91dGZpbGUubWFlPic=

>  <r_lp_tautomer_probability>  (53) 
1

>  <r_epik_Ionization_Penalty>  (53) 
2.64762e-06

>  <r_epik_Ionization_Penalty_Charging>  (53) 
0

>  <r_epik_Ionization_Penalty_Neutral>  (53) 
2.64762e-06

>  <r_epik_State_Penalty>  (53) 
-0

>  <r_epik_Charging_Adjusted_Penalty>  (53) 
0

>  <i_epik_Tot_Q>  (53) 
0

>  <i_epik_Tot_abs_Q>  (53) 
0

>  <s_epik_Chemistry_Notes>  (53) 
This compound has an ester and may undergo hydrolysis at high or low pH.

>  <s_lp_Force_Field>  (53) 
OPLS3e

>  <r_lp_Energy>  (53) 
11.2274

>  <b_lp_Chiralities_Consistent>  (53) 
1

>  <s_lp_Variant>  (53) 
18:0-1

>  <s_i_glide_gridfile>  (53) 
pfpi4k_grid

>  <i_i_glide_lignum>  (53) 
26

>  <i_i_glide_rotatable_bonds>  (53) 
4

>  <r_i_docking_score>  (53) 
-4.33502

>  <r_i_glide_ligand_efficiency>  (53) 
-0.289001

>  <r_i_glide_ligand_efficiency_sa>  (53) 
-0.712739

>  <r_i_glide_ligand_efficiency_ln>  (53) 
-1.16908

>  <r_i_glide_gscore>  (53) 
-4.33502

>  <r_i_glide_lipo>  (53) 
-0.05144

>  <r_i_glide_hbond>  (53) 
-0.0304182

>  <r_i_glide_metal>  (53) 
-0

>  <r_i_glide_rewards>  (53) 
-2.4146

>  <r_i_glide_evdw>  (53) 
-10.6825

>  <r_i_glide_ecoul>  (53) 
-7.97328

>  <r_i_glide_erotb>  (53) 
0

>  <r_i_glide_esite>  (53) 
-0.108444

>  <r_i_glide_emodel>  (53) 
-30.897

>  <r_i_glide_energy>  (53) 
-18.6558

>  <r_i_glide_einternal>  (53) 
1.33388

>  <r_i_glide_intrahb_reward>  (53) 
-0.5

>  <i_i_glide_confnum>  (53) 
2

>  <i_i_glide_posenum>  (53) 
17

>  <r_i_glide_eff_state_penalty>  (53) 
0

>  <ligand_id>  (53) 
18

>  <original_smiles>  (53) 
CN1C(=O)OC2C(O)C(O)C(O)C(O)C21

>  <smiles>  (53) 
[H]OC1([H])C([H])(O[H])C([H])(O[H])C2([H])N(C([H])([H])[H])C(=O)OC2([H])C1([H])O[H]

$$$$
19:0:0
     RDKit          3D

 27 28  0  0  1  0  0  0  0  0999 V2000
    4.2078   -7.6815    1.1268 C   0  0  0  0  0  0  0  0  0  0  0  0
    3.0177   -6.7180    1.1316 C   0  0  0  0  0  0  0  0  0  0  0  0
    1.8747   -7.3766    1.6667 O   0  0  0  0  0  0  0  0  0  0  0  0
    0.6392   -7.0474    1.2325 C   0  0  0  0  0  0  0  0  0  0  0  0
    0.3911   -6.2544    0.3315 O   0  0  0  0  0  0  0  0  0  0  0  0
   -0.4983   -7.7465    1.9688 C   0  0  0  0  0  0  0  0  0  0  0  0
   -0.2365   -8.1204    3.3287 N   0  0  0  0  0  0  0  0  0  0  0  0
   -0.5527   -7.4325    4.4454 C   0  0  0  0  0  0  0  0  0  0  0  0
   -0.1770   -7.9589    5.6058 N   0  0  0  0  0  0  0  0  0  0  0  0
    0.4495   -9.1210    5.1892 C   0  0  0  0  0  0  0  0  0  0  0  0
    1.0742  -10.1496    5.9190 C   0  0  0  0  0  0  0  0  0  0  0  0
    1.6326  -11.1955    5.2742 N   0  0  0  0  0  0  0  0  0  0  0  0
    1.6349  -11.3475    3.9285 C   0  0  0  0  0  0  0  0  0  0  0  0
    1.0288  -10.3555    3.1317 C   0  0  0  0  0  0  0  0  0  0  0  0
    0.4320   -9.2484    3.7711 C   0  0  0  0  0  0  0  0  0  0  0  0
    5.1050   -7.1868    0.7543 H   0  0  0  0  0  0  0  0  0  0  0  0
    4.0158   -8.5460    0.4903 H   0  0  0  0  0  0  0  0  0  0  0  0
    4.4228   -8.0449    2.1321 H   0  0  0  0  0  0  0  0  0  0  0  0
    3.2396   -5.8516    1.7546 H   0  0  0  0  0  0  0  0  0  0  0  0
    2.8543   -6.3413    0.1188 H   0  0  0  0  0  0  0  0  0  0  0  0
   -1.3613   -7.0794    1.9687 H   0  0  0  0  0  0  0  0  0  0  0  0
   -0.7988   -8.6356    1.4124 H   0  0  0  0  0  0  0  0  0  0  0  0
   -1.0780   -6.4902    4.4125 H   0  0  0  0  0  0  0  0  0  0  0  0
    1.1163  -10.1953    6.9975 H   0  0  0  0  0  0  0  0  0  0  0  0
    2.0918  -12.2479    3.5365 H   0  0  0  0  0  0  0  0  0  0  0  0
    1.0150  -10.4344    2.0574 H   0  0  0  0  0  0  0  0  0  0  0  0
    2.0067  -11.9415    5.8790 H   0  0  0  0  0  0  0  0  0  0  0  0
  1  2  1  0
  1 16  1  0
  1 17  1  0
  1 18  1  0
  2  3  1  0
  2 19  1  0
  2 20  1  0
  3  4  1  0
  4  5  2  0
  4  6  1  0
  6  7  1  0
  6 21  1  0
  6 22  1  0
  7 15  1  0
  7  8  1  0
  8  9  2  0
  8 23  1  0
  9 10  1  0
 10 15  2  0
 10 11  1  0
 11 12  2  0
 11 24  1  0
 12 13  1  0
 12 27  1  0
 13 14  2  0
 13 25  1  0
 14 15  1  0
 14 26  1  0
M  CHG  1  12   1
M  END
>  <i_m_ct_stereo_status>  (54) 
1

>  <s_m_source_file>  (54) 
/var/tmp/pbs.5076255.sched01/tmpyb5u0fxv/0ob_ovo1_.sdf

>  <i_m_source_file_index>  (54) 
27

>  <i_lp_mmshare_version>  (54) 
48012

>  <i_f3d_flags>  (54) 
0

>  <s_epik_input>  (54) 
W0NIM11bQ0gyXU9DKD1PKVtDSDJdbihbY0hdbjEpYyhjMTIpW2NIXVtjSF1uW2NIXTI=

>  <s_epik_cmdline>  (54) 
J2VwaWtfcHl0aG9uJywgJy1waHQnLCAnMi4wJywgJy1waCcsICc3LjAnLCAnLXRuJywgJzgnLCAnLW1hJywgJzIwMCcsICctaW1hZScsICc8aW5maWxlLm1hZT4nLCAnLW9tYWUnLCAnPG91dGZpbGUubWFlPic=

>  <r_lp_tautomer_probability>  (54) 
0.99991

>  <r_epik_Ionization_Penalty>  (54) 
1.19368

>  <r_epik_Ionization_Penalty_Charging>  (54) 
4.74115e-07

>  <r_epik_Ionization_Penalty_Neutral>  (54) 
1.19367

>  <r_epik_State_Penalty>  (54) 
0.125807

>  <r_epik_Charging_Adjusted_Penalty>  (54) 
0.125807

>  <i_epik_Tot_Q>  (54) 
1

>  <i_epik_Tot_abs_Q>  (54) 
1

>  <s_epik_Chemistry_Notes>  (54) 
This compound has an ester and may undergo hydrolysis at high or low pH.

>  <s_lp_Force_Field>  (54) 
OPLS3e

>  <r_lp_Energy>  (54) 
17.3358

>  <b_lp_Chiralities_Consistent>  (54) 
1

>  <s_lp_Variant>  (54) 
19:0-1

>  <s_i_glide_gridfile>  (54) 
pfpi4k_grid

>  <i_i_glide_lignum>  (54) 
27

>  <i_i_glide_rotatable_bonds>  (54) 
4

>  <r_i_docking_score>  (54) 
-5.33285

>  <r_i_glide_ligand_efficiency>  (54) 
-0.355523

>  <r_i_glide_ligand_efficiency_sa>  (54) 
-0.876796

>  <r_i_glide_ligand_efficiency_ln>  (54) 
-1.43818

>  <r_i_glide_gscore>  (54) 
-5.33285

>  <r_i_glide_lipo>  (54) 
-0.326722

>  <r_i_glide_hbond>  (54) 
-0.406519

>  <r_i_glide_metal>  (54) 
-0

>  <r_i_glide_rewards>  (54) 
-2.53304

>  <r_i_glide_evdw>  (54) 
-16.0416

>  <r_i_glide_ecoul>  (54) 
-10.2418

>  <r_i_glide_erotb>  (54) 
0.543157

>  <r_i_glide_esite>  (54) 
-0.271384

>  <r_i_glide_emodel>  (54) 
-38.7198

>  <r_i_glide_energy>  (54) 
-26.2834

>  <r_i_glide_einternal>  (54) 
1.54797

>  <r_i_glide_intrahb_reward>  (54) 
-0

>  <i_i_glide_confnum>  (54) 
1

>  <i_i_glide_posenum>  (54) 
12

>  <r_i_glide_eff_state_penalty>  (54) 
0

>  <ligand_id>  (54) 
19

>  <original_smiles>  (54) 
CCOC(=O)Cn1cnc2cnccc21

>  <smiles>  (54) 
[H]c1c([H])[n+]([H])c([H])c2nc([H])n(C([H])([H])C(=O)OC([H])([H])C([H])([H])[H])c12

$$$$
19:0:1
     RDKit          3D

 27 28  0  0  1  0  0  0  0  0999 V2000
   -2.1043   -8.0012    3.1842 C   0  0  0  0  0  0  0  0  0  0  0  0
   -0.8793   -7.3174    3.8040 C   0  0  0  0  0  0  0  0  0  0  0  0
    0.3084   -7.7431    3.1631 O   0  0  0  0  0  0  0  0  0  0  0  0
    0.7145   -7.2203    1.9956 C   0  0  0  0  0  0  0  0  0  0  0  0
    0.1871   -6.2637    1.4104 O   0  0  0  0  0  0  0  0  0  0  0  0
    1.8882   -7.9803    1.3731 C   0  0  0  0  0  0  0  0  0  0  0  0
    2.7245   -8.7882    2.2448 N   0  0  0  0  0  0  0  0  0  0  0  0
    4.0513   -8.6488    2.4460 C   0  0  0  0  0  0  0  0  0  0  0  0
    4.6127   -9.4695    3.3286 N   0  0  0  0  0  0  0  0  0  0  0  0
    3.5323  -10.2572    3.7138 C   0  0  0  0  0  0  0  0  0  0  0  0
    3.4389  -11.3101    4.6540 C   0  0  0  0  0  0  0  0  0  0  0  0
    2.2417  -11.8873    4.8826 N   0  0  0  0  0  0  0  0  0  0  0  0
    1.0971  -11.5522    4.2544 C   0  0  0  0  0  0  0  0  0  0  0  0
    1.1303  -10.5435    3.2789 C   0  0  0  0  0  0  0  0  0  0  0  0
    2.3474   -9.8773    3.0347 C   0  0  0  0  0  0  0  0  0  0  0  0
   -3.0011   -7.6405    3.6778 H   0  0  0  0  0  0  0  0  0  0  0  0
   -2.0757   -9.0885    3.2956 H   0  0  0  0  0  0  0  0  0  0  0  0
   -2.1934   -7.7820    2.1206 H   0  0  0  0  0  0  0  0  0  0  0  0
   -0.9586   -6.2321    3.7830 H   0  0  0  0  0  0  0  0  0  0  0  0
   -0.8015   -7.6120    4.8501 H   0  0  0  0  0  0  0  0  0  0  0  0
    1.4976   -8.6395    0.6079 H   0  0  0  0  0  0  0  0  0  0  0  0
    2.5256   -7.2503    0.8805 H   0  0  0  0  0  0  0  0  0  0  0  0
    4.6318   -7.8890    1.9286 H   0  0  0  0  0  0  0  0  0  0  0  0
    4.2644  -11.6730    5.2460 H   0  0  0  0  0  0  0  0  0  0  0  0
    0.1909  -12.0602    4.5654 H   0  0  0  0  0  0  0  0  0  0  0  0
    0.2251  -10.2525    2.7810 H   0  0  0  0  0  0  0  0  0  0  0  0
    2.1844  -12.6057    5.6118 H   0  0  0  0  0  0  0  0  0  0  0  0
  1  2  1  0
  1 16  1  0
  1 17  1  0
  1 18  1  0
  2  3  1  0
  2 19  1  0
  2 20  1  0
  3  4  1  0
  4  5  2  0
  4  6  1  0
  6  7  1  0
  6 21  1  0
  6 22  1  0
  7 15  1  0
  7  8  1  0
  8  9  2  0
  8 23  1  0
  9 10  1  0
 10 15  2  0
 10 11  1  0
 11 12  2  0
 11 24  1  0
 12 13  1  0
 12 27  1  0
 13 14  2  0
 13 25  1  0
 14 15  1  0
 14 26  1  0
M  CHG  1  12   1
M  END
>  <i_m_ct_stereo_status>  (55) 
1

>  <s_m_source_file>  (55) 
/var/tmp/pbs.5076255.sched01/tmpyb5u0fxv/0ob_ovo1_.sdf

>  <i_m_source_file_index>  (55) 
27

>  <i_lp_mmshare_version>  (55) 
48012

>  <i_f3d_flags>  (55) 
0

>  <s_epik_input>  (55) 
W0NIM11bQ0gyXU9DKD1PKVtDSDJdbihbY0hdbjEpYyhjMTIpW2NIXVtjSF1uW2NIXTI=

>  <s_epik_cmdline>  (55) 
J2VwaWtfcHl0aG9uJywgJy1waHQnLCAnMi4wJywgJy1waCcsICc3LjAnLCAnLXRuJywgJzgnLCAnLW1hJywgJzIwMCcsICctaW1hZScsICc8aW5maWxlLm1hZT4nLCAnLW9tYWUnLCAnPG91dGZpbGUubWFlPic=

>  <r_lp_tautomer_probability>  (55) 
0.99991

>  <r_epik_Ionization_Penalty>  (55) 
1.19368

>  <r_epik_Ionization_Penalty_Charging>  (55) 
4.74115e-07

>  <r_epik_Ionization_Penalty_Neutral>  (55) 
1.19367

>  <r_epik_State_Penalty>  (55) 
0.125807

>  <r_epik_Charging_Adjusted_Penalty>  (55) 
0.125807

>  <i_epik_Tot_Q>  (55) 
1

>  <i_epik_Tot_abs_Q>  (55) 
1

>  <s_epik_Chemistry_Notes>  (55) 
This compound has an ester and may undergo hydrolysis at high or low pH.

>  <s_lp_Force_Field>  (55) 
OPLS3e

>  <r_lp_Energy>  (55) 
17.3358

>  <b_lp_Chiralities_Consistent>  (55) 
1

>  <s_lp_Variant>  (55) 
19:0-1

>  <s_i_glide_gridfile>  (55) 
pfpi4k_grid

>  <i_i_glide_lignum>  (55) 
27

>  <i_i_glide_rotatable_bonds>  (55) 
4

>  <r_i_docking_score>  (55) 
-4.6885

>  <r_i_glide_ligand_efficiency>  (55) 
-0.312567

>  <r_i_glide_ligand_efficiency_sa>  (55) 
-0.770856

>  <r_i_glide_ligand_efficiency_ln>  (55) 
-1.26441

>  <r_i_glide_gscore>  (55) 
-4.6885

>  <r_i_glide_lipo>  (55) 
-0.281742

>  <r_i_glide_hbond>  (55) 
-0.455634

>  <r_i_glide_metal>  (55) 
-0

>  <r_i_glide_rewards>  (55) 
-2.53304

>  <r_i_glide_evdw>  (55) 
-17.2196

>  <r_i_glide_ecoul>  (55) 
-6.29566

>  <r_i_glide_erotb>  (55) 
0.543157

>  <r_i_glide_esite>  (55) 
-0.155915

>  <r_i_glide_emodel>  (55) 
-34.134

>  <r_i_glide_energy>  (55) 
-23.5153

>  <r_i_glide_einternal>  (55) 
1.64305

>  <r_i_glide_intrahb_reward>  (55) 
-0

>  <i_i_glide_confnum>  (55) 
4

>  <i_i_glide_posenum>  (55) 
23

>  <r_i_glide_eff_state_penalty>  (55) 
0

>  <ligand_id>  (55) 
19

>  <original_smiles>  (55) 
CCOC(=O)Cn1cnc2cnccc21

>  <smiles>  (55) 
[H]c1c([H])[n+]([H])c([H])c2nc([H])n(C([H])([H])C(=O)OC([H])([H])C([H])([H])[H])c12

$$$$
19:0:2
     RDKit          3D

 27 28  0  0  1  0  0  0  0  0999 V2000
    1.0791    0.5690    2.2577 C   0  0  0  0  0  0  0  0  0  0  0  0
    2.4520    1.2459    2.1802 C   0  0  0  0  0  0  0  0  0  0  0  0
    3.2994    0.5327    1.2864 O   0  0  0  0  0  0  0  0  0  0  0  0
    4.2642   -0.2778    1.7621 C   0  0  0  0  0  0  0  0  0  0  0  0
    4.5604   -0.4406    2.9457 O   0  0  0  0  0  0  0  0  0  0  0  0
    5.0123   -1.0178    0.6588 C   0  0  0  0  0  0  0  0  0  0  0  0
    4.2040   -1.9190   -0.1338 N   0  0  0  0  0  0  0  0  0  0  0  0
    3.6613   -3.0871    0.2714 C   0  0  0  0  0  0  0  0  0  0  0  0
    2.9274   -3.7570   -0.6118 N   0  0  0  0  0  0  0  0  0  0  0  0
    3.0152   -2.9355   -1.7230 C   0  0  0  0  0  0  0  0  0  0  0  0
    2.4434   -3.0542   -3.0104 C   0  0  0  0  0  0  0  0  0  0  0  0
    2.6573   -2.0844   -3.9269 N   0  0  0  0  0  0  0  0  0  0  0  0
    3.4160   -0.9821   -3.7079 C   0  0  0  0  0  0  0  0  0  0  0  0
    4.0285   -0.8073   -2.4544 C   0  0  0  0  0  0  0  0  0  0  0  0
    3.8145   -1.7822   -1.4599 C   0  0  0  0  0  0  0  0  0  0  0  0
    0.4190    1.1105    2.9352 H   0  0  0  0  0  0  0  0  0  0  0  0
    1.1651   -0.4554    2.6178 H   0  0  0  0  0  0  0  0  0  0  0  0
    0.5993    0.5443    1.2784 H   0  0  0  0  0  0  0  0  0  0  0  0
    2.3356    2.2669    1.8191 H   0  0  0  0  0  0  0  0  0  0  0  0
    2.8848    1.3298    3.1800 H   0  0  0  0  0  0  0  0  0  0  0  0
    5.4902   -0.2964   -0.0020 H   0  0  0  0  0  0  0  0  0  0  0  0
    5.8086   -1.6031    1.1139 H   0  0  0  0  0  0  0  0  0  0  0  0
    3.8103   -3.4688    1.2717 H   0  0  0  0  0  0  0  0  0  0  0  0
    1.8140   -3.8761   -3.3134 H   0  0  0  0  0  0  0  0  0  0  0  0
    3.4909   -0.2743   -4.5222 H   0  0  0  0  0  0  0  0  0  0  0  0
    4.6016    0.0794   -2.2411 H   0  0  0  0  0  0  0  0  0  0  0  0
    2.2094   -2.1839   -4.8466 H   0  0  0  0  0  0  0  0  0  0  0  0
  1  2  1  0
  1 16  1  0
  1 17  1  0
  1 18  1  0
  2  3  1  0
  2 19  1  0
  2 20  1  0
  3  4  1  0
  4  5  2  0
  4  6  1  0
  6  7  1  0
  6 21  1  0
  6 22  1  0
  7 15  1  0
  7  8  1  0
  8  9  2  0
  8 23  1  0
  9 10  1  0
 10 15  2  0
 10 11  1  0
 11 12  2  0
 11 24  1  0
 12 13  1  0
 12 27  1  0
 13 14  2  0
 13 25  1  0
 14 15  1  0
 14 26  1  0
M  CHG  1  12   1
M  END
>  <i_m_ct_stereo_status>  (56) 
1

>  <s_m_source_file>  (56) 
/var/tmp/pbs.5076255.sched01/tmpyb5u0fxv/0ob_ovo1_.sdf

>  <i_m_source_file_index>  (56) 
27

>  <i_lp_mmshare_version>  (56) 
48012

>  <i_f3d_flags>  (56) 
0

>  <s_epik_input>  (56) 
W0NIM11bQ0gyXU9DKD1PKVtDSDJdbihbY0hdbjEpYyhjMTIpW2NIXVtjSF1uW2NIXTI=

>  <s_epik_cmdline>  (56) 
J2VwaWtfcHl0aG9uJywgJy1waHQnLCAnMi4wJywgJy1waCcsICc3LjAnLCAnLXRuJywgJzgnLCAnLW1hJywgJzIwMCcsICctaW1hZScsICc8aW5maWxlLm1hZT4nLCAnLW9tYWUnLCAnPG91dGZpbGUubWFlPic=

>  <r_lp_tautomer_probability>  (56) 
0.99991

>  <r_epik_Ionization_Penalty>  (56) 
1.19368

>  <r_epik_Ionization_Penalty_Charging>  (56) 
4.74115e-07

>  <r_epik_Ionization_Penalty_Neutral>  (56) 
1.19367

>  <r_epik_State_Penalty>  (56) 
0.125807

>  <r_epik_Charging_Adjusted_Penalty>  (56) 
0.125807

>  <i_epik_Tot_Q>  (56) 
1

>  <i_epik_Tot_abs_Q>  (56) 
1

>  <s_epik_Chemistry_Notes>  (56) 
This compound has an ester and may undergo hydrolysis at high or low pH.

>  <s_lp_Force_Field>  (56) 
OPLS3e

>  <r_lp_Energy>  (56) 
17.3358

>  <b_lp_Chiralities_Consistent>  (56) 
1

>  <s_lp_Variant>  (56) 
19:0-1

>  <s_i_glide_gridfile>  (56) 
pfpi4k_grid

>  <i_i_glide_lignum>  (56) 
27

>  <i_i_glide_rotatable_bonds>  (56) 
4

>  <r_i_docking_score>  (56) 
-3.93971

>  <r_i_glide_ligand_efficiency>  (56) 
-0.262647

>  <r_i_glide_ligand_efficiency_sa>  (56) 
-0.647744

>  <r_i_glide_ligand_efficiency_ln>  (56) 
-1.06247

>  <r_i_glide_gscore>  (56) 
-3.93971

>  <r_i_glide_lipo>  (56) 
-0.471606

>  <r_i_glide_hbond>  (56) 
0

>  <r_i_glide_metal>  (56) 
-0

>  <r_i_glide_rewards>  (56) 
-2.12677

>  <r_i_glide_evdw>  (56) 
-21.2997

>  <r_i_glide_ecoul>  (56) 
-6.81387

>  <r_i_glide_erotb>  (56) 
0.775939

>  <r_i_glide_esite>  (56) 
-0.0302052

>  <r_i_glide_emodel>  (56) 
-37.6435

>  <r_i_glide_energy>  (56) 
-28.1136

>  <r_i_glide_einternal>  (56) 
0.651989

>  <r_i_glide_intrahb_reward>  (56) 
-0

>  <i_i_glide_confnum>  (56) 
3

>  <i_i_glide_posenum>  (56) 
7

>  <r_i_glide_eff_state_penalty>  (56) 
0

>  <ligand_id>  (56) 
19

>  <original_smiles>  (56) 
CCOC(=O)Cn1cnc2cnccc21

>  <smiles>  (56) 
[H]c1c([H])[n+]([H])c([H])c2nc([H])n(C([H])([H])C(=O)OC([H])([H])C([H])([H])[H])c12

$$$$
19:1:0
     RDKit          3D

 26 27  0  0  1  0  0  0  0  0999 V2000
    2.5380    0.7008   -5.3517 C   0  0  0  0  0  0  0  0  0  0  0  0
    3.3491    0.1657   -4.1817 C   0  0  0  0  0  0  0  0  0  0  0  0
    3.7920   -1.1519   -4.4695 O   0  0  0  0  0  0  0  0  0  0  0  0
    4.1515   -2.0093   -3.4905 C   0  0  0  0  0  0  0  0  0  0  0  0
    4.5084   -3.1641   -3.7236 O   0  0  0  0  0  0  0  0  0  0  0  0
    4.1179   -1.4472   -2.0560 C   0  0  0  0  0  0  0  0  0  0  0  0
    4.5301   -2.3371   -0.9959 N   0  0  0  0  0  0  0  0  0  0  0  0
    3.7561   -2.8235   -0.0083 C   0  0  0  0  0  0  0  0  0  0  0  0
    4.3440   -3.6291    0.8744 N   0  0  0  0  0  0  0  0  0  0  0  0
    5.6494   -3.6541    0.4061 C   0  0  0  0  0  0  0  0  0  0  0  0
    6.7989   -4.3320    0.8883 C   0  0  0  0  0  0  0  0  0  0  0  0
    8.0031   -4.2123    0.2698 N   0  0  0  0  0  0  0  0  0  0  0  0
    8.1141   -3.4495   -0.8392 C   0  0  0  0  0  0  0  0  0  0  0  0
    7.0384   -2.7460   -1.4022 C   0  0  0  0  0  0  0  0  0  0  0  0
    5.7956   -2.8517   -0.7625 C   0  0  0  0  0  0  0  0  0  0  0  0
    2.1862    1.7063   -5.1269 H   0  0  0  0  0  0  0  0  0  0  0  0
    1.6629    0.0739   -5.5187 H   0  0  0  0  0  0  0  0  0  0  0  0
    3.1258    0.7290   -6.2671 H   0  0  0  0  0  0  0  0  0  0  0  0
    4.2123    0.8019   -3.9786 H   0  0  0  0  0  0  0  0  0  0  0  0
    2.6970    0.1805   -3.3088 H   0  0  0  0  0  0  0  0  0  0  0  0
    4.7570   -0.5662   -2.0083 H   0  0  0  0  0  0  0  0  0  0  0  0
    3.1045   -1.1270   -1.8143 H   0  0  0  0  0  0  0  0  0  0  0  0
    2.7070   -2.5681    0.0595 H   0  0  0  0  0  0  0  0  0  0  0  0
    6.7534   -4.9555    1.7680 H   0  0  0  0  0  0  0  0  0  0  0  0
    9.0819   -3.4201   -1.3119 H   0  0  0  0  0  0  0  0  0  0  0  0
    7.1537   -2.1969   -2.3236 H   0  0  0  0  0  0  0  0  0  0  0  0
  1  2  1  0
  1 16  1  0
  1 17  1  0
  1 18  1  0
  2  3  1  0
  2 19  1  0
  2 20  1  0
  3  4  1  0
  4  5  2  0
  4  6  1  0
  6  7  1  0
  6 21  1  0
  6 22  1  0
  7 15  1  0
  7  8  1  0
  8  9  2  0
  8 23  1  0
  9 10  1  0
 10 15  2  0
 10 11  1  0
 11 12  2  0
 11 24  1  0
 12 13  1  0
 13 14  2  0
 13 25  1  0
 14 15  1  0
 14 26  1  0
M  END
>  <i_m_ct_stereo_status>  (57) 
1

>  <s_m_source_file>  (57) 
/var/tmp/pbs.5076255.sched01/tmpyb5u0fxv/0ob_ovo1_.sdf

>  <i_m_source_file_index>  (57) 
28

>  <i_lp_mmshare_version>  (57) 
48012

>  <i_f3d_flags>  (57) 
0

>  <s_epik_input>  (57) 
W0NIM11bQ0gyXU9DKD1PKVtDSDJdbihbY0hdbjEpYyhjMTIpW2NIXVtjSF1uW2NIXTI=

>  <s_epik_cmdline>  (57) 
J2VwaWtfcHl0aG9uJywgJy1waHQnLCAnMi4wJywgJy1waCcsICc3LjAnLCAnLXRuJywgJzgnLCAnLW1hJywgJzIwMCcsICctaW1hZScsICc8aW5maWxlLm1hZT4nLCAnLW9tYWUnLCAnPG91dGZpbGUubWFlPic=

>  <r_lp_tautomer_probability>  (57) 
1

>  <r_epik_Ionization_Penalty>  (57) 
0.204516

>  <r_epik_Ionization_Penalty_Charging>  (57) 
0.204516

>  <r_epik_Ionization_Penalty_Neutral>  (57) 
0

>  <r_epik_State_Penalty>  (57) 
0.983709

>  <r_epik_Charging_Adjusted_Penalty>  (57) 
1.18823

>  <i_epik_Tot_Q>  (57) 
0

>  <i_epik_Tot_abs_Q>  (57) 
0

>  <s_epik_Chemistry_Notes>  (57) 
This compound has an ester and may undergo hydrolysis at high or low pH.

>  <s_lp_Force_Field>  (57) 
OPLS3e

>  <r_lp_Energy>  (57) 
14.798

>  <b_lp_Chiralities_Consistent>  (57) 
1

>  <s_lp_Variant>  (57) 
19:0-2

>  <s_i_glide_gridfile>  (57) 
pfpi4k_grid

>  <i_i_glide_lignum>  (57) 
28

>  <i_i_glide_rotatable_bonds>  (57) 
4

>  <r_i_docking_score>  (57) 
-3.97502

>  <r_i_glide_ligand_efficiency>  (57) 
-0.265001

>  <r_i_glide_ligand_efficiency_sa>  (57) 
-0.65355

>  <r_i_glide_ligand_efficiency_ln>  (57) 
-1.072

>  <r_i_glide_gscore>  (57) 
-3.97502

>  <r_i_glide_lipo>  (57) 
-0.418166

>  <r_i_glide_hbond>  (57) 
-0.240714

>  <r_i_glide_metal>  (57) 
-0

>  <r_i_glide_rewards>  (57) 
-2.26466

>  <r_i_glide_evdw>  (57) 
-26.4649

>  <r_i_glide_ecoul>  (57) 
-3.18113

>  <r_i_glide_erotb>  (57) 
0.782325

>  <r_i_glide_esite>  (57) 
-0.0333894

>  <r_i_glide_emodel>  (57) 
-34.3357

>  <r_i_glide_energy>  (57) 
-29.646

>  <r_i_glide_einternal>  (57) 
5.641

>  <r_i_glide_intrahb_reward>  (57) 
-0

>  <i_i_glide_confnum>  (57) 
6

>  <i_i_glide_posenum>  (57) 
15

>  <r_i_glide_eff_state_penalty>  (57) 
0

>  <ligand_id>  (57) 
19

>  <original_smiles>  (57) 
CCOC(=O)Cn1cnc2cnccc21

>  <smiles>  (57) 
[H]c1nc([H])c2nc([H])n(C([H])([H])C(=O)OC([H])([H])C([H])([H])[H])c2c1[H]

$$$$
19:1:1
     RDKit          3D

 26 27  0  0  1  0  0  0  0  0999 V2000
    1.9323    1.8769    2.3963 C   0  0  0  0  0  0  0  0  0  0  0  0
    1.2147    0.6200    1.8721 C   0  0  0  0  0  0  0  0  0  0  0  0
    1.8204   -0.5699    2.3826 O   0  0  0  0  0  0  0  0  0  0  0  0
    2.9142   -1.1478    1.8297 C   0  0  0  0  0  0  0  0  0  0  0  0
    3.4423   -2.1606    2.2923 O   0  0  0  0  0  0  0  0  0  0  0  0
    3.4815   -0.4607    0.5773 C   0  0  0  0  0  0  0  0  0  0  0  0
    4.5231   -1.1424   -0.1317 N   0  0  0  0  0  0  0  0  0  0  0  0
    5.8372   -1.1777    0.1781 C   0  0  0  0  0  0  0  0  0  0  0  0
    6.6258   -1.8604   -0.6472 N   0  0  0  0  0  0  0  0  0  0  0  0
    5.7112   -2.3320   -1.5823 C   0  0  0  0  0  0  0  0  0  0  0  0
    5.8852   -3.1369   -2.7247 C   0  0  0  0  0  0  0  0  0  0  0  0
    4.8461   -3.4606   -3.5418 N   0  0  0  0  0  0  0  0  0  0  0  0
    3.6016   -3.0389   -3.2407 C   0  0  0  0  0  0  0  0  0  0  0  0
    3.3223   -2.2370   -2.1274 C   0  0  0  0  0  0  0  0  0  0  0  0
    4.3949   -1.8902   -1.2845 C   0  0  0  0  0  0  0  0  0  0  0  0
    1.4884    2.7691    1.9568 H   0  0  0  0  0  0  0  0  0  0  0  0
    2.9934    1.9028    2.1508 H   0  0  0  0  0  0  0  0  0  0  0  0
    1.8574    1.9481    3.4797 H   0  0  0  0  0  0  0  0  0  0  0  0
    0.1747    0.6224    2.2012 H   0  0  0  0  0  0  0  0  0  0  0  0
    1.1576    0.6269    0.7839 H   0  0  0  0  0  0  0  0  0  0  0  0
    2.6778   -0.3293   -0.1401 H   0  0  0  0  0  0  0  0  0  0  0  0
    3.8721    0.5228    0.8315 H   0  0  0  0  0  0  0  0  0  0  0  0
    6.2178   -0.6559    1.0498 H   0  0  0  0  0  0  0  0  0  0  0  0
    6.8651   -3.4976   -2.9988 H   0  0  0  0  0  0  0  0  0  0  0  0
    2.8094   -3.3384   -3.9189 H   0  0  0  0  0  0  0  0  0  0  0  0
    2.3101   -1.9113   -1.9243 H   0  0  0  0  0  0  0  0  0  0  0  0
  1  2  1  0
  1 16  1  0
  1 17  1  0
  1 18  1  0
  2  3  1  0
  2 19  1  0
  2 20  1  0
  3  4  1  0
  4  5  2  0
  4  6  1  0
  6  7  1  0
  6 21  1  0
  6 22  1  0
  7 15  1  0
  7  8  1  0
  8  9  2  0
  8 23  1  0
  9 10  1  0
 10 15  2  0
 10 11  1  0
 11 12  2  0
 11 24  1  0
 12 13  1  0
 13 14  2  0
 13 25  1  0
 14 15  1  0
 14 26  1  0
M  END
>  <i_m_ct_stereo_status>  (58) 
1

>  <s_m_source_file>  (58) 
/var/tmp/pbs.5076255.sched01/tmpyb5u0fxv/0ob_ovo1_.sdf

>  <i_m_source_file_index>  (58) 
28

>  <i_lp_mmshare_version>  (58) 
48012

>  <i_f3d_flags>  (58) 
0

>  <s_epik_input>  (58) 
W0NIM11bQ0gyXU9DKD1PKVtDSDJdbihbY0hdbjEpYyhjMTIpW2NIXVtjSF1uW2NIXTI=

>  <s_epik_cmdline>  (58) 
J2VwaWtfcHl0aG9uJywgJy1waHQnLCAnMi4wJywgJy1waCcsICc3LjAnLCAnLXRuJywgJzgnLCAnLW1hJywgJzIwMCcsICctaW1hZScsICc8aW5maWxlLm1hZT4nLCAnLW9tYWUnLCAnPG91dGZpbGUubWFlPic=

>  <r_lp_tautomer_probability>  (58) 
1

>  <r_epik_Ionization_Penalty>  (58) 
0.204516

>  <r_epik_Ionization_Penalty_Charging>  (58) 
0.204516

>  <r_epik_Ionization_Penalty_Neutral>  (58) 
0

>  <r_epik_State_Penalty>  (58) 
0.983709

>  <r_epik_Charging_Adjusted_Penalty>  (58) 
1.18823

>  <i_epik_Tot_Q>  (58) 
0

>  <i_epik_Tot_abs_Q>  (58) 
0

>  <s_epik_Chemistry_Notes>  (58) 
This compound has an ester and may undergo hydrolysis at high or low pH.

>  <s_lp_Force_Field>  (58) 
OPLS3e

>  <r_lp_Energy>  (58) 
14.798

>  <b_lp_Chiralities_Consistent>  (58) 
1

>  <s_lp_Variant>  (58) 
19:0-2

>  <s_i_glide_gridfile>  (58) 
pfpi4k_grid

>  <i_i_glide_lignum>  (58) 
28

>  <i_i_glide_rotatable_bonds>  (58) 
4

>  <r_i_docking_score>  (58) 
-3.71417

>  <r_i_glide_ligand_efficiency>  (58) 
-0.247612

>  <r_i_glide_ligand_efficiency_sa>  (58) 
-0.610663

>  <r_i_glide_ligand_efficiency_ln>  (58) 
-1.00165

>  <r_i_glide_gscore>  (58) 
-3.71417

>  <r_i_glide_lipo>  (58) 
-0.32352

>  <r_i_glide_hbond>  (58) 
-0.158083

>  <r_i_glide_metal>  (58) 
-0

>  <r_i_glide_rewards>  (58) 
-2.0656

>  <r_i_glide_evdw>  (58) 
-21.7933

>  <r_i_glide_ecoul>  (58) 
-5.40829

>  <r_i_glide_erotb>  (58) 
0.782325

>  <r_i_glide_esite>  (58) 
-0.0483914

>  <r_i_glide_emodel>  (58) 
-31.8362

>  <r_i_glide_energy>  (58) 
-27.2016

>  <r_i_glide_einternal>  (58) 
4.65537

>  <r_i_glide_intrahb_reward>  (58) 
-0

>  <i_i_glide_confnum>  (58) 
6

>  <i_i_glide_posenum>  (58) 
9

>  <r_i_glide_eff_state_penalty>  (58) 
0

>  <ligand_id>  (58) 
19

>  <original_smiles>  (58) 
CCOC(=O)Cn1cnc2cnccc21

>  <smiles>  (58) 
[H]c1nc([H])c2nc([H])n(C([H])([H])C(=O)OC([H])([H])C([H])([H])[H])c2c1[H]

$$$$
19:1:2
     RDKit          3D

 26 27  0  0  1  0  0  0  0  0999 V2000
    0.1093    1.3061    2.7030 C   0  0  0  0  0  0  0  0  0  0  0  0
    1.3140    0.8579    1.8853 C   0  0  0  0  0  0  0  0  0  0  0  0
    1.9444   -0.2377    2.5359 O   0  0  0  0  0  0  0  0  0  0  0  0
    3.0077   -0.8696    1.9891 C   0  0  0  0  0  0  0  0  0  0  0  0
    3.5704   -1.8220    2.5301 O   0  0  0  0  0  0  0  0  0  0  0  0
    3.4920   -0.3230    0.6359 C   0  0  0  0  0  0  0  0  0  0  0  0
    4.5517   -1.0505   -0.0258 N   0  0  0  0  0  0  0  0  0  0  0  0
    5.8409   -1.1285    0.3537 C   0  0  0  0  0  0  0  0  0  0  0  0
    6.6529   -1.8543   -0.4128 N   0  0  0  0  0  0  0  0  0  0  0  0
    5.7823   -2.2991   -1.3969 C   0  0  0  0  0  0  0  0  0  0  0  0
    6.0075   -3.1192   -2.5296 C   0  0  0  0  0  0  0  0  0  0  0  0
    5.0115   -3.4273   -3.3978 N   0  0  0  0  0  0  0  0  0  0  0  0
    3.7598   -2.9711   -3.1687 C   0  0  0  0  0  0  0  0  0  0  0  0
    3.4325   -2.1507   -2.0770 C   0  0  0  0  0  0  0  0  0  0  0  0
    4.4628   -1.8136   -1.1862 C   0  0  0  0  0  0  0  0  0  0  0  0
   -0.3785    2.1443    2.2077 H   0  0  0  0  0  0  0  0  0  0  0  0
    0.4091    1.6242    3.7008 H   0  0  0  0  0  0  0  0  0  0  0  0
   -0.6175    0.5004    2.7975 H   0  0  0  0  0  0  0  0  0  0  0  0
    0.9757    0.5669    0.8894 H   0  0  0  0  0  0  0  0  0  0  0  0
    2.0234    1.6816    1.7791 H   0  0  0  0  0  0  0  0  0  0  0  0
    2.6410   -0.3121   -0.0411 H   0  0  0  0  0  0  0  0  0  0  0  0
    3.8238    0.7088    0.7676 H   0  0  0  0  0  0  0  0  0  0  0  0
    6.1964   -0.6218    1.2415 H   0  0  0  0  0  0  0  0  0  0  0  0
    6.9917   -3.5143   -2.7292 H   0  0  0  0  0  0  0  0  0  0  0  0
    2.9987   -3.2564   -3.8816 H   0  0  0  0  0  0  0  0  0  0  0  0
    2.4225   -1.8033   -1.9247 H   0  0  0  0  0  0  0  0  0  0  0  0
  1  2  1  0
  1 16  1  0
  1 17  1  0
  1 18  1  0
  2  3  1  0
  2 19  1  0
  2 20  1  0
  3  4  1  0
  4  5  2  0
  4  6  1  0
  6  7  1  0
  6 21  1  0
  6 22  1  0
  7 15  1  0
  7  8  1  0
  8  9  2  0
  8 23  1  0
  9 10  1  0
 10 15  2  0
 10 11  1  0
 11 12  2  0
 11 24  1  0
 12 13  1  0
 13 14  2  0
 13 25  1  0
 14 15  1  0
 14 26  1  0
M  END
>  <i_m_ct_stereo_status>  (59) 
1

>  <s_m_source_file>  (59) 
/var/tmp/pbs.5076255.sched01/tmpyb5u0fxv/0ob_ovo1_.sdf

>  <i_m_source_file_index>  (59) 
28

>  <i_lp_mmshare_version>  (59) 
48012

>  <i_f3d_flags>  (59) 
0

>  <s_epik_input>  (59) 
W0NIM11bQ0gyXU9DKD1PKVtDSDJdbihbY0hdbjEpYyhjMTIpW2NIXVtjSF1uW2NIXTI=

>  <s_epik_cmdline>  (59) 
J2VwaWtfcHl0aG9uJywgJy1waHQnLCAnMi4wJywgJy1waCcsICc3LjAnLCAnLXRuJywgJzgnLCAnLW1hJywgJzIwMCcsICctaW1hZScsICc8aW5maWxlLm1hZT4nLCAnLW9tYWUnLCAnPG91dGZpbGUubWFlPic=

>  <r_lp_tautomer_probability>  (59) 
1

>  <r_epik_Ionization_Penalty>  (59) 
0.204516

>  <r_epik_Ionization_Penalty_Charging>  (59) 
0.204516

>  <r_epik_Ionization_Penalty_Neutral>  (59) 
0

>  <r_epik_State_Penalty>  (59) 
0.983709

>  <r_epik_Charging_Adjusted_Penalty>  (59) 
1.18823

>  <i_epik_Tot_Q>  (59) 
0

>  <i_epik_Tot_abs_Q>  (59) 
0

>  <s_epik_Chemistry_Notes>  (59) 
This compound has an ester and may undergo hydrolysis at high or low pH.

>  <s_lp_Force_Field>  (59) 
OPLS3e

>  <r_lp_Energy>  (59) 
14.798

>  <b_lp_Chiralities_Consistent>  (59) 
1

>  <s_lp_Variant>  (59) 
19:0-2

>  <s_i_glide_gridfile>  (59) 
pfpi4k_grid

>  <i_i_glide_lignum>  (59) 
28

>  <i_i_glide_rotatable_bonds>  (59) 
4

>  <r_i_docking_score>  (59) 
-3.65795

>  <r_i_glide_ligand_efficiency>  (59) 
-0.243864

>  <r_i_glide_ligand_efficiency_sa>  (59) 
-0.601419

>  <r_i_glide_ligand_efficiency_ln>  (59) 
-0.98649

>  <r_i_glide_gscore>  (59) 
-3.65795

>  <r_i_glide_lipo>  (59) 
-0.321002

>  <r_i_glide_hbond>  (59) 
-0.126269

>  <r_i_glide_metal>  (59) 
-0

>  <r_i_glide_rewards>  (59) 
-2.14534

>  <r_i_glide_evdw>  (59) 
-22.468

>  <r_i_glide_ecoul>  (59) 
-4.62473

>  <r_i_glide_erotb>  (59) 
0.782325

>  <r_i_glide_esite>  (59) 
-0.0305581

>  <r_i_glide_emodel>  (59) 
-31.4314

>  <r_i_glide_energy>  (59) 
-27.0927

>  <r_i_glide_einternal>  (59) 
5.24283

>  <r_i_glide_intrahb_reward>  (59) 
-0

>  <i_i_glide_confnum>  (59) 
6

>  <i_i_glide_posenum>  (59) 
14

>  <r_i_glide_eff_state_penalty>  (59) 
0

>  <ligand_id>  (59) 
19

>  <original_smiles>  (59) 
CCOC(=O)Cn1cnc2cnccc21

>  <smiles>  (59) 
[H]c1nc([H])c2nc([H])n(C([H])([H])C(=O)OC([H])([H])C([H])([H])[H])c2c1[H]

$$$$
20:0:0
     RDKit          3D

 58 63  0  0  1  0  0  0  0  0999 V2000
    1.4741   -7.8000    2.1824 C   0  0  0  0  0  0  0  0  0  0  0  0
    2.1121   -6.4515    1.9629 C   0  0  0  0  0  0  0  0  0  0  0  0
    2.5131   -5.8332    0.7965 C   0  0  0  0  0  0  0  0  0  0  0  0
    2.8405   -4.4061    1.1875 C   0  0  1  0  0  0  0  0  0  0  0  0
    3.5202   -4.6150    2.5987 C   0  0  2  0  0  0  0  0  0  0  0  0
    4.7183   -5.3802    2.6752 O   0  0  0  0  0  0  0  0  0  0  0  0
    2.4497   -5.5710    3.0855 C   0  0  0  0  0  0  0  0  0  0  0  0
    2.0143   -5.6304    4.2577 O   0  0  0  0  0  0  0  0  0  0  0  0
    3.9076   -3.1657    3.0669 C   0  0  1  0  0  0  0  0  0  0  0  0
    3.4505   -2.9354    4.3874 O   0  0  0  0  0  0  0  0  0  0  0  0
    5.3896   -2.5835    2.9453 C   0  0  2  0  0  0  0  0  0  0  0  0
    5.3356   -1.0627    2.8723 C   0  0  0  0  0  0  0  0  0  0  0  0
    3.9298   -0.8694    2.3691 C   0  0  1  0  0  0  0  0  0  0  0  0
    3.6692    0.2407    1.5307 O   0  0  0  0  0  0  0  0  0  0  0  0
    3.3149   -2.2783    2.0131 C   0  0  2  0  0  0  0  0  0  0  0  0
    1.7772   -2.0083    2.2136 C   0  0  0  0  0  0  0  0  0  0  0  0
    3.6971   -3.2200    0.6849 C   0  0  1  0  0  0  0  0  0  0  0  0
    4.7168   -4.2065    0.3774 O   0  0  0  0  0  0  0  0  0  0  0  0
    6.0646   -3.9537    0.0044 C   0  0  0  0  0  0  0  0  0  0  0  0
    6.2757   -2.5475    0.4570 C   0  0  1  0  0  0  0  0  0  0  0  0
    7.7080   -2.0462    0.1515 C   0  0  0  0  0  0  0  0  0  0  0  0
    5.2051   -1.6422   -0.3075 C   0  0  0  0  0  0  0  0  0  0  0  0
    3.7574   -2.2574   -0.5002 C   0  0  1  0  0  0  0  0  0  0  0  0
    3.4158   -2.8763   -1.8744 C   0  0  0  0  0  0  0  0  0  0  0  0
    4.5530   -3.2335   -2.8545 C   0  0  0  0  0  0  0  0  0  0  0  0
    4.3816   -1.9074   -3.5558 C   0  0  0  0  0  0  0  0  0  0  0  0
    2.9733   -1.8785   -2.9830 C   0  0  0  0  0  0  0  0  0  0  0  0
    6.2917   -2.9223    1.8665 O   0  0  0  0  0  0  0  0  0  0  0  0
    2.1274   -8.4513    2.7701 H   0  0  0  0  0  0  0  0  0  0  0  0
    1.2169   -8.3016    1.2534 H   0  0  0  0  0  0  0  0  0  0  0  0
    0.5569   -7.6668    2.7648 H   0  0  0  0  0  0  0  0  0  0  0  0
    2.4137   -6.2065   -0.1986 H   0  0  0  0  0  0  0  0  0  0  0  0
    1.8224   -4.0702    1.1186 H   0  0  0  0  0  0  0  0  0  0  0  0
    4.9329   -5.4982    3.5852 H   0  0  0  0  0  0  0  0  0  0  0  0
    3.9047   -3.5326    4.9615 H   0  0  0  0  0  0  0  0  0  0  0  0
    5.9279   -2.8993    3.8303 H   0  0  0  0  0  0  0  0  0  0  0  0
    5.4641   -0.6207    3.8590 H   0  0  0  0  0  0  0  0  0  0  0  0
    6.0964   -0.6160    2.2335 H   0  0  0  0  0  0  0  0  0  0  0  0
    3.4388   -0.5280    3.2749 H   0  0  0  0  0  0  0  0  0  0  0  0
    3.9833    0.0664    0.6562 H   0  0  0  0  0  0  0  0  0  0  0  0
    1.2966   -1.7914    1.2677 H   0  0  0  0  0  0  0  0  0  0  0  0
    1.5302   -1.1651    2.8506 H   0  0  0  0  0  0  0  0  0  0  0  0
    1.2464   -2.8423    2.6653 H   0  0  0  0  0  0  0  0  0  0  0  0
    6.7386   -4.6542    0.4482 H   0  0  0  0  0  0  0  0  0  0  0  0
    6.2682   -4.1521   -1.0385 H   0  0  0  0  0  0  0  0  0  0  0  0
    7.8913   -1.8901   -0.9063 H   0  0  0  0  0  0  0  0  0  0  0  0
    8.4467   -2.7638    0.4976 H   0  0  0  0  0  0  0  0  0  0  0  0
    7.9170   -1.0997    0.6688 H   0  0  0  0  0  0  0  0  0  0  0  0
    5.2136   -0.6193    0.0501 H   0  0  0  0  0  0  0  0  0  0  0  0
    5.6617   -1.4528   -1.2529 H   0  0  0  0  0  0  0  0  0  0  0  0
    3.0238   -1.4537   -0.3504 H   0  0  0  0  0  0  0  0  0  0  0  0
    2.6718   -3.6586   -1.7857 H   0  0  0  0  0  0  0  0  0  0  0  0
    5.5614   -3.1859   -2.5058 H   0  0  0  0  0  0  0  0  0  0  0  0
    4.3688   -4.1435   -3.4274 H   0  0  0  0  0  0  0  0  0  0  0  0
    4.9872   -1.0911   -3.1362 H   0  0  0  0  0  0  0  0  0  0  0  0
    4.5420   -1.9643   -4.6175 H   0  0  0  0  0  0  0  0  0  0  0  0
    2.2592   -2.2972   -3.7093 H   0  0  0  0  0  0  0  0  0  0  0  0
    2.6574   -0.8901   -2.6117 H   0  0  0  0  0  0  0  0  0  0  0  0
  1  2  1  0
  1 29  1  0
  1 30  1  0
  1 31  1  0
  2  7  1  0
  2  3  2  0
  3  4  1  0
  3 32  1  0
  4 17  1  0
  4  5  1  0
  4 33  1  1
  5  6  1  6
  5  7  1  0
  5  9  1  0
  6 34  1  0
  7  8  2  0
  9 15  1  0
  9 10  1  1
  9 11  1  0
 10 35  1  0
 11 28  1  0
 11 12  1  0
 11 36  1  1
 12 13  1  0
 12 37  1  0
 12 38  1  0
 13 14  1  0
 13 15  1  0
 13 39  1  1
 14 40  1  0
 15 16  1  1
 15 17  1  0
 16 41  1  0
 16 42  1  0
 16 43  1  0
 17 23  1  0
 17 18  1  1
 18 19  1  0
 19 20  1  0
 19 44  1  0
 19 45  1  0
 20 21  1  6
 20 22  1  0
 20 28  1  0
 21 46  1  0
 21 47  1  0
 21 48  1  0
 22 23  1  0
 22 49  1  0
 22 50  1  0
 23 24  1  0
 23 51  1  1
 24 27  1  0
 24 25  1  0
 24 52  1  0
 25 26  1  0
 25 53  1  0
 25 54  1  0
 26 27  1  0
 26 55  1  0
 26 56  1  0
 27 57  1  0
 27 58  1  0
M  END
>  <i_m_ct_stereo_status>  (60) 
1

>  <s_m_source_file>  (60) 
/var/tmp/pbs.5076255.sched01/tmpyb5u0fxv/0ob_ovo1_.sdf

>  <i_m_source_file_index>  (60) 
29

>  <i_lp_mmshare_version>  (60) 
48012

>  <i_f3d_flags>  (60) 
0

>  <s_epik_input>  (60) 
W0NIM11DKD1bQ0hdMSlDKD1PKVtDQF0oW0NASF0xW0NAQF0yMzQpKFtPSF0pW0NAQF01KFtPSF0pW0NASF0oW0NIMl1bQ0BASF0oW09IXSlbQ0BAXTI1W0NIM10pT1tDQF0oW0NIMl1PMykoW0NIM10pW0NIMl1bQ0BIXTRbQ0hdNltDSDJdW0NIMl1bQ0gyXTY=

>  <s_epik_cmdline>  (60) 
J2VwaWtfcHl0aG9uJywgJy1waHQnLCAnMi4wJywgJy1waCcsICc3LjAnLCAnLXRuJywgJzgnLCAnLW1hJywgJzIwMCcsICctaW1hZScsICc8aW5maWxlLm1hZT4nLCAnLW9tYWUnLCAnPG91dGZpbGUubWFlPic=

>  <r_lp_tautomer_probability>  (60) 
1

>  <r_epik_Ionization_Penalty>  (60) 
6.34472e-06

>  <r_epik_Ionization_Penalty_Charging>  (60) 
0

>  <r_epik_Ionization_Penalty_Neutral>  (60) 
6.34472e-06

>  <r_epik_State_Penalty>  (60) 
-0

>  <r_epik_Charging_Adjusted_Penalty>  (60) 
0

>  <i_epik_Tot_Q>  (60) 
0

>  <i_epik_Tot_abs_Q>  (60) 
0

>  <s_lp_Force_Field>  (60) 
OPLS3e

>  <r_lp_Energy>  (60) 
179.41

>  <b_lp_Chiralities_Consistent>  (60) 
1

>  <s_lp_Variant>  (60) 
20:0-1

>  <s_i_glide_gridfile>  (60) 
pfpi4k_grid

>  <i_i_glide_lignum>  (60) 
29

>  <i_i_glide_rotatable_bonds>  (60) 
4

>  <r_i_docking_score>  (60) 
-2.62857

>  <r_i_glide_ligand_efficiency>  (60) 
-0.0938776

>  <r_i_glide_ligand_efficiency_sa>  (60) 
-0.285068

>  <r_i_glide_ligand_efficiency_ln>  (60) 
-0.606752

>  <r_i_glide_gscore>  (60) 
-2.62857

>  <r_i_glide_lipo>  (60) 
-0.538496

>  <r_i_glide_hbond>  (60) 
0

>  <r_i_glide_metal>  (60) 
-0

>  <r_i_glide_rewards>  (60) 
-0.746795

>  <r_i_glide_evdw>  (60) 
-29.6163

>  <r_i_glide_ecoul>  (60) 
0.0847603

>  <r_i_glide_erotb>  (60) 
0.127928

>  <r_i_glide_esite>  (60) 
-0.00310961

>  <r_i_glide_emodel>  (60) 
-29.0537

>  <r_i_glide_energy>  (60) 
-29.5315

>  <r_i_glide_einternal>  (60) 
7.84878

>  <r_i_glide_intrahb_reward>  (60) 
-0

>  <i_i_glide_confnum>  (60) 
1

>  <i_i_glide_posenum>  (60) 
7

>  <r_i_glide_eff_state_penalty>  (60) 
0

>  <ligand_id>  (60) 
20

>  <original_smiles>  (60) 
CC1=CC2C(O)(C1=O)C1(O)C3CC(O)C1(C)C21OCC(C)(CC1C1CCC1)O3

>  <smiles>  (60) 
[H]OC1([H])C([H])([H])C2([H])OC3(C([H])([H])[H])C([H])([H])OC4(C5([H])C([H])=C(C([H])([H])[H])C(=O)C5(O[H])C2(O[H])C14C([H])([H])[H])C([H])(C1([H])C([H])([H])C([H])([H])C1([H])[H])C3([H])[H]

$$$$
20:0:1
     RDKit          3D

 58 63  0  0  1  0  0  0  0  0999 V2000
    3.4089   -3.2842    1.5514 C   0  0  0  0  0  0  0  0  0  0  0  0
    3.4684   -4.6941    2.0575 C   0  0  0  0  0  0  0  0  0  0  0  0
    2.5222   -5.4305    2.6537 C   0  0  0  0  0  0  0  0  0  0  0  0
    3.0527   -6.8648    2.7043 C   0  0  1  0  0  0  0  0  0  0  0  0
    4.5617   -6.6171    3.0061 C   0  0  2  0  0  0  0  0  0  0  0  0
    4.9131   -5.9947    4.2424 O   0  0  0  0  0  0  0  0  0  0  0  0
    4.7196   -5.5125    1.9544 C   0  0  0  0  0  0  0  0  0  0  0  0
    5.6900   -5.3388    1.2228 O   0  0  0  0  0  0  0  0  0  0  0  0
    5.1619   -8.0689    3.0850 C   0  0  1  0  0  0  0  0  0  0  0  0
    6.2909   -8.1558    2.2398 O   0  0  0  0  0  0  0  0  0  0  0  0
    5.4684   -8.8031    4.4886 C   0  0  2  0  0  0  0  0  0  0  0  0
    5.4549  -10.3131    4.2469 C   0  0  0  0  0  0  0  0  0  0  0  0
    4.6028  -10.3960    3.0199 C   0  0  1  0  0  0  0  0  0  0  0  0
    3.7952  -11.5516    2.8965 O   0  0  0  0  0  0  0  0  0  0  0  0
    4.0102   -8.9776    2.6932 C   0  0  2  0  0  0  0  0  0  0  0  0
    3.7812   -9.0638    1.1318 C   0  0  0  0  0  0  0  0  0  0  0  0
    2.8064   -8.1931    3.5161 C   0  0  1  0  0  0  0  0  0  0  0  0
    2.8149   -7.3685    4.7228 O   0  0  0  0  0  0  0  0  0  0  0  0
    2.6221   -7.8409    6.0329 C   0  0  0  0  0  0  0  0  0  0  0  0
    3.2885   -9.1674    5.9760 C   0  0  1  0  0  0  0  0  0  0  0  0
    3.4265   -9.8250    7.3619 C   0  0  0  0  0  0  0  0  0  0  0  0
    2.2790   -9.9765    5.0585 C   0  0  0  0  0  0  0  0  0  0  0  0
    1.7038   -9.2223    3.7830 C   0  0  1  0  0  0  0  0  0  0  0  0
    0.2582   -8.6863    3.8763 C   0  0  0  0  0  0  0  0  0  0  0  0
   -0.6543   -8.9287    2.6459 C   0  0  0  0  0  0  0  0  0  0  0  0
   -0.2797   -7.5122    2.1851 C   0  0  0  0  0  0  0  0  0  0  0  0
   -0.0136   -7.1819    3.6671 C   0  0  0  0  0  0  0  0  0  0  0  0
    4.6473   -8.6687    5.6784 O   0  0  0  0  0  0  0  0  0  0  0  0
    4.0889   -2.6479    2.1112 H   0  0  0  0  0  0  0  0  0  0  0  0
    2.4103   -2.8617    1.6384 H   0  0  0  0  0  0  0  0  0  0  0  0
    3.6914   -3.2436    0.5009 H   0  0  0  0  0  0  0  0  0  0  0  0
    1.4962   -5.1131    2.8288 H   0  0  0  0  0  0  0  0  0  0  0  0
    2.7376   -7.0655    1.6946 H   0  0  0  0  0  0  0  0  0  0  0  0
    4.6467   -6.5833    4.9407 H   0  0  0  0  0  0  0  0  0  0  0  0
    6.5740   -9.0540    2.1818 H   0  0  0  0  0  0  0  0  0  0  0  0
    6.4553   -8.4891    4.8209 H   0  0  0  0  0  0  0  0  0  0  0  0
    6.4663  -10.6847    4.0514 H   0  0  0  0  0  0  0  0  0  0  0  0
    5.0668  -10.8924    5.0862 H   0  0  0  0  0  0  0  0  0  0  0  0
    5.3478  -10.6288    2.2626 H   0  0  0  0  0  0  0  0  0  0  0  0
    3.8039  -11.8044    1.9631 H   0  0  0  0  0  0  0  0  0  0  0  0
    2.7365   -9.3052    0.9050 H   0  0  0  0  0  0  0  0  0  0  0  0
    4.3740   -9.8234    0.6169 H   0  0  0  0  0  0  0  0  0  0  0  0
    4.0489   -8.1560    0.5846 H   0  0  0  0  0  0  0  0  0  0  0  0
    3.0922   -7.1700    6.7522 H   0  0  0  0  0  0  0  0  0  0  0  0
    1.5659   -7.8997    6.2914 H   0  0  0  0  0  0  0  0  0  0  0  0
    2.4592  -10.0961    7.7966 H   0  0  0  0  0  0  0  0  0  0  0  0
    3.9293   -9.1521    8.0639 H   0  0  0  0  0  0  0  0  0  0  0  0
    4.0259  -10.7388    7.2986 H   0  0  0  0  0  0  0  0  0  0  0  0
    2.6775  -10.9601    4.8535 H   0  0  0  0  0  0  0  0  0  0  0  0
    1.4178  -10.2630    5.6654 H   0  0  0  0  0  0  0  0  0  0  0  0
    1.7286   -9.9617    2.9758 H   0  0  0  0  0  0  0  0  0  0  0  0
   -0.2488   -9.0529    4.7806 H   0  0  0  0  0  0  0  0  0  0  0  0
   -0.3263   -9.7545    1.9911 H   0  0  0  0  0  0  0  0  0  0  0  0
   -1.7157   -9.0451    2.8968 H   0  0  0  0  0  0  0  0  0  0  0  0
    0.5884   -7.5485    1.5371 H   0  0  0  0  0  0  0  0  0  0  0  0
   -1.0899   -6.9703    1.7053 H   0  0  0  0  0  0  0  0  0  0  0  0
   -0.9464   -6.8732    4.1652 H   0  0  0  0  0  0  0  0  0  0  0  0
    0.8090   -6.5802    3.9298 H   0  0  0  0  0  0  0  0  0  0  0  0
  1  2  1  0
  1 29  1  0
  1 30  1  0
  1 31  1  0
  2  7  1  0
  2  3  2  0
  3  4  1  0
  3 32  1  0
  4 17  1  0
  4  5  1  0
  4 33  1  6
  5  6  1  1
  5  7  1  0
  5  9  1  0
  6 34  1  0
  7  8  2  0
  9 15  1  0
  9 10  1  6
  9 11  1  0
 10 35  1  0
 11 28  1  0
 11 12  1  0
 11 36  1  1
 12 13  1  0
 12 37  1  0
 12 38  1  0
 13 14  1  0
 13 15  1  0
 13 39  1  6
 14 40  1  0
 15 16  1  6
 15 17  1  0
 16 41  1  0
 16 42  1  0
 16 43  1  0
 17 23  1  0
 17 18  1  1
 18 19  1  0
 19 20  1  0
 19 44  1  0
 19 45  1  0
 20 21  1  1
 20 22  1  0
 20 28  1  0
 21 46  1  0
 21 47  1  0
 21 48  1  0
 22 23  1  0
 22 49  1  0
 22 50  1  0
 23 24  1  0
 23 51  1  6
 24 27  1  0
 24 25  1  0
 24 52  1  0
 25 26  1  0
 25 53  1  0
 25 54  1  0
 26 27  1  0
 26 55  1  0
 26 56  1  0
 27 57  1  0
 27 58  1  0
M  END
>  <i_m_ct_stereo_status>  (61) 
1

>  <s_m_source_file>  (61) 
/var/tmp/pbs.5076255.sched01/tmpyb5u0fxv/0ob_ovo1_.sdf

>  <i_m_source_file_index>  (61) 
29

>  <i_lp_mmshare_version>  (61) 
48012

>  <i_f3d_flags>  (61) 
0

>  <s_epik_input>  (61) 
W0NIM11DKD1bQ0hdMSlDKD1PKVtDQF0oW0NASF0xW0NAQF0yMzQpKFtPSF0pW0NAQF01KFtPSF0pW0NASF0oW0NIMl1bQ0BASF0oW09IXSlbQ0BAXTI1W0NIM10pT1tDQF0oW0NIMl1PMykoW0NIM10pW0NIMl1bQ0BIXTRbQ0hdNltDSDJdW0NIMl1bQ0gyXTY=

>  <s_epik_cmdline>  (61) 
J2VwaWtfcHl0aG9uJywgJy1waHQnLCAnMi4wJywgJy1waCcsICc3LjAnLCAnLXRuJywgJzgnLCAnLW1hJywgJzIwMCcsICctaW1hZScsICc8aW5maWxlLm1hZT4nLCAnLW9tYWUnLCAnPG91dGZpbGUubWFlPic=

>  <r_lp_tautomer_probability>  (61) 
1

>  <r_epik_Ionization_Penalty>  (61) 
6.34472e-06

>  <r_epik_Ionization_Penalty_Charging>  (61) 
0

>  <r_epik_Ionization_Penalty_Neutral>  (61) 
6.34472e-06

>  <r_epik_State_Penalty>  (61) 
-0

>  <r_epik_Charging_Adjusted_Penalty>  (61) 
0

>  <i_epik_Tot_Q>  (61) 
0

>  <i_epik_Tot_abs_Q>  (61) 
0

>  <s_lp_Force_Field>  (61) 
OPLS3e

>  <r_lp_Energy>  (61) 
179.41

>  <b_lp_Chiralities_Consistent>  (61) 
1

>  <s_lp_Variant>  (61) 
20:0-1

>  <s_i_glide_gridfile>  (61) 
pfpi4k_grid

>  <i_i_glide_lignum>  (61) 
29

>  <i_i_glide_rotatable_bonds>  (61) 
4

>  <r_i_docking_score>  (61) 
-2.61377

>  <r_i_glide_ligand_efficiency>  (61) 
-0.0933488

>  <r_i_glide_ligand_efficiency_sa>  (61) 
-0.283462

>  <r_i_glide_ligand_efficiency_ln>  (61) 
-0.603334

>  <r_i_glide_gscore>  (61) 
-2.61377

>  <r_i_glide_lipo>  (61) 
-0.00374276

>  <r_i_glide_hbond>  (61) 
-0.16

>  <r_i_glide_metal>  (61) 
-0

>  <r_i_glide_rewards>  (61) 
-0.772522

>  <r_i_glide_evdw>  (61) 
-23.0793

>  <r_i_glide_ecoul>  (61) 
-4.3431

>  <r_i_glide_erotb>  (61) 
0.127928

>  <r_i_glide_esite>  (61) 
0

>  <r_i_glide_emodel>  (61) 
-23.2333

>  <r_i_glide_energy>  (61) 
-27.4224

>  <r_i_glide_einternal>  (61) 
16.7685

>  <r_i_glide_intrahb_reward>  (61) 
-0

>  <i_i_glide_confnum>  (61) 
1

>  <i_i_glide_posenum>  (61) 
23

>  <r_i_glide_eff_state_penalty>  (61) 
0

>  <ligand_id>  (61) 
20

>  <original_smiles>  (61) 
CC1=CC2C(O)(C1=O)C1(O)C3CC(O)C1(C)C21OCC(C)(CC1C1CCC1)O3

>  <smiles>  (61) 
[H]OC1([H])C([H])([H])C2([H])OC3(C([H])([H])[H])C([H])([H])OC4(C5([H])C([H])=C(C([H])([H])[H])C(=O)C5(O[H])C2(O[H])C14C([H])([H])[H])C([H])(C1([H])C([H])([H])C([H])([H])C1([H])[H])C3([H])[H]

$$$$
21:0:0
     RDKit          3D

 54 57  0  0  1  0  0  0  0  0999 V2000
    1.2241   -7.5546    6.1338 C   0  0  0  0  0  0  0  0  0  0  0  0
    1.5045   -7.0512    4.9163 C   0  0  0  0  0  0  0  0  0  0  0  0
    0.4985   -6.8804    3.8745 C   0  0  0  0  0  0  0  0  0  0  0  0
   -0.7270   -6.9527    3.9667 O   0  0  0  0  0  0  0  0  0  0  0  0
    1.2282   -6.5530    2.5766 C   0  0  0  0  0  0  0  0  0  0  0  0
    0.6570   -6.2655    1.5257 O   0  0  0  0  0  0  0  0  0  0  0  0
    2.7375   -6.7181    2.8082 C   0  0  2  0  0  0  0  0  0  0  0  0
    2.8751   -6.6874    4.3556 C   0  0  1  0  0  0  0  0  0  0  0  0
    3.3558   -5.3254    4.8838 C   0  0  0  0  0  0  0  0  0  0  0  0
    2.8441   -4.7651    5.8537 O   0  0  0  0  0  0  0  0  0  0  0  0
    4.5294   -4.6982    4.1498 C   0  0  0  0  0  0  0  0  0  0  0  0
    4.2961   -4.5614    2.6249 C   0  0  1  0  0  0  0  0  0  0  0  0
    3.8336   -5.9248    1.9810 C   0  0  1  0  0  0  0  0  0  0  0  0
    5.0613   -6.8785    1.9827 C   0  0  0  0  0  0  0  0  0  0  0  0
    3.4991   -5.7596    0.4742 C   0  0  0  0  0  0  0  0  0  0  0  0
    2.8798   -4.4211    0.0148 C   0  0  0  0  0  0  0  0  0  0  0  0
    3.5358   -3.1495    0.5952 C   0  0  2  0  0  0  0  0  0  0  0  0
    4.8319   -2.6521   -0.1779 C   0  0  0  0  0  0  0  0  0  0  0  0
    5.8546   -3.7514   -0.5406 C   0  0  0  0  0  0  0  0  0  0  0  0
    4.3865   -1.9851   -1.5073 C   0  0  0  0  0  0  0  0  0  0  0  0
    5.6114   -1.5884    0.6304 C   0  0  0  0  0  0  0  0  0  0  0  0
    6.2152   -0.6703    0.0851 O   0  0  0  0  0  0  0  0  0  0  0  0
    5.6687   -1.7559    2.1418 C   0  0  0  0  0  0  0  0  0  0  0  0
    4.2617   -1.9643    2.6961 C   0  0  0  0  0  0  0  0  0  0  0  0
    3.5660   -3.2407    2.1601 C   0  0  2  0  0  0  0  0  0  0  0  0
    2.1199   -3.1400    2.7087 C   0  0  0  0  0  0  0  0  0  0  0  0
    1.9982   -7.7063    6.8742 H   0  0  0  0  0  0  0  0  0  0  0  0
    0.2170   -7.8348    6.4075 H   0  0  0  0  0  0  0  0  0  0  0  0
    2.8707   -7.7643    2.5287 H   0  0  0  0  0  0  0  0  0  0  0  0
    3.5962   -7.4356    4.6853 H   0  0  0  0  0  0  0  0  0  0  0  0
    4.7871   -3.7466    4.6092 H   0  0  0  0  0  0  0  0  0  0  0  0
    5.3908   -5.3404    4.3219 H   0  0  0  0  0  0  0  0  0  0  0  0
    5.3075   -4.4264    2.2518 H   0  0  0  0  0  0  0  0  0  0  0  0
    5.9121   -6.4447    1.4508 H   0  0  0  0  0  0  0  0  0  0  0  0
    4.8322   -7.8211    1.4799 H   0  0  0  0  0  0  0  0  0  0  0  0
    5.4009   -7.1216    2.9891 H   0  0  0  0  0  0  0  0  0  0  0  0
    4.3938   -5.9209   -0.1298 H   0  0  0  0  0  0  0  0  0  0  0  0
    2.8499   -6.5744    0.1584 H   0  0  0  0  0  0  0  0  0  0  0  0
    2.8894   -4.3775   -1.0727 H   0  0  0  0  0  0  0  0  0  0  0  0
    1.8229   -4.4147    0.2583 H   0  0  0  0  0  0  0  0  0  0  0  0
    2.8089   -2.3616    0.3843 H   0  0  0  0  0  0  0  0  0  0  0  0
    5.4718   -4.4166   -1.3148 H   0  0  0  0  0  0  0  0  0  0  0  0
    6.1534   -4.3548    0.3124 H   0  0  0  0  0  0  0  0  0  0  0  0
    6.7749   -3.3219   -0.9428 H   0  0  0  0  0  0  0  0  0  0  0  0
    3.8610   -2.6800   -2.1625 H   0  0  0  0  0  0  0  0  0  0  0  0
    5.2334   -1.5988   -2.0777 H   0  0  0  0  0  0  0  0  0  0  0  0
    3.7186   -1.1416   -1.3230 H   0  0  0  0  0  0  0  0  0  0  0  0
    6.3210   -2.5896    2.3861 H   0  0  0  0  0  0  0  0  0  0  0  0
    6.1169   -0.8659    2.5805 H   0  0  0  0  0  0  0  0  0  0  0  0
    4.2779   -1.9350    3.7862 H   0  0  0  0  0  0  0  0  0  0  0  0
    3.6685   -1.0930    2.4094 H   0  0  0  0  0  0  0  0  0  0  0  0
    1.6313   -2.2281    2.3615 H   0  0  0  0  0  0  0  0  0  0  0  0
    2.0903   -3.1117    3.7969 H   0  0  0  0  0  0  0  0  0  0  0  0
    1.4861   -3.9543    2.3897 H   0  0  0  0  0  0  0  0  0  0  0  0
  1  2  2  0
  1 27  1  0
  1 28  1  0
  2  8  1  0
  2  3  1  0
  3  4  2  0
  3  5  1  0
  5  6  2  0
  5  7  1  0
  7 13  1  0
  7  8  1  0
  7 29  1  6
  8  9  1  0
  8 30  1  6
  9 10  2  0
  9 11  1  0
 11 12  1  0
 11 31  1  0
 11 32  1  0
 12 25  1  0
 12 13  1  0
 12 33  1  6
 13 14  1  6
 13 15  1  0
 14 34  1  0
 14 35  1  0
 14 36  1  0
 15 16  1  0
 15 37  1  0
 15 38  1  0
 16 17  1  0
 16 39  1  0
 16 40  1  0
 17 25  1  0
 17 18  1  0
 17 41  1  1
 18 19  1  0
 18 20  1  0
 18 21  1  0
 19 42  1  0
 19 43  1  0
 19 44  1  0
 20 45  1  0
 20 46  1  0
 20 47  1  0
 21 22  2  0
 21 23  1  0
 23 24  1  0
 23 48  1  0
 23 49  1  0
 24 25  1  0
 24 50  1  0
 24 51  1  0
 25 26  1  1
 26 52  1  0
 26 53  1  0
 26 54  1  0
M  END
>  <i_m_ct_stereo_status>  (62) 
1

>  <s_m_source_file>  (62) 
/var/tmp/pbs.5076255.sched01/tmpyb5u0fxv/0ob_ovo1_.sdf

>  <i_m_source_file_index>  (62) 
30

>  <i_lp_mmshare_version>  (62) 
48012

>  <i_f3d_flags>  (62) 
0

>  <s_epik_input>  (62) 
Tz1DMUMoPU8pQyg9W0NIMl0pW0NAQEhdKFtDQEBIXTFbQ0BdMjNbQ0gzXSlDKD1PKVtDSDJdW0NAQEhdMltDQF00KFtDSDNdKVtDQEhdKFtDSDJdW0NIMl0zKUMoW0NIM10pKFtDSDNdKUMoPU8pW0NIMl1bQ0gyXTQ=

>  <s_epik_cmdline>  (62) 
J2VwaWtfcHl0aG9uJywgJy1waHQnLCAnMi4wJywgJy1waCcsICc3LjAnLCAnLXRuJywgJzgnLCAnLW1hJywgJzIwMCcsICctaW1hZScsICc8aW5maWxlLm1hZT4nLCAnLW9tYWUnLCAnPG91dGZpbGUubWFlPic=

>  <r_lp_tautomer_probability>  (62) 
1

>  <r_epik_Ionization_Penalty>  (62) 
1.81816e-10

>  <r_epik_Ionization_Penalty_Charging>  (62) 
0

>  <r_epik_Ionization_Penalty_Neutral>  (62) 
1.81816e-10

>  <r_epik_State_Penalty>  (62) 
-0

>  <r_epik_Charging_Adjusted_Penalty>  (62) 
0

>  <i_epik_Tot_Q>  (62) 
0

>  <i_epik_Tot_abs_Q>  (62) 
0

>  <s_lp_Force_Field>  (62) 
OPLS3e

>  <r_lp_Energy>  (62) 
52.2863

>  <b_lp_Chiralities_Consistent>  (62) 
1

>  <s_lp_Variant>  (62) 
21:0-1

>  <s_i_glide_gridfile>  (62) 
pfpi4k_grid

>  <i_i_glide_lignum>  (62) 
30

>  <i_i_glide_rotatable_bonds>  (62) 
0

>  <r_i_docking_score>  (62) 
-3.4091

>  <r_i_glide_ligand_efficiency>  (62) 
-0.131119

>  <r_i_glide_ligand_efficiency_sa>  (62) 
-0.38844

>  <r_i_glide_ligand_efficiency_ln>  (62) 
-0.800616

>  <r_i_glide_gscore>  (62) 
-3.4091

>  <r_i_glide_lipo>  (62) 
-0.22766

>  <r_i_glide_hbond>  (62) 
-0.170399

>  <r_i_glide_metal>  (62) 
-0

>  <r_i_glide_rewards>  (62) 
-1.10265

>  <r_i_glide_evdw>  (62) 
-24.6241

>  <r_i_glide_ecoul>  (62) 
-4.07203

>  <r_i_glide_erotb>  (62) 
0

>  <r_i_glide_esite>  (62) 
-0.0663862

>  <r_i_glide_emodel>  (62) 
-35.4256

>  <r_i_glide_energy>  (62) 
-28.6962

>  <r_i_glide_einternal>  (62) 
0

>  <r_i_glide_intrahb_reward>  (62) 
-0

>  <i_i_glide_confnum>  (62) 
2

>  <i_i_glide_posenum>  (62) 
8

>  <r_i_glide_eff_state_penalty>  (62) 
0

>  <ligand_id>  (62) 
21

>  <original_smiles>  (62) 
C=C1C(=O)C(=O)C2C1C(=O)CC1C2(C)CCC2C(C)(C)C(=O)CCC21C

>  <smiles>  (62) 
[H]C([H])=C1C(=O)C(=O)C2([H])C1([H])C(=O)C([H])([H])C1([H])C2(C([H])([H])[H])C([H])([H])C([H])([H])C2([H])C(C([H])([H])[H])(C([H])([H])[H])C(=O)C([H])([H])C([H])([H])C21C([H])([H])[H]

$$$$
21:0:1
     RDKit          3D

 54 57  0  0  1  0  0  0  0  0999 V2000
    1.0561   -0.4191    7.7652 C   0  0  0  0  0  0  0  0  0  0  0  0
    1.3859   -1.1842    6.7098 C   0  0  0  0  0  0  0  0  0  0  0  0
    0.4184   -2.0062    5.9876 C   0  0  0  0  0  0  0  0  0  0  0  0
   -0.8090   -2.0164    6.1065 O   0  0  0  0  0  0  0  0  0  0  0  0
    1.1994   -2.9237    5.0618 C   0  0  0  0  0  0  0  0  0  0  0  0
    0.6762   -3.7108    4.2702 O   0  0  0  0  0  0  0  0  0  0  0  0
    2.6951   -2.7913    5.3724 C   0  0  2  0  0  0  0  0  0  0  0  0
    2.7818   -1.4495    6.1555 C   0  0  1  0  0  0  0  0  0  0  0  0
    3.2665   -0.2825    5.2829 C   0  0  0  0  0  0  0  0  0  0  0  0
    2.7370    0.8273    5.2974 O   0  0  0  0  0  0  0  0  0  0  0  0
    4.4738   -0.5622    4.4023 C   0  0  0  0  0  0  0  0  0  0  0  0
    4.2960   -1.8037    3.4894 C   0  0  1  0  0  0  0  0  0  0  0  0
    3.8300   -3.0714    4.3048 C   0  0  1  0  0  0  0  0  0  0  0  0
    5.0397   -3.5337    5.1659 C   0  0  0  0  0  0  0  0  0  0  0  0
    3.5500   -4.2899    3.3701 C   0  0  0  0  0  0  0  0  0  0  0  0
    2.9706   -3.9997    1.9698 C   0  0  0  0  0  0  0  0  0  0  0  0
    3.6331   -2.8247    1.2091 C   0  0  2  0  0  0  0  0  0  0  0  0
    4.9704   -3.1848    0.4230 C   0  0  0  0  0  0  0  0  0  0  0  0
    5.9879   -4.0457    1.2075 C   0  0  0  0  0  0  0  0  0  0  0  0
    4.5876   -3.9842   -0.8501 C   0  0  0  0  0  0  0  0  0  0  0  0
    5.7328   -1.9155   -0.0342 C   0  0  0  0  0  0  0  0  0  0  0  0
    6.3609   -1.8592   -1.0930 O   0  0  0  0  0  0  0  0  0  0  0  0
    5.7355   -0.7189    0.8995 C   0  0  0  0  0  0  0  0  0  0  0  0
    4.2998   -0.3980    1.3091 C   0  0  0  0  0  0  0  0  0  0  0  0
    3.6032   -1.5354    2.0990 C   0  0  2  0  0  0  0  0  0  0  0  0
    2.1402   -1.0469    2.2521 C   0  0  0  0  0  0  0  0  0  0  0  0
    1.8026    0.1475    8.3060 H   0  0  0  0  0  0  0  0  0  0  0  0
    0.0351   -0.3444    8.1128 H   0  0  0  0  0  0  0  0  0  0  0  0
    2.8159   -3.5694    6.1281 H   0  0  0  0  0  0  0  0  0  0  0  0
    3.4785   -1.5427    6.9888 H   0  0  0  0  0  0  0  0  0  0  0  0
    4.7291    0.3302    3.8358 H   0  0  0  0  0  0  0  0  0  0  0  0
    5.3175   -0.7267    5.0690 H   0  0  0  0  0  0  0  0  0  0  0  0
    5.3223   -2.0276    3.2151 H   0  0  0  0  0  0  0  0  0  0  0  0
    5.9110   -3.7481    4.5453 H   0  0  0  0  0  0  0  0  0  0  0  0
    4.8166   -4.4563    5.7076 H   0  0  0  0  0  0  0  0  0  0  0  0
    5.3432   -2.7886    5.9016 H   0  0  0  0  0  0  0  0  0  0  0  0
    4.4654   -4.8603    3.2240 H   0  0  0  0  0  0  0  0  0  0  0  0
    2.9034   -5.0043    3.8774 H   0  0  0  0  0  0  0  0  0  0  0  0
    3.0178   -4.9115    1.3782 H   0  0  0  0  0  0  0  0  0  0  0  0
    1.9031   -3.8103    2.0539 H   0  0  0  0  0  0  0  0  0  0  0  0
    2.9300   -2.6040    0.4023 H   0  0  0  0  0  0  0  0  0  0  0  0
    5.6251   -5.0615    1.3618 H   0  0  0  0  0  0  0  0  0  0  0  0
    6.2369   -3.6240    2.1763 H   0  0  0  0  0  0  0  0  0  0  0  0
    6.9308   -4.1443    0.6648 H   0  0  0  0  0  0  0  0  0  0  0  0
    4.0749   -4.9166   -0.6131 H   0  0  0  0  0  0  0  0  0  0  0  0
    5.4589   -4.2536   -1.4498 H   0  0  0  0  0  0  0  0  0  0  0  0
    3.9238   -3.4070   -1.4972 H   0  0  0  0  0  0  0  0  0  0  0  0
    6.3733   -0.9285    1.7560 H   0  0  0  0  0  0  0  0  0  0  0  0
    6.1759    0.1341    0.3835 H   0  0  0  0  0  0  0  0  0  0  0  0
    4.2655    0.5448    1.8496 H   0  0  0  0  0  0  0  0  0  0  0  0
    3.7348   -0.2035    0.3947 H   0  0  0  0  0  0  0  0  0  0  0  0
    1.6816   -0.8677    1.2789 H   0  0  0  0  0  0  0  0  0  0  0  0
    2.0689   -0.1044    2.7902 H   0  0  0  0  0  0  0  0  0  0  0  0
    1.4951   -1.7605    2.7440 H   0  0  0  0  0  0  0  0  0  0  0  0
  1  2  2  0
  1 27  1  0
  1 28  1  0
  2  8  1  0
  2  3  1  0
  3  4  2  0
  3  5  1  0
  5  6  2  0
  5  7  1  0
  7 13  1  0
  7  8  1  0
  7 29  1  1
  8  9  1  0
  8 30  1  1
  9 10  2  0
  9 11  1  0
 11 12  1  0
 11 31  1  0
 11 32  1  0
 12 25  1  0
 12 13  1  0
 12 33  1  6
 13 14  1  1
 13 15  1  0
 14 34  1  0
 14 35  1  0
 14 36  1  0
 15 16  1  0
 15 37  1  0
 15 38  1  0
 16 17  1  0
 16 39  1  0
 16 40  1  0
 17 25  1  0
 17 18  1  0
 17 41  1  6
 18 19  1  0
 18 20  1  0
 18 21  1  0
 19 42  1  0
 19 43  1  0
 19 44  1  0
 20 45  1  0
 20 46  1  0
 20 47  1  0
 21 22  2  0
 21 23  1  0
 23 24  1  0
 23 48  1  0
 23 49  1  0
 24 25  1  0
 24 50  1  0
 24 51  1  0
 25 26  1  1
 26 52  1  0
 26 53  1  0
 26 54  1  0
M  END
>  <i_m_ct_stereo_status>  (63) 
1

>  <s_m_source_file>  (63) 
/var/tmp/pbs.5076255.sched01/tmpyb5u0fxv/0ob_ovo1_.sdf

>  <i_m_source_file_index>  (63) 
30

>  <i_lp_mmshare_version>  (63) 
48012

>  <i_f3d_flags>  (63) 
0

>  <s_epik_input>  (63) 
Tz1DMUMoPU8pQyg9W0NIMl0pW0NAQEhdKFtDQEBIXTFbQ0BdMjNbQ0gzXSlDKD1PKVtDSDJdW0NAQEhdMltDQF00KFtDSDNdKVtDQEhdKFtDSDJdW0NIMl0zKUMoW0NIM10pKFtDSDNdKUMoPU8pW0NIMl1bQ0gyXTQ=

>  <s_epik_cmdline>  (63) 
J2VwaWtfcHl0aG9uJywgJy1waHQnLCAnMi4wJywgJy1waCcsICc3LjAnLCAnLXRuJywgJzgnLCAnLW1hJywgJzIwMCcsICctaW1hZScsICc8aW5maWxlLm1hZT4nLCAnLW9tYWUnLCAnPG91dGZpbGUubWFlPic=

>  <r_lp_tautomer_probability>  (63) 
1

>  <r_epik_Ionization_Penalty>  (63) 
1.81816e-10

>  <r_epik_Ionization_Penalty_Charging>  (63) 
0

>  <r_epik_Ionization_Penalty_Neutral>  (63) 
1.81816e-10

>  <r_epik_State_Penalty>  (63) 
-0

>  <r_epik_Charging_Adjusted_Penalty>  (63) 
0

>  <i_epik_Tot_Q>  (63) 
0

>  <i_epik_Tot_abs_Q>  (63) 
0

>  <s_lp_Force_Field>  (63) 
OPLS3e

>  <r_lp_Energy>  (63) 
52.2863

>  <b_lp_Chiralities_Consistent>  (63) 
1

>  <s_lp_Variant>  (63) 
21:0-1

>  <s_i_glide_gridfile>  (63) 
pfpi4k_grid

>  <i_i_glide_lignum>  (63) 
30

>  <i_i_glide_rotatable_bonds>  (63) 
0

>  <r_i_docking_score>  (63) 
-3.01767

>  <r_i_glide_ligand_efficiency>  (63) 
-0.116064

>  <r_i_glide_ligand_efficiency_sa>  (63) 
-0.34384

>  <r_i_glide_ligand_efficiency_ln>  (63) 
-0.708691

>  <r_i_glide_gscore>  (63) 
-3.01767

>  <r_i_glide_lipo>  (63) 
-0.399532

>  <r_i_glide_hbond>  (63) 
-0.155751

>  <r_i_glide_metal>  (63) 
-0

>  <r_i_glide_rewards>  (63) 
-0.98445

>  <r_i_glide_evdw>  (63) 
-22.7374

>  <r_i_glide_ecoul>  (63) 
-2.16226

>  <r_i_glide_erotb>  (63) 
0

>  <r_i_glide_esite>  (63) 
-0.0167319

>  <r_i_glide_emodel>  (63) 
-30.8543

>  <r_i_glide_energy>  (63) 
-24.8997

>  <r_i_glide_einternal>  (63) 
0

>  <r_i_glide_intrahb_reward>  (63) 
-0

>  <i_i_glide_confnum>  (63) 
2

>  <i_i_glide_posenum>  (63) 
6

>  <r_i_glide_eff_state_penalty>  (63) 
0

>  <ligand_id>  (63) 
21

>  <original_smiles>  (63) 
C=C1C(=O)C(=O)C2C1C(=O)CC1C2(C)CCC2C(C)(C)C(=O)CCC21C

>  <smiles>  (63) 
[H]C([H])=C1C(=O)C(=O)C2([H])C1([H])C(=O)C([H])([H])C1([H])C2(C([H])([H])[H])C([H])([H])C([H])([H])C2([H])C(C([H])([H])[H])(C([H])([H])[H])C(=O)C([H])([H])C([H])([H])C21C([H])([H])[H]

$$$$
21:0:2
     RDKit          3D

 54 57  0  0  1  0  0  0  0  0999 V2000
    2.2706   -6.1058    7.2039 C   0  0  0  0  0  0  0  0  0  0  0  0
    2.2630   -5.9511    5.8681 C   0  0  0  0  0  0  0  0  0  0  0  0
    1.0580   -6.0826    5.0536 C   0  0  0  0  0  0  0  0  0  0  0  0
   -0.1128   -6.1609    5.4322 O   0  0  0  0  0  0  0  0  0  0  0  0
    1.4862   -6.1127    3.5972 C   0  0  0  0  0  0  0  0  0  0  0  0
    0.6986   -6.1314    2.6451 O   0  0  0  0  0  0  0  0  0  0  0  0
    3.0182   -6.2044    3.5308 C   0  0  2  0  0  0  0  0  0  0  0  0
    3.4647   -5.7461    4.9513 C   0  0  1  0  0  0  0  0  0  0  0  0
    3.9479   -4.2893    4.9816 C   0  0  0  0  0  0  0  0  0  0  0  0
    3.6114   -3.4881    5.8543 O   0  0  0  0  0  0  0  0  0  0  0  0
    4.9037   -3.8776    3.8748 C   0  0  0  0  0  0  0  0  0  0  0  0
    4.3600   -4.1722    2.4525 C   0  0  1  0  0  0  0  0  0  0  0  0
    3.8702   -5.6659    2.3096 C   0  0  1  0  0  0  0  0  0  0  0  0
    5.1379   -6.5673    2.3114 C   0  0  0  0  0  0  0  0  0  0  0  0
    3.2361   -5.9368    0.9118 C   0  0  0  0  0  0  0  0  0  0  0  0
    2.4521   -4.7845    0.2666 C   0  0  0  0  0  0  0  0  0  0  0  0
    3.1151   -3.3878    0.3316 C   0  0  2  0  0  0  0  0  0  0  0  0
    4.1916   -3.0950   -0.7997 C   0  0  0  0  0  0  0  0  0  0  0  0
    5.1963   -4.2374   -1.0596 C   0  0  0  0  0  0  0  0  0  0  0  0
    3.4457   -2.8304   -2.1360 C   0  0  0  0  0  0  0  0  0  0  0  0
    5.0424   -1.8419   -0.4860 C   0  0  0  0  0  0  0  0  0  0  0  0
    5.4594   -1.0896   -1.3678 O   0  0  0  0  0  0  0  0  0  0  0  0
    5.4229   -1.5917    0.9641 C   0  0  0  0  0  0  0  0  0  0  0  0
    4.1696   -1.6555    1.8357 C   0  0  0  0  0  0  0  0  0  0  0  0
    3.4640   -3.0392    1.8180 C   0  0  2  0  0  0  0  0  0  0  0  0
    2.1541   -2.8006    2.6112 C   0  0  0  0  0  0  0  0  0  0  0  0
    3.1851   -6.0397    7.7771 H   0  0  0  0  0  0  0  0  0  0  0  0
    1.3589   -6.3040    7.7516 H   0  0  0  0  0  0  0  0  0  0  0  0
    3.1594   -7.2863    3.5256 H   0  0  0  0  0  0  0  0  0  0  0  0
    4.2853   -6.3688    5.3089 H   0  0  0  0  0  0  0  0  0  0  0  0
    5.1844   -2.8351    3.9961 H   0  0  0  0  0  0  0  0  0  0  0  0
    5.8213   -4.4409    4.0266 H   0  0  0  0  0  0  0  0  0  0  0  0
    5.2650   -4.1335    1.8539 H   0  0  0  0  0  0  0  0  0  0  0  0
    5.8329   -6.2877    1.5147 H   0  0  0  0  0  0  0  0  0  0  0  0
    4.8773   -7.6156    2.1410 H   0  0  0  0  0  0  0  0  0  0  0  0
    5.6860   -6.5161    3.2519 H   0  0  0  0  0  0  0  0  0  0  0  0
    3.9990   -6.2482    0.2012 H   0  0  0  0  0  0  0  0  0  0  0  0
    2.5847   -6.8082    0.9659 H   0  0  0  0  0  0  0  0  0  0  0  0
    2.2170   -5.0489   -0.7577 H   0  0  0  0  0  0  0  0  0  0  0  0
    1.4787   -4.7455    0.7334 H   0  0  0  0  0  0  0  0  0  0  0  0
    2.3091   -2.6947    0.0779 H   0  0  0  0  0  0  0  0  0  0  0  0
    4.7150   -5.0951   -1.5238 H   0  0  0  0  0  0  0  0  0  0  0  0
    5.7005   -4.5824   -0.1618 H   0  0  0  0  0  0  0  0  0  0  0  0
    5.9800   -3.9192   -1.7522 H   0  0  0  0  0  0  0  0  0  0  0  0
    2.8471   -3.6842   -2.4526 H   0  0  0  0  0  0  0  0  0  0  0  0
    4.1327   -2.6104   -2.9546 H   0  0  0  0  0  0  0  0  0  0  0  0
    2.7712   -1.9751   -2.0493 H   0  0  0  0  0  0  0  0  0  0  0  0
    6.1713   -2.3183    1.2749 H   0  0  0  0  0  0  0  0  0  0  0  0
    5.8854   -0.6092    1.0452 H   0  0  0  0  0  0  0  0  0  0  0  0
    4.3988   -1.3246    2.8469 H   0  0  0  0  0  0  0  0  0  0  0  0
    3.4736   -0.9029    1.4555 H   0  0  0  0  0  0  0  0  0  0  0  0
    1.5487   -2.0219    2.1461 H   0  0  0  0  0  0  0  0  0  0  0  0
    2.3405   -2.4781    3.6331 H   0  0  0  0  0  0  0  0  0  0  0  0
    1.5185   -3.6749    2.6555 H   0  0  0  0  0  0  0  0  0  0  0  0
  1  2  2  0
  1 27  1  0
  1 28  1  0
  2  8  1  0
  2  3  1  0
  3  4  2  0
  3  5  1  0
  5  6  2  0
  5  7  1  0
  7 13  1  0
  7  8  1  0
  7 29  1  1
  8  9  1  0
  8 30  1  1
  9 10  2  0
  9 11  1  0
 11 12  1  0
 11 31  1  0
 11 32  1  0
 12 25  1  0
 12 13  1  0
 12 33  1  6
 13 14  1  6
 13 15  1  0
 14 34  1  0
 14 35  1  0
 14 36  1  0
 15 16  1  0
 15 37  1  0
 15 38  1  0
 16 17  1  0
 16 39  1  0
 16 40  1  0
 17 25  1  0
 17 18  1  0
 17 41  1  6
 18 19  1  0
 18 20  1  0
 18 21  1  0
 19 42  1  0
 19 43  1  0
 19 44  1  0
 20 45  1  0
 20 46  1  0
 20 47  1  0
 21 22  2  0
 21 23  1  0
 23 24  1  0
 23 48  1  0
 23 49  1  0
 24 25  1  0
 24 50  1  0
 24 51  1  0
 25 26  1  1
 26 52  1  0
 26 53  1  0
 26 54  1  0
M  END
>  <i_m_ct_stereo_status>  (64) 
1

>  <s_m_source_file>  (64) 
/var/tmp/pbs.5076255.sched01/tmpyb5u0fxv/0ob_ovo1_.sdf

>  <i_m_source_file_index>  (64) 
30

>  <i_lp_mmshare_version>  (64) 
48012

>  <i_f3d_flags>  (64) 
0

>  <s_epik_input>  (64) 
Tz1DMUMoPU8pQyg9W0NIMl0pW0NAQEhdKFtDQEBIXTFbQ0BdMjNbQ0gzXSlDKD1PKVtDSDJdW0NAQEhdMltDQF00KFtDSDNdKVtDQEhdKFtDSDJdW0NIMl0zKUMoW0NIM10pKFtDSDNdKUMoPU8pW0NIMl1bQ0gyXTQ=

>  <s_epik_cmdline>  (64) 
J2VwaWtfcHl0aG9uJywgJy1waHQnLCAnMi4wJywgJy1waCcsICc3LjAnLCAnLXRuJywgJzgnLCAnLW1hJywgJzIwMCcsICctaW1hZScsICc8aW5maWxlLm1hZT4nLCAnLW9tYWUnLCAnPG91dGZpbGUubWFlPic=

>  <r_lp_tautomer_probability>  (64) 
1

>  <r_epik_Ionization_Penalty>  (64) 
1.81816e-10

>  <r_epik_Ionization_Penalty_Charging>  (64) 
0

>  <r_epik_Ionization_Penalty_Neutral>  (64) 
1.81816e-10

>  <r_epik_State_Penalty>  (64) 
-0

>  <r_epik_Charging_Adjusted_Penalty>  (64) 
0

>  <i_epik_Tot_Q>  (64) 
0

>  <i_epik_Tot_abs_Q>  (64) 
0

>  <s_lp_Force_Field>  (64) 
OPLS3e

>  <r_lp_Energy>  (64) 
52.2863

>  <b_lp_Chiralities_Consistent>  (64) 
1

>  <s_lp_Variant>  (64) 
21:0-1

>  <s_i_glide_gridfile>  (64) 
pfpi4k_grid

>  <i_i_glide_lignum>  (64) 
30

>  <i_i_glide_rotatable_bonds>  (64) 
0

>  <r_i_docking_score>  (64) 
-2.7891

>  <r_i_glide_ligand_efficiency>  (64) 
-0.107273

>  <r_i_glide_ligand_efficiency_sa>  (64) 
-0.317796

>  <r_i_glide_ligand_efficiency_ln>  (64) 
-0.655011

>  <r_i_glide_gscore>  (64) 
-2.7891

>  <r_i_glide_lipo>  (64) 
-0.135102

>  <r_i_glide_hbond>  (64) 
-0.0318843

>  <r_i_glide_metal>  (64) 
-0

>  <r_i_glide_rewards>  (64) 
-0.978714

>  <r_i_glide_evdw>  (64) 
-22.735

>  <r_i_glide_ecoul>  (64) 
-3.152

>  <r_i_glide_erotb>  (64) 
0

>  <r_i_glide_esite>  (64) 
-0.033849

>  <r_i_glide_emodel>  (64) 
-31.3593

>  <r_i_glide_energy>  (64) 
-25.887

>  <r_i_glide_einternal>  (64) 
0

>  <r_i_glide_intrahb_reward>  (64) 
-0

>  <i_i_glide_confnum>  (64) 
2

>  <i_i_glide_posenum>  (64) 
14

>  <r_i_glide_eff_state_penalty>  (64) 
0

>  <ligand_id>  (64) 
21

>  <original_smiles>  (64) 
C=C1C(=O)C(=O)C2C1C(=O)CC1C2(C)CCC2C(C)(C)C(=O)CCC21C

>  <smiles>  (64) 
[H]C([H])=C1C(=O)C(=O)C2([H])C1([H])C(=O)C([H])([H])C1([H])C2(C([H])([H])[H])C([H])([H])C([H])([H])C2([H])C(C([H])([H])[H])(C([H])([H])[H])C(=O)C([H])([H])C([H])([H])C21C([H])([H])[H]

$$$$
22:0:0
     RDKit          3D

 65 70  0  0  1  0  0  0  0  0999 V2000
   -0.1627    2.6728    6.3382 C   0  0  0  0  0  0  0  0  0  0  0  0
   -0.0761    1.4088    5.8622 C   0  0  0  0  0  0  0  0  0  0  0  0
   -1.0984    0.4710    5.9358 C   0  0  0  0  0  0  0  0  0  0  0  0
   -2.1896    0.5591    6.5663 O   0  0  0  0  0  0  0  0  0  0  0  0
   -0.5207   -0.6395    5.3366 C   0  0  0  0  0  0  0  0  0  0  0  0
   -0.5285   -2.0219    5.7942 C   0  0  0  0  0  0  0  0  0  0  0  0
   -1.4571   -2.6489    6.2756 O   0  0  0  0  0  0  0  0  0  0  0  0
    0.9040   -2.5634    5.7237 C   0  0  0  0  0  0  0  0  0  0  0  0
    1.4816   -1.7611    4.5462 C   0  0  2  0  0  0  0  0  0  0  0  0
    2.9639   -1.5312    4.2202 C   0  0  2  0  0  0  0  0  0  0  0  0
    2.9789   -0.8627    2.8488 C   0  0  0  0  0  0  0  0  0  0  0  0
    1.9304   -0.1457    2.3454 C   0  0  0  0  0  0  0  0  0  0  0  0
    0.6055    0.0429    3.0783 C   0  0  0  0  0  0  0  0  0  0  0  0
    0.7469   -0.3977    4.5532 C   0  0  1  0  0  0  0  0  0  0  0  0
    1.1696    0.8369    5.3318 C   0  0  0  0  0  0  0  0  0  0  0  0
    2.3104    1.2843    5.4176 O   0  0  0  0  0  0  0  0  0  0  0  0
    4.0674   -1.3678    2.0727 C   0  0  0  0  0  0  0  0  0  0  0  0
    4.7394   -0.5715    1.2180 C   0  0  0  0  0  0  0  0  0  0  0  0
    5.9535   -0.8881    0.3777 C   0  0  0  0  0  0  0  0  0  0  0  0
    6.0170   -2.2678   -0.2858 C   0  0  2  0  0  0  0  0  0  0  0  0
    4.8436   -2.6350   -1.1803 C   0  0  1  0  0  0  0  0  0  0  0  0
    4.8369   -1.9627   -2.5563 C   0  0  0  0  0  0  0  0  0  0  0  0
    5.0505   -4.1293   -1.2882 C   0  0  0  0  0  0  0  0  0  0  0  0
    5.4726   -4.5380    0.0059 O   0  0  0  0  0  0  0  0  0  0  0  0
    6.1691   -3.4762    0.6402 C   0  0  2  0  0  0  0  0  0  0  0  0
    5.7489   -3.3014    2.1185 C   0  0  0  0  0  0  0  0  0  0  0  0
    4.3105   -2.8131    2.4959 C   0  0  2  0  0  0  0  0  0  0  0  0
    3.3291   -3.5769    1.7637 O   0  0  0  0  0  0  0  0  0  0  0  0
    3.1719   -4.9265    1.7660 C   0  0  0  0  0  0  0  0  0  0  0  0
    2.2962   -5.3976    0.6121 C   0  0  0  0  0  0  0  0  0  0  0  0
    3.6851   -5.7286    2.5502 O   0  0  0  0  0  0  0  0  0  0  0  0
    3.9998   -2.6965    4.0698 C   0  0  0  0  0  0  0  0  0  0  0  0
    5.2617   -2.2327    4.8461 C   0  0  0  0  0  0  0  0  0  0  0  0
    3.5777   -3.9764    4.8156 C   0  0  0  0  0  0  0  0  0  0  0  0
    0.6839    3.3356    6.2479 H   0  0  0  0  0  0  0  0  0  0  0  0
   -1.1050    3.0499    6.7265 H   0  0  0  0  0  0  0  0  0  0  0  0
    1.4310   -2.4049    6.6663 H   0  0  0  0  0  0  0  0  0  0  0  0
    0.8564   -3.6382    5.5421 H   0  0  0  0  0  0  0  0  0  0  0  0
    1.0977   -2.3492    3.6970 H   0  0  0  0  0  0  0  0  0  0  0  0
    3.3530   -0.8376    4.9622 H   0  0  0  0  0  0  0  0  0  0  0  0
    1.9661    0.2028    1.3302 H   0  0  0  0  0  0  0  0  0  0  0  0
    0.2869    1.0827    2.9798 H   0  0  0  0  0  0  0  0  0  0  0  0
   -0.1462   -0.5742    2.5746 H   0  0  0  0  0  0  0  0  0  0  0  0
    4.3962    0.4508    1.1132 H   0  0  0  0  0  0  0  0  0  0  0  0
    5.9522   -0.1511   -0.4224 H   0  0  0  0  0  0  0  0  0  0  0  0
    6.8473   -0.6821    0.9678 H   0  0  0  0  0  0  0  0  0  0  0  0
    6.9096   -2.2582   -0.9154 H   0  0  0  0  0  0  0  0  0  0  0  0
    3.9010   -2.4435   -0.6697 H   0  0  0  0  0  0  0  0  0  0  0  0
    5.7505   -2.1976   -3.0978 H   0  0  0  0  0  0  0  0  0  0  0  0
    4.7278   -0.8772   -2.4754 H   0  0  0  0  0  0  0  0  0  0  0  0
    4.0107   -2.3281   -3.1658 H   0  0  0  0  0  0  0  0  0  0  0  0
    4.1873   -4.6661   -1.6397 H   0  0  0  0  0  0  0  0  0  0  0  0
    5.8297   -4.3377   -2.0098 H   0  0  0  0  0  0  0  0  0  0  0  0
    7.2198   -3.7529    0.6453 H   0  0  0  0  0  0  0  0  0  0  0  0
    5.9312   -4.2422    2.6268 H   0  0  0  0  0  0  0  0  0  0  0  0
    6.4665   -2.5870    2.5129 H   0  0  0  0  0  0  0  0  0  0  0  0
    2.8656   -5.2762   -0.3088 H   0  0  0  0  0  0  0  0  0  0  0  0
    1.4161   -4.7624    0.5298 H   0  0  0  0  0  0  0  0  0  0  0  0
    2.0228   -6.4488    0.7315 H   0  0  0  0  0  0  0  0  0  0  0  0
    6.0409   -3.0022    4.8531 H   0  0  0  0  0  0  0  0  0  0  0  0
    5.0388   -2.0308    5.8977 H   0  0  0  0  0  0  0  0  0  0  0  0
    5.6850   -1.3157    4.4305 H   0  0  0  0  0  0  0  0  0  0  0  0
    4.3417   -4.7530    4.7268 H   0  0  0  0  0  0  0  0  0  0  0  0
    2.6357   -4.3709    4.4380 H   0  0  0  0  0  0  0  0  0  0  0  0
    3.4535   -3.7965    5.8892 H   0  0  0  0  0  0  0  0  0  0  0  0
  1  2  2  0
  1 35  1  0
  1 36  1  0
  2 15  1  0
  2  3  1  0
  3  4  1  0
  3  5  2  0
  5 14  1  0
  5  6  1  0
  6  7  2  0
  6  8  1  0
  8  9  1  0
  8 37  1  0
  8 38  1  0
  9 14  1  0
  9 10  1  0
  9 39  1  6
 10 32  1  0
 10 11  1  0
 10 40  1  1
 11 12  2  0
 11 17  1  0
 12 13  1  0
 12 41  1  0
 14 13  1  6
 13 42  1  0
 13 43  1  0
 14 15  1  0
 15 16  2  0
 17 27  1  0
 17 18  2  0
 18 19  1  0
 18 44  1  0
 19 20  1  0
 19 45  1  0
 19 46  1  0
 20 25  1  0
 20 21  1  0
 20 47  1  6
 21 22  1  0
 21 23  1  0
 21 48  1  1
 22 49  1  0
 22 50  1  0
 22 51  1  0
 23 24  1  0
 23 52  1  0
 23 53  1  0
 24 25  1  0
 25 26  1  0
 25 54  1  1
 26 27  1  0
 26 55  1  0
 26 56  1  0
 27 28  1  6
 27 32  1  0
 28 29  1  0
 29 30  1  0
 29 31  2  0
 30 57  1  0
 30 58  1  0
 30 59  1  0
 32 33  1  0
 32 34  1  0
 33 60  1  0
 33 61  1  0
 33 62  1  0
 34 63  1  0
 34 64  1  0
 34 65  1  0
M  CHG  1   4  -1
M  END
>  <i_m_ct_stereo_status>  (65) 
1

>  <s_m_source_file>  (65) 
/var/tmp/pbs.5076255.sched01/tmpyb5u0fxv/0ob_ovo1_.sdf

>  <i_m_source_file_index>  (65) 
31

>  <i_lp_mmshare_version>  (65) 
48012

>  <i_f3d_flags>  (65) 
0

>  <s_epik_input>  (65) 
Tz1DMUMoPVtDSDJdKUMoPU8pW0NASF0oW0NAQF0xMjMpQyg9TylbQ0gyXVtDQEBIXTJbQ0BASF00Qyg9W0NIXVtDSDJdMylDPTVbQ0BAXShDNChbQ0gzXSlbQ0gzXSkoT0MoPU8pW0NIM10pW0NIMl1bQ0BASF02W0NASF0oW0NIMl1bQ0hdNSlbQ0BASF0oW0NIM10pW0NIMl1PNg==

>  <s_epik_cmdline>  (65) 
J2VwaWtfcHl0aG9uJywgJy1waHQnLCAnMi4wJywgJy1waCcsICc3LjAnLCAnLXRuJywgJzgnLCAnLW1hJywgJzIwMCcsICctaW1hZScsICc8aW5maWxlLm1hZT4nLCAnLW9tYWUnLCAnPG91dGZpbGUubWFlPic=

>  <r_epik_Ionization_Penalty>  (65) 
0.000573215

>  <r_epik_Ionization_Penalty_Charging>  (65) 
0.000573214

>  <r_epik_Ionization_Penalty_Neutral>  (65) 
3.95286e-10

>  <r_epik_State_Penalty>  (65) 
1.76229e-07

>  <r_epik_Charging_Adjusted_Penalty>  (65) 
0.000573391

>  <i_epik_Tot_Q>  (65) 
-1

>  <i_epik_Tot_abs_Q>  (65) 
1

>  <s_epik_Chemistry_Notes>  (65) 
This compound has an ester and may undergo hydrolysis at high or low pH.

>  <s_lp_Force_Field>  (65) 
OPLS3e

>  <r_lp_Energy>  (65) 
74.5851

>  <b_lp_Chiralities_Consistent>  (65) 
1

>  <s_lp_Variant>  (65) 
22:0-1

>  <s_i_glide_gridfile>  (65) 
pfpi4k_grid

>  <i_i_glide_lignum>  (65) 
31

>  <i_i_glide_rotatable_bonds>  (65) 
2

>  <r_i_docking_score>  (65) 
-2.25496

>  <r_i_glide_ligand_efficiency>  (65) 
-0.0663223

>  <r_i_glide_ligand_efficiency_sa>  (65) 
-0.214858

>  <r_i_glide_ligand_efficiency_ln>  (65) 
-0.498183

>  <r_i_glide_gscore>  (65) 
-2.25496

>  <r_i_glide_lipo>  (65) 
-0.451206

>  <r_i_glide_hbond>  (65) 
-0.2

>  <r_i_glide_metal>  (65) 
-0

>  <r_i_glide_rewards>  (65) 
-0.251138

>  <r_i_glide_evdw>  (65) 
-25.7956

>  <r_i_glide_ecoul>  (65) 
-0.816053

>  <r_i_glide_erotb>  (65) 
0.0937887

>  <r_i_glide_esite>  (65) 
-0.0342136

>  <r_i_glide_emodel>  (65) 
-30.6783

>  <r_i_glide_energy>  (65) 
-26.6117

>  <r_i_glide_einternal>  (65) 
1.67621

>  <r_i_glide_intrahb_reward>  (65) 
-0

>  <i_i_glide_confnum>  (65) 
4

>  <i_i_glide_posenum>  (65) 
17

>  <r_i_glide_eff_state_penalty>  (65) 
0

>  <ligand_id>  (65) 
22

>  <original_smiles>  (65) 
C=C1C(=O)C2C(=O)CC3C4C(=CCC23C1=O)C1=CCC2C(C)COC2CC1(OC(C)=O)C4(C)C

>  <smiles>  (65) 
[H]C([H])=C1C(=O)C23C(=C1[O-])C(=O)C([H])([H])C2([H])C1([H])C(=C([H])C3([H])[H])C2=C([H])C([H])([H])C3([H])C([H])(OC([H])([H])C3([H])C([H])([H])[H])C([H])([H])C2(OC(=O)C([H])([H])[H])C1(C([H])([H])[H])C([H])([H])[H]

$$$$
22:0:1
     RDKit          3D

 65 70  0  0  1  0  0  0  0  0999 V2000
   -0.9339    3.6240    6.0287 C   0  0  0  0  0  0  0  0  0  0  0  0
   -0.4986    2.3479    6.0342 C   0  0  0  0  0  0  0  0  0  0  0  0
   -1.0588    1.3440    6.8089 C   0  0  0  0  0  0  0  0  0  0  0  0
   -1.9453    1.4166    7.6834 O   0  0  0  0  0  0  0  0  0  0  0  0
   -0.2864    0.2456    6.4294 C   0  0  0  0  0  0  0  0  0  0  0  0
    0.3501   -0.7363    7.3090 C   0  0  0  0  0  0  0  0  0  0  0  0
   -0.1314   -1.2859    8.2909 O   0  0  0  0  0  0  0  0  0  0  0  0
    1.8160   -0.9374    6.8938 C   0  0  0  0  0  0  0  0  0  0  0  0
    1.7344   -0.6237    5.3961 C   0  0  2  0  0  0  0  0  0  0  0  0
    2.8984   -0.2243    4.4672 C   0  0  2  0  0  0  0  0  0  0  0  0
    2.3253   -0.2358    3.0591 C   0  0  0  0  0  0  0  0  0  0  0  0
    1.0068   -0.0823    2.7700 C   0  0  0  0  0  0  0  0  0  0  0  0
   -0.0743    0.0843    3.8418 C   0  0  0  0  0  0  0  0  0  0  0  0
    0.5737    0.3947    5.2053 C   0  0  1  0  0  0  0  0  0  0  0  0
    0.6899    1.9102    5.3032 C   0  0  0  0  0  0  0  0  0  0  0  0
    1.5688    2.6021    4.7993 O   0  0  0  0  0  0  0  0  0  0  0  0
    3.2958   -0.7590    2.1476 C   0  0  0  0  0  0  0  0  0  0  0  0
    3.3920   -0.3079    0.8785 C   0  0  0  0  0  0  0  0  0  0  0  0
    4.3797   -0.6709   -0.2106 C   0  0  0  0  0  0  0  0  0  0  0  0
    4.7861   -2.1447   -0.3291 C   0  0  2  0  0  0  0  0  0  0  0  0
    3.6595   -3.1449   -0.5370 C   0  0  1  0  0  0  0  0  0  0  0  0
    3.0562   -3.1381   -1.9507 C   0  0  0  0  0  0  0  0  0  0  0  0
    4.3648   -4.4483   -0.1705 C   0  0  0  0  0  0  0  0  0  0  0  0
    5.2085   -4.0980    0.9197 O   0  0  0  0  0  0  0  0  0  0  0  0
    5.6009   -2.7321    0.8254 C   0  0  2  0  0  0  0  0  0  0  0  0
    5.5459   -2.0100    2.1954 C   0  0  0  0  0  0  0  0  0  0  0  0
    4.1632   -1.7584    2.8925 C   0  0  2  0  0  0  0  0  0  0  0  0
    3.3466   -2.9466    2.9281 O   0  0  0  0  0  0  0  0  0  0  0  0
    3.6859   -4.1528    3.4442 C   0  0  0  0  0  0  0  0  0  0  0  0
    2.5622   -5.1651    3.2836 C   0  0  0  0  0  0  0  0  0  0  0  0
    4.7494   -4.4607    3.9805 O   0  0  0  0  0  0  0  0  0  0  0  0
    4.2295   -1.0455    4.3295 C   0  0  0  0  0  0  0  0  0  0  0  0
    5.3725    0.0095    4.3595 C   0  0  0  0  0  0  0  0  0  0  0  0
    4.5059   -1.9540    5.5464 C   0  0  0  0  0  0  0  0  0  0  0  0
   -0.4316    4.3649    5.4212 H   0  0  0  0  0  0  0  0  0  0  0  0
   -1.8140    3.9318    6.5794 H   0  0  0  0  0  0  0  0  0  0  0  0
    2.4530   -0.2522    7.4480 H   0  0  0  0  0  0  0  0  0  0  0  0
    2.1331   -1.9630    7.1035 H   0  0  0  0  0  0  0  0  0  0  0  0
    1.3895   -1.5883    4.9996 H   0  0  0  0  0  0  0  0  0  0  0  0
    3.1692    0.7994    4.7103 H   0  0  0  0  0  0  0  0  0  0  0  0
    0.6474   -0.1963    1.7567 H   0  0  0  0  0  0  0  0  0  0  0  0
   -0.7738    0.8648    3.5367 H   0  0  0  0  0  0  0  0  0  0  0  0
   -0.6579   -0.8387    3.9060 H   0  0  0  0  0  0  0  0  0  0  0  0
    2.6744    0.4401    0.5823 H   0  0  0  0  0  0  0  0  0  0  0  0
    3.9252   -0.3915   -1.1609 H   0  0  0  0  0  0  0  0  0  0  0  0
    5.2543   -0.0335   -0.1058 H   0  0  0  0  0  0  0  0  0  0  0  0
    5.4218   -2.2060   -1.2128 H   0  0  0  0  0  0  0  0  0  0  0  0
    2.8680   -2.9654    0.1906 H   0  0  0  0  0  0  0  0  0  0  0  0
    3.8087   -3.3309   -2.7170 H   0  0  0  0  0  0  0  0  0  0  0  0
    2.5697   -2.1904   -2.1761 H   0  0  0  0  0  0  0  0  0  0  0  0
    2.2939   -3.9098   -2.0416 H   0  0  0  0  0  0  0  0  0  0  0  0
    3.6661   -5.2372    0.1119 H   0  0  0  0  0  0  0  0  0  0  0  0
    4.9839   -4.8166   -0.9909 H   0  0  0  0  0  0  0  0  0  0  0  0
    6.6445   -2.7404    0.5145 H   0  0  0  0  0  0  0  0  0  0  0  0
    6.1742   -2.5777    2.8747 H   0  0  0  0  0  0  0  0  0  0  0  0
    6.0686   -1.0617    2.0665 H   0  0  0  0  0  0  0  0  0  0  0  0
    2.4359   -5.3999    2.2277 H   0  0  0  0  0  0  0  0  0  0  0  0
    1.6258   -4.7615    3.6696 H   0  0  0  0  0  0  0  0  0  0  0  0
    2.7957   -6.0841    3.8205 H   0  0  0  0  0  0  0  0  0  0  0  0
    6.3526   -0.4431    4.3004 H   0  0  0  0  0  0  0  0  0  0  0  0
    5.3700    0.5870    5.2858 H   0  0  0  0  0  0  0  0  0  0  0  0
    5.3079    0.7174    3.5354 H   0  0  0  0  0  0  0  0  0  0  0  0
    5.4494   -2.4903    5.4379 H   0  0  0  0  0  0  0  0  0  0  0  0
    3.7134   -2.6824    5.6983 H   0  0  0  0  0  0  0  0  0  0  0  0
    4.5774   -1.3738    6.4663 H   0  0  0  0  0  0  0  0  0  0  0  0
  1  2  2  0
  1 35  1  0
  1 36  1  0
  2 15  1  0
  2  3  1  0
  3  4  1  0
  3  5  2  0
  5 14  1  0
  5  6  1  0
  6  7  2  0
  6  8  1  0
  8  9  1  0
  8 37  1  0
  8 38  1  0
  9 14  1  0
  9 10  1  0
  9 39  1  6
 10 32  1  0
 10 11  1  0
 10 40  1  1
 11 12  2  0
 11 17  1  0
 12 13  1  0
 12 41  1  0
 14 13  1  6
 13 42  1  0
 13 43  1  0
 14 15  1  0
 15 16  2  0
 17 27  1  0
 17 18  2  0
 18 19  1  0
 18 44  1  0
 19 20  1  0
 19 45  1  0
 19 46  1  0
 20 25  1  0
 20 21  1  0
 20 47  1  6
 21 22  1  0
 21 23  1  0
 21 48  1  1
 22 49  1  0
 22 50  1  0
 22 51  1  0
 23 24  1  0
 23 52  1  0
 23 53  1  0
 24 25  1  0
 25 26  1  0
 25 54  1  6
 26 27  1  0
 26 55  1  0
 26 56  1  0
 27 28  1  1
 27 32  1  0
 28 29  1  0
 29 30  1  0
 29 31  2  0
 30 57  1  0
 30 58  1  0
 30 59  1  0
 32 33  1  0
 32 34  1  0
 33 60  1  0
 33 61  1  0
 33 62  1  0
 34 63  1  0
 34 64  1  0
 34 65  1  0
M  CHG  1   4  -1
M  END
>  <i_m_ct_stereo_status>  (66) 
1

>  <s_m_source_file>  (66) 
/var/tmp/pbs.5076255.sched01/tmpyb5u0fxv/0ob_ovo1_.sdf

>  <i_m_source_file_index>  (66) 
31

>  <i_lp_mmshare_version>  (66) 
48012

>  <i_f3d_flags>  (66) 
0

>  <s_epik_input>  (66) 
Tz1DMUMoPVtDSDJdKUMoPU8pW0NASF0oW0NAQF0xMjMpQyg9TylbQ0gyXVtDQEBIXTJbQ0BASF00Qyg9W0NIXVtDSDJdMylDPTVbQ0BAXShDNChbQ0gzXSlbQ0gzXSkoT0MoPU8pW0NIM10pW0NIMl1bQ0BASF02W0NASF0oW0NIMl1bQ0hdNSlbQ0BASF0oW0NIM10pW0NIMl1PNg==

>  <s_epik_cmdline>  (66) 
J2VwaWtfcHl0aG9uJywgJy1waHQnLCAnMi4wJywgJy1waCcsICc3LjAnLCAnLXRuJywgJzgnLCAnLW1hJywgJzIwMCcsICctaW1hZScsICc8aW5maWxlLm1hZT4nLCAnLW9tYWUnLCAnPG91dGZpbGUubWFlPic=

>  <r_epik_Ionization_Penalty>  (66) 
0.000573215

>  <r_epik_Ionization_Penalty_Charging>  (66) 
0.000573214

>  <r_epik_Ionization_Penalty_Neutral>  (66) 
3.95286e-10

>  <r_epik_State_Penalty>  (66) 
1.76229e-07

>  <r_epik_Charging_Adjusted_Penalty>  (66) 
0.000573391

>  <i_epik_Tot_Q>  (66) 
-1

>  <i_epik_Tot_abs_Q>  (66) 
1

>  <s_epik_Chemistry_Notes>  (66) 
This compound has an ester and may undergo hydrolysis at high or low pH.

>  <s_lp_Force_Field>  (66) 
OPLS3e

>  <r_lp_Energy>  (66) 
74.5851

>  <b_lp_Chiralities_Consistent>  (66) 
1

>  <s_lp_Variant>  (66) 
22:0-1

>  <s_i_glide_gridfile>  (66) 
pfpi4k_grid

>  <i_i_glide_lignum>  (66) 
31

>  <i_i_glide_rotatable_bonds>  (66) 
2

>  <r_i_docking_score>  (66) 
-2.10935

>  <r_i_glide_ligand_efficiency>  (66) 
-0.0620397

>  <r_i_glide_ligand_efficiency_sa>  (66) 
-0.200985

>  <r_i_glide_ligand_efficiency_ln>  (66) 
-0.466015

>  <r_i_glide_gscore>  (66) 
-2.10935

>  <r_i_glide_lipo>  (66) 
-0.257954

>  <r_i_glide_hbond>  (66) 
-0.218489

>  <r_i_glide_metal>  (66) 
-0

>  <r_i_glide_rewards>  (66) 
-0.248576

>  <r_i_glide_evdw>  (66) 
-23.6012

>  <r_i_glide_ecoul>  (66) 
-1.73737

>  <r_i_glide_erotb>  (66) 
0.0937887

>  <r_i_glide_esite>  (66) 
-0.0374562

>  <r_i_glide_emodel>  (66) 
-30.4984

>  <r_i_glide_energy>  (66) 
-25.3385

>  <r_i_glide_einternal>  (66) 
0.00131072

>  <r_i_glide_intrahb_reward>  (66) 
-0

>  <i_i_glide_confnum>  (66) 
1

>  <i_i_glide_posenum>  (66) 
14

>  <r_i_glide_eff_state_penalty>  (66) 
0

>  <ligand_id>  (66) 
22

>  <original_smiles>  (66) 
C=C1C(=O)C2C(=O)CC3C4C(=CCC23C1=O)C1=CCC2C(C)COC2CC1(OC(C)=O)C4(C)C

>  <smiles>  (66) 
[H]C([H])=C1C(=O)C23C(=C1[O-])C(=O)C([H])([H])C2([H])C1([H])C(=C([H])C3([H])[H])C2=C([H])C([H])([H])C3([H])C([H])(OC([H])([H])C3([H])C([H])([H])[H])C([H])([H])C2(OC(=O)C([H])([H])[H])C1(C([H])([H])[H])C([H])([H])[H]

$$$$
22:0:2
     RDKit          3D

 65 70  0  0  1  0  0  0  0  0999 V2000
    4.0617   -5.6002    0.8522 C   0  0  0  0  0  0  0  0  0  0  0  0
    4.3082   -4.3099    1.0837 C   0  0  0  0  0  0  0  0  0  0  0  0
    5.2474   -3.5699    0.3558 C   0  0  0  0  0  0  0  0  0  0  0  0
    6.0820   -3.9810   -0.4676 O   0  0  0  0  0  0  0  0  0  0  0  0
    5.0820   -2.3152    0.9359 C   0  0  0  0  0  0  0  0  0  0  0  0
    6.1192   -1.4134    1.3762 C   0  0  0  0  0  0  0  0  0  0  0  0
    7.1599   -1.1664    0.7922 O   0  0  0  0  0  0  0  0  0  0  0  0
    5.7999   -0.8863    2.7898 C   0  0  0  0  0  0  0  0  0  0  0  0
    4.2671   -0.9247    2.7762 C   0  0  2  0  0  0  0  0  0  0  0  0
    3.3072   -0.9536    3.9862 C   0  0  2  0  0  0  0  0  0  0  0  0
    1.9134   -0.7823    3.3976 C   0  0  0  0  0  0  0  0  0  0  0  0
    1.5938   -1.0863    2.1163 C   0  0  0  0  0  0  0  0  0  0  0  0
    2.6134   -1.6237    1.1093 C   0  0  0  0  0  0  0  0  0  0  0  0
    3.8822   -2.0763    1.8105 C   0  0  1  0  0  0  0  0  0  0  0  0
    3.6964   -3.5395    2.1683 C   0  0  0  0  0  0  0  0  0  0  0  0
    3.0581   -3.9718    3.1261 O   0  0  0  0  0  0  0  0  0  0  0  0
    1.1137    0.0602    4.2414 C   0  0  0  0  0  0  0  0  0  0  0  0
   -0.2124   -0.1319    4.3887 C   0  0  0  0  0  0  0  0  0  0  0  0
   -1.1986    0.5792    5.2892 C   0  0  0  0  0  0  0  0  0  0  0  0
   -1.0330    2.0984    5.4483 C   0  0  2  0  0  0  0  0  0  0  0  0
   -1.0681    2.9258    4.1703 C   0  0  1  0  0  0  0  0  0  0  0  0
   -2.4635    3.0953    3.5537 C   0  0  0  0  0  0  0  0  0  0  0  0
   -0.4692    4.2356    4.6657 C   0  0  0  0  0  0  0  0  0  0  0  0
    0.5516    3.8441    5.5767 O   0  0  0  0  0  0  0  0  0  0  0  0
    0.2241    2.5925    6.1738 C   0  0  2  0  0  0  0  0  0  0  0  0
    1.4441    1.6348    6.2557 C   0  0  0  0  0  0  0  0  0  0  0  0
    2.0509    1.0379    4.9410 C   0  0  2  0  0  0  0  0  0  0  0  0
    2.2616    2.0685    3.9563 O   0  0  0  0  0  0  0  0  0  0  0  0
    2.9760    3.2114    4.1105 C   0  0  0  0  0  0  0  0  0  0  0  0
    2.7704    4.1611    2.9436 C   0  0  0  0  0  0  0  0  0  0  0  0
    3.6836    3.5284    5.0658 O   0  0  0  0  0  0  0  0  0  0  0  0
    3.3379    0.0957    5.1481 C   0  0  0  0  0  0  0  0  0  0  0  0
    3.1922   -0.7289    6.4595 C   0  0  0  0  0  0  0  0  0  0  0  0
    4.7055    0.7865    5.2811 C   0  0  0  0  0  0  0  0  0  0  0  0
    3.3335   -6.1156    1.4529 H   0  0  0  0  0  0  0  0  0  0  0  0
    4.5262   -6.1390    0.0308 H   0  0  0  0  0  0  0  0  0  0  0  0
    6.2062   -1.5562    3.5408 H   0  0  0  0  0  0  0  0  0  0  0  0
    6.2107    0.1178    2.9513 H   0  0  0  0  0  0  0  0  0  0  0  0
    4.0437    0.0257    2.2675 H   0  0  0  0  0  0  0  0  0  0  0  0
    3.3573   -1.9466    4.4253 H   0  0  0  0  0  0  0  0  0  0  0  0
    0.6403   -0.8365    1.6996 H   0  0  0  0  0  0  0  0  0  0  0  0
    2.1664   -2.4360    0.5424 H   0  0  0  0  0  0  0  0  0  0  0  0
    2.8384   -0.8371    0.3836 H   0  0  0  0  0  0  0  0  0  0  0  0
   -0.6627   -0.9328    3.8192 H   0  0  0  0  0  0  0  0  0  0  0  0
   -2.1891    0.3918    4.8713 H   0  0  0  0  0  0  0  0  0  0  0  0
   -1.2016    0.0870    6.2625 H   0  0  0  0  0  0  0  0  0  0  0  0
   -1.8765    2.4312    6.0563 H   0  0  0  0  0  0  0  0  0  0  0  0
   -0.3953    2.4920    3.4285 H   0  0  0  0  0  0  0  0  0  0  0  0
   -3.1649    3.5187    4.2706 H   0  0  0  0  0  0  0  0  0  0  0  0
   -2.8659    2.1472    3.2239 H   0  0  0  0  0  0  0  0  0  0  0  0
   -2.4257    3.7526    2.6826 H   0  0  0  0  0  0  0  0  0  0  0  0
   -0.0895    4.8522    3.8525 H   0  0  0  0  0  0  0  0  0  0  0  0
   -1.1990    4.8280    5.2161 H   0  0  0  0  0  0  0  0  0  0  0  0
   -0.0561    2.8259    7.1965 H   0  0  0  0  0  0  0  0  0  0  0  0
    2.2340    2.1616    6.7842 H   0  0  0  0  0  0  0  0  0  0  0  0
    1.1529    0.8232    6.9251 H   0  0  0  0  0  0  0  0  0  0  0  0
    1.7423    4.5095    2.9342 H   0  0  0  0  0  0  0  0  0  0  0  0
    2.9454    3.6490    2.0016 H   0  0  0  0  0  0  0  0  0  0  0  0
    3.4307    5.0246    3.0178 H   0  0  0  0  0  0  0  0  0  0  0  0
    3.2531   -0.1040    7.3535 H   0  0  0  0  0  0  0  0  0  0  0  0
    3.9922   -1.4669    6.5570 H   0  0  0  0  0  0  0  0  0  0  0  0
    2.2521   -1.2793    6.5020 H   0  0  0  0  0  0  0  0  0  0  0  0
    4.7217    1.4755    6.1265 H   0  0  0  0  0  0  0  0  0  0  0  0
    4.9719    1.3365    4.3806 H   0  0  0  0  0  0  0  0  0  0  0  0
    5.5053    0.0630    5.4612 H   0  0  0  0  0  0  0  0  0  0  0  0
  1  2  2  0
  1 35  1  0
  1 36  1  0
  2 15  1  0
  2  3  1  0
  3  4  1  0
  3  5  2  0
  5 14  1  0
  5  6  1  0
  6  7  2  0
  6  8  1  0
  8  9  1  0
  8 37  1  0
  8 38  1  0
  9 14  1  0
  9 10  1  0
  9 39  1  6
 10 32  1  0
 10 11  1  0
 10 40  1  1
 11 12  2  0
 11 17  1  0
 12 13  1  0
 12 41  1  0
 14 13  1  6
 13 42  1  0
 13 43  1  0
 14 15  1  0
 15 16  2  0
 17 27  1  0
 17 18  2  0
 18 19  1  0
 18 44  1  0
 19 20  1  0
 19 45  1  0
 19 46  1  0
 20 25  1  0
 20 21  1  0
 20 47  1  1
 21 22  1  0
 21 23  1  0
 21 48  1  6
 22 49  1  0
 22 50  1  0
 22 51  1  0
 23 24  1  0
 23 52  1  0
 23 53  1  0
 24 25  1  0
 25 26  1  0
 25 54  1  1
 26 27  1  0
 26 55  1  0
 26 56  1  0
 27 28  1  6
 27 32  1  0
 28 29  1  0
 29 30  1  0
 29 31  2  0
 30 57  1  0
 30 58  1  0
 30 59  1  0
 32 33  1  0
 32 34  1  0
 33 60  1  0
 33 61  1  0
 33 62  1  0
 34 63  1  0
 34 64  1  0
 34 65  1  0
M  CHG  1   4  -1
M  END
>  <i_m_ct_stereo_status>  (67) 
1

>  <s_m_source_file>  (67) 
/var/tmp/pbs.5076255.sched01/tmpyb5u0fxv/0ob_ovo1_.sdf

>  <i_m_source_file_index>  (67) 
31

>  <i_lp_mmshare_version>  (67) 
48012

>  <i_f3d_flags>  (67) 
0

>  <s_epik_input>  (67) 
Tz1DMUMoPVtDSDJdKUMoPU8pW0NASF0oW0NAQF0xMjMpQyg9TylbQ0gyXVtDQEBIXTJbQ0BASF00Qyg9W0NIXVtDSDJdMylDPTVbQ0BAXShDNChbQ0gzXSlbQ0gzXSkoT0MoPU8pW0NIM10pW0NIMl1bQ0BASF02W0NASF0oW0NIMl1bQ0hdNSlbQ0BASF0oW0NIM10pW0NIMl1PNg==

>  <s_epik_cmdline>  (67) 
J2VwaWtfcHl0aG9uJywgJy1waHQnLCAnMi4wJywgJy1waCcsICc3LjAnLCAnLXRuJywgJzgnLCAnLW1hJywgJzIwMCcsICctaW1hZScsICc8aW5maWxlLm1hZT4nLCAnLW9tYWUnLCAnPG91dGZpbGUubWFlPic=

>  <r_epik_Ionization_Penalty>  (67) 
0.000573215

>  <r_epik_Ionization_Penalty_Charging>  (67) 
0.000573214

>  <r_epik_Ionization_Penalty_Neutral>  (67) 
3.95286e-10

>  <r_epik_State_Penalty>  (67) 
1.76229e-07

>  <r_epik_Charging_Adjusted_Penalty>  (67) 
0.000573391

>  <i_epik_Tot_Q>  (67) 
-1

>  <i_epik_Tot_abs_Q>  (67) 
1

>  <s_epik_Chemistry_Notes>  (67) 
This compound has an ester and may undergo hydrolysis at high or low pH.

>  <s_lp_Force_Field>  (67) 
OPLS3e

>  <r_lp_Energy>  (67) 
74.5851

>  <b_lp_Chiralities_Consistent>  (67) 
1

>  <s_lp_Variant>  (67) 
22:0-1

>  <s_i_glide_gridfile>  (67) 
pfpi4k_grid

>  <i_i_glide_lignum>  (67) 
31

>  <i_i_glide_rotatable_bonds>  (67) 
2

>  <r_i_docking_score>  (67) 
-2.03797

>  <r_i_glide_ligand_efficiency>  (67) 
-0.0599403

>  <r_i_glide_ligand_efficiency_sa>  (67) 
-0.194183

>  <r_i_glide_ligand_efficiency_ln>  (67) 
-0.450245

>  <r_i_glide_gscore>  (67) 
-2.03797

>  <r_i_glide_lipo>  (67) 
-0.301051

>  <r_i_glide_hbond>  (67) 
0

>  <r_i_glide_metal>  (67) 
-0

>  <r_i_glide_rewards>  (67) 
-0.544846

>  <r_i_glide_evdw>  (67) 
-27.6009

>  <r_i_glide_ecoul>  (67) 
0.726165

>  <r_i_glide_erotb>  (67) 
0.0937887

>  <r_i_glide_esite>  (67) 
-0.0147447

>  <r_i_glide_emodel>  (67) 
-31.1221

>  <r_i_glide_energy>  (67) 
-26.8747

>  <r_i_glide_einternal>  (67) 
0.814213

>  <r_i_glide_intrahb_reward>  (67) 
-0

>  <i_i_glide_confnum>  (67) 
4

>  <i_i_glide_posenum>  (67) 
13

>  <r_i_glide_eff_state_penalty>  (67) 
0

>  <ligand_id>  (67) 
22

>  <original_smiles>  (67) 
C=C1C(=O)C2C(=O)CC3C4C(=CCC23C1=O)C1=CCC2C(C)COC2CC1(OC(C)=O)C4(C)C

>  <smiles>  (67) 
[H]C([H])=C1C(=O)C23C(=C1[O-])C(=O)C([H])([H])C2([H])C1([H])C(=C([H])C3([H])[H])C2=C([H])C([H])([H])C3([H])C([H])(OC([H])([H])C3([H])C([H])([H])[H])C([H])([H])C2(OC(=O)C([H])([H])[H])C1(C([H])([H])[H])C([H])([H])[H]

$$$$
23:2:0
     RDKit          3D

 63 67  0  0  1  0  0  0  0  0999 V2000
   -0.4299   -8.3346    2.6028 C   0  0  0  0  0  0  0  0  0  0  0  0
    0.3412   -7.1136    2.1083 C   0  0  0  0  0  0  0  0  0  0  0  0
   -0.2054   -6.2916    1.3580 O   0  0  0  0  0  0  0  0  0  0  0  0
    1.8109   -6.9105    2.5032 C   0  0  2  0  0  0  0  0  0  0  0  0
    2.3227   -7.8594    3.6125 C   0  0  0  0  0  0  0  0  0  0  0  0
    2.4116   -7.0001    4.8755 C   0  0  0  0  0  0  0  0  0  0  0  0
    2.8307   -5.5841    4.4081 C   0  0  1  0  0  0  0  0  0  0  0  0
    2.2738   -4.5503    5.4382 C   0  0  0  0  0  0  0  0  0  0  0  0
    1.0399   -4.4735    5.5691 O   0  0  0  0  0  0  0  0  0  0  0  0
    3.0907   -3.8549    6.0931 O   0  0  0  0  0  0  0  0  0  0  0  0
    4.3785   -5.5090    4.2885 C   0  0  0  0  0  0  0  0  0  0  0  0
    4.9084   -4.4759    3.2703 C   0  0  0  0  0  0  0  0  0  0  0  0
    4.3308   -4.6175    1.8222 C   0  0  1  0  0  0  0  0  0  0  0  0
    4.6571   -6.0725    1.3621 C   0  0  0  0  0  0  0  0  0  0  0  0
    2.7604   -4.4465    1.9916 C   0  0  2  0  0  0  0  0  0  0  0  0
    2.2679   -3.0348    2.4790 C   0  0  0  0  0  0  0  0  0  0  0  0
    2.4203   -1.7924    1.6407 C   0  0  0  0  0  0  0  0  0  0  0  0
    3.2069   -1.5364    0.5820 C   0  0  0  0  0  0  0  0  0  0  0  0
    3.4470   -2.4678   -0.5951 C   0  0  2  0  0  0  0  0  0  0  0  0
    4.5110   -2.2782    0.4392 C   0  0  2  0  0  0  0  0  0  0  0  0
    5.0931   -3.6590    0.7449 C   0  0  1  0  0  0  0  0  0  0  0  0
    6.5493   -3.3704    1.2154 C   0  0  0  0  0  0  0  0  0  0  0  0
    5.2906   -4.2952   -0.7044 C   0  0  0  0  0  0  0  0  0  0  0  0
    5.3976   -3.2622   -1.8715 C   0  0  0  0  0  0  0  0  0  0  0  0
    4.1437   -2.3271   -1.9574 C   0  0  0  0  0  0  0  0  0  0  0  0
    3.1929   -2.8121   -3.0757 C   0  0  0  0  0  0  0  0  0  0  0  0
    4.5812   -0.8919   -2.3108 C   0  0  0  0  0  0  0  0  0  0  0  0
    2.1233   -5.4692    3.0132 C   0  0  1  0  0  0  0  0  0  0  0  0
   -0.4053   -8.3770    3.6925 H   0  0  0  0  0  0  0  0  0  0  0  0
    0.0366   -9.2407    2.2131 H   0  0  0  0  0  0  0  0  0  0  0  0
   -1.4748   -8.3267    2.2990 H   0  0  0  0  0  0  0  0  0  0  0  0
    2.3477   -7.1197    1.5835 H   0  0  0  0  0  0  0  0  0  0  0  0
    1.7388   -8.7612    3.7971 H   0  0  0  0  0  0  0  0  0  0  0  0
    3.3098   -8.2313    3.3368 H   0  0  0  0  0  0  0  0  0  0  0  0
    1.4301   -6.9877    5.3532 H   0  0  0  0  0  0  0  0  0  0  0  0
    3.1082   -7.4372    5.5925 H   0  0  0  0  0  0  0  0  0  0  0  0
    4.8329   -5.3015    5.2559 H   0  0  0  0  0  0  0  0  0  0  0  0
    4.7812   -6.4967    4.0668 H   0  0  0  0  0  0  0  0  0  0  0  0
    4.7378   -3.4688    3.6456 H   0  0  0  0  0  0  0  0  0  0  0  0
    5.9860   -4.6157    3.2856 H   0  0  0  0  0  0  0  0  0  0  0  0
    4.1027   -6.3710    0.4722 H   0  0  0  0  0  0  0  0  0  0  0  0
    4.4127   -6.8407    2.0789 H   0  0  0  0  0  0  0  0  0  0  0  0
    5.7227   -6.2117    1.1658 H   0  0  0  0  0  0  0  0  0  0  0  0
    2.2726   -4.6259    1.0394 H   0  0  0  0  0  0  0  0  0  0  0  0
    1.1881   -3.0665    2.6511 H   0  0  0  0  0  0  0  0  0  0  0  0
    2.6746   -2.7776    3.4566 H   0  0  0  0  0  0  0  0  0  0  0  0
    1.8564   -0.9515    2.0099 H   0  0  0  0  0  0  0  0  0  0  0  0
    2.8358   -3.3646   -0.5807 H   0  0  0  0  0  0  0  0  0  0  0  0
    5.3146   -1.5707    0.2540 H   0  0  0  0  0  0  0  0  0  0  0  0
    7.1219   -2.8282    0.4646 H   0  0  0  0  0  0  0  0  0  0  0  0
    7.1157   -4.2763    1.4184 H   0  0  0  0  0  0  0  0  0  0  0  0
    6.5742   -2.7394    2.1016 H   0  0  0  0  0  0  0  0  0  0  0  0
    6.1759   -4.9179   -0.7059 H   0  0  0  0  0  0  0  0  0  0  0  0
    4.4599   -4.9458   -0.9779 H   0  0  0  0  0  0  0  0  0  0  0  0
    6.3083   -2.6698   -1.7531 H   0  0  0  0  0  0  0  0  0  0  0  0
    5.5363   -3.7963   -2.8046 H   0  0  0  0  0  0  0  0  0  0  0  0
    3.6625   -2.7474   -4.0574 H   0  0  0  0  0  0  0  0  0  0  0  0
    2.2839   -2.2139   -3.1098 H   0  0  0  0  0  0  0  0  0  0  0  0
    2.8923   -3.8505   -2.9348 H   0  0  0  0  0  0  0  0  0  0  0  0
    5.0019   -0.8637   -3.3154 H   0  0  0  0  0  0  0  0  0  0  0  0
    5.3431   -0.5034   -1.6328 H   0  0  0  0  0  0  0  0  0  0  0  0
    3.7300   -0.2139   -2.3080 H   0  0  0  0  0  0  0  0  0  0  0  0
    1.1278   -5.0795    3.2320 H   0  0  0  0  0  0  0  0  0  0  0  0
  1  2  1  0
  1 29  1  0
  1 30  1  0
  1 31  1  0
  2  3  2  0
  2  4  1  0
  4 28  1  0
  4  5  1  0
  4 32  1  6
  5  6  1  0
  5 33  1  0
  5 34  1  0
  6  7  1  0
  6 35  1  0
  6 36  1  0
  7 28  1  0
  7  8  1  1
  7 11  1  0
  8  9  2  0
  8 10  1  0
 11 12  1  0
 11 37  1  0
 11 38  1  0
 12 13  1  0
 12 39  1  0
 12 40  1  0
 13 21  1  0
 13 14  1  6
 13 15  1  0
 14 41  1  0
 14 42  1  0
 14 43  1  0
 15 16  1  0
 15 28  1  0
 15 44  1  6
 16 17  1  0
 16 45  1  0
 16 46  1  0
 17 18  2  0
 17 47  1  0
 18 20  1  0
 18 19  1  0
 19 25  1  0
 19 20  1  0
 19 48  1  6
 20 21  1  0
 20 49  1  6
 21 22  1  1
 21 23  1  0
 22 50  1  0
 22 51  1  0
 22 52  1  0
 23 24  1  0
 23 53  1  0
 23 54  1  0
 24 25  1  0
 24 55  1  0
 24 56  1  0
 25 26  1  0
 25 27  1  0
 26 57  1  0
 26 58  1  0
 26 59  1  0
 27 60  1  0
 27 61  1  0
 27 62  1  0
 28 63  1  1
M  CHG  1  10  -1
M  END
>  <i_m_ct_stereo_status>  (68) 
1

>  <s_m_source_file>  (68) 
/var/tmp/pbs.5076255.sched01/tmpyb5u0fxv/0ob_ovo1_.sdf

>  <i_m_source_file_index>  (68) 
34

>  <i_lp_mmshare_version>  (68) 
48012

>  <i_f3d_flags>  (68) 
0

>  <s_epik_input>  (68) 
W0NIM11DKD1PKVtDQEhdKFtDSDJdW0NIMl0xKVtDQEBIXShbQ0BAXTEyQyg9TylbT0hdKVtDQEBIXTNbQ0BdKFtDSDNdKShbQ0gyXVtDSDJdMilbQ0BdNChbQ0gzXSlbQ0hdNUMoPVtDSF1bQ0gyXTMpW0NIXTVDKFtDSDNdKShbQ0gzXSlbQ0gyXVtDSDJdNA==

>  <s_epik_cmdline>  (68) 
J2VwaWtfcHl0aG9uJywgJy1waHQnLCAnMi4wJywgJy1waCcsICc3LjAnLCAnLXRuJywgJzgnLCAnLW1hJywgJzIwMCcsICctaW1hZScsICc8aW5maWxlLm1hZT4nLCAnLW9tYWUnLCAnPG91dGZpbGUubWFlPic=

>  <r_lp_tautomer_probability>  (68) 
1

>  <r_epik_Ionization_Penalty>  (68) 
0.00617731

>  <r_epik_Ionization_Penalty_Charging>  (68) 
0.00617731

>  <r_epik_Ionization_Penalty_Neutral>  (68) 
6.5516e-14

>  <r_epik_State_Penalty>  (68) 
0.00455619

>  <r_epik_Charging_Adjusted_Penalty>  (68) 
0.0107335

>  <i_epik_Tot_Q>  (68) 
-1

>  <i_epik_Tot_abs_Q>  (68) 
1

>  <s_lp_Force_Field>  (68) 
OPLS3e

>  <r_lp_Energy>  (68) 
140.012

>  <b_lp_Chiralities_Consistent>  (68) 
1

>  <s_lp_Variant>  (68) 
23:0-3

>  <s_i_glide_gridfile>  (68) 
pfpi4k_grid

>  <i_i_glide_lignum>  (68) 
34

>  <i_i_glide_rotatable_bonds>  (68) 
2

>  <r_i_docking_score>  (68) 
-3.49837

>  <r_i_glide_ligand_efficiency>  (68) 
-0.124942

>  <r_i_glide_ligand_efficiency_sa>  (68) 
-0.379397

>  <r_i_glide_ligand_efficiency_ln>  (68) 
-0.807527

>  <r_i_glide_gscore>  (68) 
-3.49837

>  <r_i_glide_lipo>  (68) 
-0.421011

>  <r_i_glide_hbond>  (68) 
-0.295749

>  <r_i_glide_metal>  (68) 
-0

>  <r_i_glide_rewards>  (68) 
-0.794021

>  <r_i_glide_evdw>  (68) 
-26.316

>  <r_i_glide_ecoul>  (68) 
-3.98381

>  <r_i_glide_erotb>  (68) 
0

>  <r_i_glide_esite>  (68) 
-0.0742164

>  <r_i_glide_emodel>  (68) 
-35.8166

>  <r_i_glide_energy>  (68) 
-30.2999

>  <r_i_glide_einternal>  (68) 
3.99825

>  <r_i_glide_intrahb_reward>  (68) 
-0

>  <i_i_glide_confnum>  (68) 
2

>  <i_i_glide_posenum>  (68) 
25

>  <r_i_glide_eff_state_penalty>  (68) 
0

>  <ligand_id>  (68) 
23

>  <original_smiles>  (68) 
CC(=O)C1CCC2(C(=O)O)CCC3(C)C(CC=C4C5C4C3(C)CCC5(C)C)C12

>  <smiles>  (68) 
[H]C1=C2C3([H])C2([H])C(C([H])([H])[H])(C([H])([H])C([H])([H])C3(C([H])([H])[H])C([H])([H])[H])C2(C([H])([H])[H])C([H])([H])C([H])([H])C3(C(=O)[O-])C([H])([H])C([H])([H])C([H])(C(=O)C([H])([H])[H])C3([H])C2([H])C1([H])[H]

$$$$
23:2:1
     RDKit          3D

 63 67  0  0  1  0  0  0  0  0999 V2000
    1.2860   -8.7593    2.0868 C   0  0  0  0  0  0  0  0  0  0  0  0
    1.6019   -7.2699    2.0245 C   0  0  0  0  0  0  0  0  0  0  0  0
    0.6891   -6.4592    1.7853 O   0  0  0  0  0  0  0  0  0  0  0  0
    3.0725   -6.8180    2.1448 C   0  0  2  0  0  0  0  0  0  0  0  0
    3.9230   -7.6616    3.1275 C   0  0  0  0  0  0  0  0  0  0  0  0
    4.1117   -6.7971    4.3719 C   0  0  0  0  0  0  0  0  0  0  0  0
    4.2041   -5.3392    3.8671 C   0  0  1  0  0  0  0  0  0  0  0  0
    3.6860   -4.3880    4.9933 C   0  0  0  0  0  0  0  0  0  0  0  0
    4.4277   -3.4612    5.3818 O   0  0  0  0  0  0  0  0  0  0  0  0
    2.5384   -4.5959    5.4464 O   0  0  0  0  0  0  0  0  0  0  0  0
    5.6664   -5.0110    3.4776 C   0  0  0  0  0  0  0  0  0  0  0  0
    5.8198   -3.9219    2.3917 C   0  0  0  0  0  0  0  0  0  0  0  0
    5.0400   -4.1663    1.0705 C   0  0  1  0  0  0  0  0  0  0  0  0
    5.5201   -5.5537    0.5399 C   0  0  0  0  0  0  0  0  0  0  0  0
    3.5212   -4.2466    1.5191 C   0  0  2  0  0  0  0  0  0  0  0  0
    2.9013   -2.9335    2.1128 C   0  0  0  0  0  0  0  0  0  0  0  0
    2.7187   -1.6914    1.2854 C   0  0  0  0  0  0  0  0  0  0  0  0
    3.3012   -1.3126    0.1391 C   0  0  0  0  0  0  0  0  0  0  0  0
    3.4296   -2.1984   -1.0958 C   0  0  2  0  0  0  0  0  0  0  0  0
    4.6326   -1.8397   -0.2738 C   0  0  2  0  0  0  0  0  0  0  0  0
    5.4575   -3.1042   -0.0933 C   0  0  1  0  0  0  0  0  0  0  0  0
    6.9117   -2.5773    0.1236 C   0  0  0  0  0  0  0  0  0  0  0  0
    5.4755   -3.7144   -1.5630 C   0  0  0  0  0  0  0  0  0  0  0  0
    5.2084   -2.6971   -2.7103 C   0  0  0  0  0  0  0  0  0  0  0  0
    3.8342   -1.9718   -2.5615 C   0  0  0  0  0  0  0  0  0  0  0  0
    2.8032   -2.6300   -3.5052 C   0  0  0  0  0  0  0  0  0  0  0  0
    3.9681   -0.4893   -2.9668 C   0  0  0  0  0  0  0  0  0  0  0  0
    3.2546   -5.3452    2.6224 C   0  0  1  0  0  0  0  0  0  0  0  0
    1.6023   -9.2144    3.0274 H   0  0  0  0  0  0  0  0  0  0  0  0
    1.7844   -9.2750    1.2675 H   0  0  0  0  0  0  0  0  0  0  0  0
    0.2141   -8.9280    2.0043 H   0  0  0  0  0  0  0  0  0  0  0  0
    3.4736   -6.9484    1.1433 H   0  0  0  0  0  0  0  0  0  0  0  0
    3.5187   -8.6295    3.4123 H   0  0  0  0  0  0  0  0  0  0  0  0
    4.8925   -7.8830    2.6792 H   0  0  0  0  0  0  0  0  0  0  0  0
    3.2455   -6.9459    5.0186 H   0  0  0  0  0  0  0  0  0  0  0  0
    4.9881   -7.1085    4.9427 H   0  0  0  0  0  0  0  0  0  0  0  0
    6.2301   -4.7102    4.3595 H   0  0  0  0  0  0  0  0  0  0  0  0
    6.1927   -5.9165    3.1793 H   0  0  0  0  0  0  0  0  0  0  0  0
    5.5801   -2.9442    2.8094 H   0  0  0  0  0  0  0  0  0  0  0  0
    6.8767   -3.9113    2.1632 H   0  0  0  0  0  0  0  0  0  0  0  0
    4.8771   -5.9504   -0.2454 H   0  0  0  0  0  0  0  0  0  0  0  0
    5.5357   -6.3422    1.2765 H   0  0  0  0  0  0  0  0  0  0  0  0
    6.5434   -5.5161    0.1588 H   0  0  0  0  0  0  0  0  0  0  0  0
    2.9105   -4.5162    0.6638 H   0  0  0  0  0  0  0  0  0  0  0  0
    1.8872   -3.1370    2.4663 H   0  0  0  0  0  0  0  0  0  0  0  0
    3.4283   -2.5985    3.0049 H   0  0  0  0  0  0  0  0  0  0  0  0
    2.1031   -0.9449    1.7605 H   0  0  0  0  0  0  0  0  0  0  0  0
    2.9806   -3.1820   -0.9892 H   0  0  0  0  0  0  0  0  0  0  0  0
    5.2648   -1.0113   -0.5855 H   0  0  0  0  0  0  0  0  0  0  0  0
    7.2456   -1.9573   -0.7057 H   0  0  0  0  0  0  0  0  0  0  0  0
    7.6440   -3.3782    0.1977 H   0  0  0  0  0  0  0  0  0  0  0  0
    6.9967   -1.9479    1.0109 H   0  0  0  0  0  0  0  0  0  0  0  0
    6.4415   -4.1532   -1.7389 H   0  0  0  0  0  0  0  0  0  0  0  0
    4.7363   -4.5041   -1.7001 H   0  0  0  0  0  0  0  0  0  0  0  0
    6.0142   -1.9678   -2.7120 H   0  0  0  0  0  0  0  0  0  0  0  0
    5.2835   -3.2014   -3.6675 H   0  0  0  0  0  0  0  0  0  0  0  0
    3.0755   -2.4909   -4.5515 H   0  0  0  0  0  0  0  0  0  0  0  0
    1.8152   -2.1978   -3.3658 H   0  0  0  0  0  0  0  0  0  0  0  0
    2.7110   -3.7025   -3.3346 H   0  0  0  0  0  0  0  0  0  0  0  0
    4.1922   -0.3928   -4.0301 H   0  0  0  0  0  0  0  0  0  0  0  0
    4.7655    0.0248   -2.4281 H   0  0  0  0  0  0  0  0  0  0  0  0
    3.0386    0.0478   -2.7800 H   0  0  0  0  0  0  0  0  0  0  0  0
    2.2802   -5.1027    3.0445 H   0  0  0  0  0  0  0  0  0  0  0  0
  1  2  1  0
  1 29  1  0
  1 30  1  0
  1 31  1  0
  2  3  2  0
  2  4  1  0
  4 28  1  0
  4  5  1  0
  4 32  1  6
  5  6  1  0
  5 33  1  0
  5 34  1  0
  6  7  1  0
  6 35  1  0
  6 36  1  0
  7 28  1  0
  7  8  1  1
  7 11  1  0
  8  9  2  0
  8 10  1  0
 11 12  1  0
 11 37  1  0
 11 38  1  0
 12 13  1  0
 12 39  1  0
 12 40  1  0
 13 21  1  0
 13 14  1  6
 13 15  1  0
 14 41  1  0
 14 42  1  0
 14 43  1  0
 15 16  1  0
 15 28  1  0
 15 44  1  6
 16 17  1  0
 16 45  1  0
 16 46  1  0
 17 18  2  0
 17 47  1  0
 18 20  1  0
 18 19  1  0
 19 25  1  0
 19 20  1  0
 19 48  1  6
 20 21  1  0
 20 49  1  6
 21 22  1  1
 21 23  1  0
 22 50  1  0
 22 51  1  0
 22 52  1  0
 23 24  1  0
 23 53  1  0
 23 54  1  0
 24 25  1  0
 24 55  1  0
 24 56  1  0
 25 26  1  0
 25 27  1  0
 26 57  1  0
 26 58  1  0
 26 59  1  0
 27 60  1  0
 27 61  1  0
 27 62  1  0
 28 63  1  1
M  CHG  1  10  -1
M  END
>  <i_m_ct_stereo_status>  (69) 
1

>  <s_m_source_file>  (69) 
/var/tmp/pbs.5076255.sched01/tmpyb5u0fxv/0ob_ovo1_.sdf

>  <i_m_source_file_index>  (69) 
34

>  <i_lp_mmshare_version>  (69) 
48012

>  <i_f3d_flags>  (69) 
0

>  <s_epik_input>  (69) 
W0NIM11DKD1PKVtDQEhdKFtDSDJdW0NIMl0xKVtDQEBIXShbQ0BAXTEyQyg9TylbT0hdKVtDQEBIXTNbQ0BdKFtDSDNdKShbQ0gyXVtDSDJdMilbQ0BdNChbQ0gzXSlbQ0hdNUMoPVtDSF1bQ0gyXTMpW0NIXTVDKFtDSDNdKShbQ0gzXSlbQ0gyXVtDSDJdNA==

>  <s_epik_cmdline>  (69) 
J2VwaWtfcHl0aG9uJywgJy1waHQnLCAnMi4wJywgJy1waCcsICc3LjAnLCAnLXRuJywgJzgnLCAnLW1hJywgJzIwMCcsICctaW1hZScsICc8aW5maWxlLm1hZT4nLCAnLW9tYWUnLCAnPG91dGZpbGUubWFlPic=

>  <r_lp_tautomer_probability>  (69) 
1

>  <r_epik_Ionization_Penalty>  (69) 
0.00617731

>  <r_epik_Ionization_Penalty_Charging>  (69) 
0.00617731

>  <r_epik_Ionization_Penalty_Neutral>  (69) 
6.5516e-14

>  <r_epik_State_Penalty>  (69) 
0.00455619

>  <r_epik_Charging_Adjusted_Penalty>  (69) 
0.0107335

>  <i_epik_Tot_Q>  (69) 
-1

>  <i_epik_Tot_abs_Q>  (69) 
1

>  <s_lp_Force_Field>  (69) 
OPLS3e

>  <r_lp_Energy>  (69) 
140.012

>  <b_lp_Chiralities_Consistent>  (69) 
1

>  <s_lp_Variant>  (69) 
23:0-3

>  <s_i_glide_gridfile>  (69) 
pfpi4k_grid

>  <i_i_glide_lignum>  (69) 
34

>  <i_i_glide_rotatable_bonds>  (69) 
2

>  <r_i_docking_score>  (69) 
-3.25822

>  <r_i_glide_ligand_efficiency>  (69) 
-0.116365

>  <r_i_glide_ligand_efficiency_sa>  (69) 
-0.353352

>  <r_i_glide_ligand_efficiency_ln>  (69) 
-0.752092

>  <r_i_glide_gscore>  (69) 
-3.25822

>  <r_i_glide_lipo>  (69) 
-0.89648

>  <r_i_glide_hbond>  (69) 
-0.081692

>  <r_i_glide_metal>  (69) 
-0

>  <r_i_glide_rewards>  (69) 
-0.794021

>  <r_i_glide_evdw>  (69) 
-25.3881

>  <r_i_glide_ecoul>  (69) 
-1.26028

>  <r_i_glide_erotb>  (69) 
0

>  <r_i_glide_esite>  (69) 
-0.0275758

>  <r_i_glide_emodel>  (69) 
-32.1405

>  <r_i_glide_energy>  (69) 
-26.6484

>  <r_i_glide_einternal>  (69) 
2.82474

>  <r_i_glide_intrahb_reward>  (69) 
-0

>  <i_i_glide_confnum>  (69) 
2

>  <i_i_glide_posenum>  (69) 
16

>  <r_i_glide_eff_state_penalty>  (69) 
0

>  <ligand_id>  (69) 
23

>  <original_smiles>  (69) 
CC(=O)C1CCC2(C(=O)O)CCC3(C)C(CC=C4C5C4C3(C)CCC5(C)C)C12

>  <smiles>  (69) 
[H]C1=C2C3([H])C2([H])C(C([H])([H])[H])(C([H])([H])C([H])([H])C3(C([H])([H])[H])C([H])([H])[H])C2(C([H])([H])[H])C([H])([H])C([H])([H])C3(C(=O)[O-])C([H])([H])C([H])([H])C([H])(C(=O)C([H])([H])[H])C3([H])C2([H])C1([H])[H]

$$$$
23:2:2
     RDKit          3D

 63 67  0  0  1  0  0  0  0  0999 V2000
    0.0917   -7.1751    4.3237 C   0  0  0  0  0  0  0  0  0  0  0  0
    0.7819   -6.6300    3.0752 C   0  0  0  0  0  0  0  0  0  0  0  0
    0.1136   -6.2609    2.0987 O   0  0  0  0  0  0  0  0  0  0  0  0
    2.3124   -6.4819    3.0585 C   0  0  2  0  0  0  0  0  0  0  0  0
    3.0468   -7.3870    4.0735 C   0  0  0  0  0  0  0  0  0  0  0  0
    3.5027   -6.4565    5.2003 C   0  0  0  0  0  0  0  0  0  0  0  0
    3.8378   -5.1005    4.5286 C   0  0  1  0  0  0  0  0  0  0  0  0
    3.6276   -3.9513    5.5642 C   0  0  0  0  0  0  0  0  0  0  0  0
    2.5568   -3.9555    6.2168 O   0  0  0  0  0  0  0  0  0  0  0  0
    4.5149   -3.0844    5.6915 O   0  0  0  0  0  0  0  0  0  0  0  0
    5.3010   -5.1204    4.0166 C   0  0  0  0  0  0  0  0  0  0  0  0
    5.5792   -4.2019    2.8080 C   0  0  0  0  0  0  0  0  0  0  0  0
    4.6540   -4.4055    1.5719 C   0  0  1  0  0  0  0  0  0  0  0  0
    4.8015   -5.9081    1.1705 C   0  0  0  0  0  0  0  0  0  0  0  0
    3.1868   -4.1265    2.1208 C   0  0  2  0  0  0  0  0  0  0  0  0
    2.8858   -2.6619    2.5880 C   0  0  0  0  0  0  0  0  0  0  0  0
    2.8608   -1.4925    1.6323 C   0  0  0  0  0  0  0  0  0  0  0  0
    3.3937   -1.3564    0.4092 C   0  0  0  0  0  0  0  0  0  0  0  0
    3.2898   -2.3808   -0.7102 C   0  0  2  0  0  0  0  0  0  0  0  0
    4.5857   -2.1782    0.0048 C   0  0  2  0  0  0  0  0  0  0  0  0
    5.1675   -3.5652    0.2732 C   0  0  1  0  0  0  0  0  0  0  0  0
    6.7060   -3.3326    0.3353 C   0  0  0  0  0  0  0  0  0  0  0  0
    4.9691   -4.3069   -1.1178 C   0  0  0  0  0  0  0  0  0  0  0  0
    4.8038   -3.3766   -2.3669 C   0  0  0  0  0  0  0  0  0  0  0  0
    3.6080   -2.3769   -2.2117 C   0  0  0  0  0  0  0  0  0  0  0  0
    2.3926   -2.8951   -3.0098 C   0  0  0  0  0  0  0  0  0  0  0  0
    3.9857   -0.9949   -2.7819 C   0  0  0  0  0  0  0  0  0  0  0  0
    2.7973   -5.0318    3.3592 C   0  0  1  0  0  0  0  0  0  0  0  0
    0.4010   -6.5964    5.1947 H   0  0  0  0  0  0  0  0  0  0  0  0
    0.3627   -8.2178    4.4919 H   0  0  0  0  0  0  0  0  0  0  0  0
   -0.9928   -7.1357    4.2423 H   0  0  0  0  0  0  0  0  0  0  0  0
    2.5949   -6.7875    2.0552 H   0  0  0  0  0  0  0  0  0  0  0  0
    2.4681   -8.2260    4.4591 H   0  0  0  0  0  0  0  0  0  0  0  0
    3.9142   -7.8443    3.5973 H   0  0  0  0  0  0  0  0  0  0  0  0
    2.6836   -6.3661    5.9151 H   0  0  0  0  0  0  0  0  0  0  0  0
    4.3443   -6.8787    5.7501 H   0  0  0  0  0  0  0  0  0  0  0  0
    5.9857   -4.8501    4.8215 H   0  0  0  0  0  0  0  0  0  0  0  0
    5.6060   -6.1422    3.7920 H   0  0  0  0  0  0  0  0  0  0  0  0
    5.5657   -3.1595    3.1223 H   0  0  0  0  0  0  0  0  0  0  0  0
    6.6128   -4.4157    2.5454 H   0  0  0  0  0  0  0  0  0  0  0  0
    4.0278   -6.2378    0.4776 H   0  0  0  0  0  0  0  0  0  0  0  0
    4.7233   -6.6053    1.9910 H   0  0  0  0  0  0  0  0  0  0  0  0
    5.7750   -6.1194    0.7250 H   0  0  0  0  0  0  0  0  0  0  0  0
    2.4656   -4.3533    1.3414 H   0  0  0  0  0  0  0  0  0  0  0  0
    1.8895   -2.6194    3.0320 H   0  0  0  0  0  0  0  0  0  0  0  0
    3.5479   -2.3477    3.3921 H   0  0  0  0  0  0  0  0  0  0  0  0
    2.4603   -0.5913    2.0711 H   0  0  0  0  0  0  0  0  0  0  0  0
    2.6602   -3.2320   -0.4650 H   0  0  0  0  0  0  0  0  0  0  0  0
    5.3419   -1.5384   -0.4435 H   0  0  0  0  0  0  0  0  0  0  0  0
    7.0825   -2.8824   -0.5820 H   0  0  0  0  0  0  0  0  0  0  0  0
    7.2634   -4.2606    0.4514 H   0  0  0  0  0  0  0  0  0  0  0  0
    6.9902   -2.6537    1.1372 H   0  0  0  0  0  0  0  0  0  0  0  0
    5.7896   -4.9816   -1.2742 H   0  0  0  0  0  0  0  0  0  0  0  0
    4.0705   -4.9220   -1.1109 H   0  0  0  0  0  0  0  0  0  0  0  0
    5.7340   -2.8350   -2.5386 H   0  0  0  0  0  0  0  0  0  0  0  0
    4.6688   -3.9924   -3.2503 H   0  0  0  0  0  0  0  0  0  0  0  0
    2.5821   -2.9254   -4.0829 H   0  0  0  0  0  0  0  0  0  0  0  0
    1.5225   -2.2613   -2.8552 H   0  0  0  0  0  0  0  0  0  0  0  0
    2.0858   -3.8899   -2.7035 H   0  0  0  0  0  0  0  0  0  0  0  0
    4.1317   -1.0599   -3.8626 H   0  0  0  0  0  0  0  0  0  0  0  0
    4.9133   -0.6071   -2.3581 H   0  0  0  0  0  0  0  0  0  0  0  0
    3.1928   -0.2662   -2.6003 H   0  0  0  0  0  0  0  0  0  0  0  0
    1.9114   -4.5721    3.8039 H   0  0  0  0  0  0  0  0  0  0  0  0
  1  2  1  0
  1 29  1  0
  1 30  1  0
  1 31  1  0
  2  3  2  0
  2  4  1  0
  4 28  1  0
  4  5  1  0
  4 32  1  6
  5  6  1  0
  5 33  1  0
  5 34  1  0
  6  7  1  0
  6 35  1  0
  6 36  1  0
  7 28  1  0
  7  8  1  1
  7 11  1  0
  8  9  2  0
  8 10  1  0
 11 12  1  0
 11 37  1  0
 11 38  1  0
 12 13  1  0
 12 39  1  0
 12 40  1  0
 13 21  1  0
 13 14  1  6
 13 15  1  0
 14 41  1  0
 14 42  1  0
 14 43  1  0
 15 16  1  0
 15 28  1  0
 15 44  1  6
 16 17  1  0
 16 45  1  0
 16 46  1  0
 17 18  2  0
 17 47  1  0
 18 20  1  0
 18 19  1  0
 19 25  1  0
 19 20  1  0
 19 48  1  1
 20 21  1  0
 20 49  1  6
 21 22  1  1
 21 23  1  0
 22 50  1  0
 22 51  1  0
 22 52  1  0
 23 24  1  0
 23 53  1  0
 23 54  1  0
 24 25  1  0
 24 55  1  0
 24 56  1  0
 25 26  1  0
 25 27  1  0
 26 57  1  0
 26 58  1  0
 26 59  1  0
 27 60  1  0
 27 61  1  0
 27 62  1  0
 28 63  1  1
M  CHG  1  10  -1
M  END
>  <i_m_ct_stereo_status>  (70) 
1

>  <s_m_source_file>  (70) 
/var/tmp/pbs.5076255.sched01/tmpyb5u0fxv/0ob_ovo1_.sdf

>  <i_m_source_file_index>  (70) 
34

>  <i_lp_mmshare_version>  (70) 
48012

>  <i_f3d_flags>  (70) 
0

>  <s_epik_input>  (70) 
W0NIM11DKD1PKVtDQEhdKFtDSDJdW0NIMl0xKVtDQEBIXShbQ0BAXTEyQyg9TylbT0hdKVtDQEBIXTNbQ0BdKFtDSDNdKShbQ0gyXVtDSDJdMilbQ0BdNChbQ0gzXSlbQ0hdNUMoPVtDSF1bQ0gyXTMpW0NIXTVDKFtDSDNdKShbQ0gzXSlbQ0gyXVtDSDJdNA==

>  <s_epik_cmdline>  (70) 
J2VwaWtfcHl0aG9uJywgJy1waHQnLCAnMi4wJywgJy1waCcsICc3LjAnLCAnLXRuJywgJzgnLCAnLW1hJywgJzIwMCcsICctaW1hZScsICc8aW5maWxlLm1hZT4nLCAnLW9tYWUnLCAnPG91dGZpbGUubWFlPic=

>  <r_lp_tautomer_probability>  (70) 
1

>  <r_epik_Ionization_Penalty>  (70) 
0.00617731

>  <r_epik_Ionization_Penalty_Charging>  (70) 
0.00617731

>  <r_epik_Ionization_Penalty_Neutral>  (70) 
6.5516e-14

>  <r_epik_State_Penalty>  (70) 
0.00455619

>  <r_epik_Charging_Adjusted_Penalty>  (70) 
0.0107335

>  <i_epik_Tot_Q>  (70) 
-1

>  <i_epik_Tot_abs_Q>  (70) 
1

>  <s_lp_Force_Field>  (70) 
OPLS3e

>  <r_lp_Energy>  (70) 
140.012

>  <b_lp_Chiralities_Consistent>  (70) 
1

>  <s_lp_Variant>  (70) 
23:0-3

>  <s_i_glide_gridfile>  (70) 
pfpi4k_grid

>  <i_i_glide_lignum>  (70) 
34

>  <i_i_glide_rotatable_bonds>  (70) 
2

>  <r_i_docking_score>  (70) 
-3.13605

>  <r_i_glide_ligand_efficiency>  (70) 
-0.112002

>  <r_i_glide_ligand_efficiency_sa>  (70) 
-0.340104

>  <r_i_glide_ligand_efficiency_ln>  (70) 
-0.723893

>  <r_i_glide_gscore>  (70) 
-3.13605

>  <r_i_glide_lipo>  (70) 
-0.467259

>  <r_i_glide_hbond>  (70) 
-0.244549

>  <r_i_glide_metal>  (70) 
-0

>  <r_i_glide_rewards>  (70) 
-0.794021

>  <r_i_glide_evdw>  (70) 
-24.5937

>  <r_i_glide_ecoul>  (70) 
-2.38757

>  <r_i_glide_erotb>  (70) 
0

>  <r_i_glide_esite>  (70) 
-0.0424032

>  <r_i_glide_emodel>  (70) 
-32.038

>  <r_i_glide_energy>  (70) 
-26.9812

>  <r_i_glide_einternal>  (70) 
3.16711

>  <r_i_glide_intrahb_reward>  (70) 
-0

>  <i_i_glide_confnum>  (70) 
1

>  <i_i_glide_posenum>  (70) 
1

>  <r_i_glide_eff_state_penalty>  (70) 
0

>  <ligand_id>  (70) 
23

>  <original_smiles>  (70) 
CC(=O)C1CCC2(C(=O)O)CCC3(C)C(CC=C4C5C4C3(C)CCC5(C)C)C12

>  <smiles>  (70) 
[H]C1=C2C3([H])C2([H])C(C([H])([H])[H])(C([H])([H])C([H])([H])C3(C([H])([H])[H])C([H])([H])[H])C2(C([H])([H])[H])C([H])([H])C([H])([H])C3(C(=O)[O-])C([H])([H])C([H])([H])C([H])(C(=O)C([H])([H])[H])C3([H])C2([H])C1([H])[H]

$$$$
24:0:0
     RDKit          3D

 74 79  0  0  1  0  0  0  0  0999 V2000
    3.3479  -12.0081    3.1986 C   0  0  0  0  0  0  0  0  0  0  0  0
    4.6519  -11.4777    3.8067 C   0  0  0  0  0  0  0  0  0  0  0  0
    5.6811  -12.1373    3.7227 O   0  0  0  0  0  0  0  0  0  0  0  0
    4.5863  -10.2756    4.4512 O   0  0  0  0  0  0  0  0  0  0  0  0
    3.4224   -9.4406    4.5281 C   0  0  2  0  0  0  0  0  0  0  0  0
    3.8579   -7.9707    4.3377 C   0  0  2  0  0  0  0  0  0  0  0  0
    4.0966   -7.2735    5.7013 C   0  0  1  0  0  0  0  0  0  0  0  0
    4.6581   -5.9879    5.5020 O   0  0  0  0  0  0  0  0  0  0  0  0
    2.8900   -7.2492    6.6542 C   0  0  1  0  0  0  0  0  0  0  0  0
    3.2361   -6.8135    8.1109 C   0  0  1  0  0  0  0  0  0  0  0  0
    4.5728   -6.0808    8.3713 C   0  0  0  0  0  0  0  0  0  0  0  0
    2.0573   -5.9298    8.5773 C   0  0  0  0  0  0  0  0  0  0  0  0
    1.2406   -5.5247    7.3354 C   0  0  0  0  0  0  0  0  0  0  0  0
    1.7329   -6.3795    6.1844 C   0  0  2  0  0  0  0  0  0  0  0  0
    0.9650   -7.6252    5.7781 C   0  0  1  0  0  0  0  0  0  0  0  0
    0.6911   -7.8180    4.2897 C   0  0  0  0  0  0  0  0  0  0  0  0
    1.4631   -7.6069    3.2044 C   0  0  0  0  0  0  0  0  0  0  0  0
    0.7395   -7.7146    1.8457 C   0  0  0  0  0  0  0  0  0  0  0  0
    2.9916   -7.3090    3.1553 C   0  0  2  0  0  0  0  0  0  0  0  0
    3.6264   -7.8544    1.8181 C   0  0  0  0  0  0  0  0  0  0  0  0
    5.0251   -7.3127    1.5106 C   0  0  0  0  0  0  0  0  0  0  0  0
    5.0202   -5.7755    1.5836 C   0  0  1  0  0  0  0  0  0  0  0  0
    6.4550   -5.2938    1.5162 C   0  0  0  0  0  0  0  0  0  0  0  0
    6.8898   -4.3368    0.6872 C   0  0  0  0  0  0  0  0  0  0  0  0
    5.9843   -3.5501   -0.2355 C   0  0  0  0  0  0  0  0  0  0  0  0
    4.4911   -3.7087    0.1196 C   0  0  1  0  0  0  0  0  0  0  0  0
    3.6115   -3.2029   -1.0326 C   0  0  0  0  0  0  0  0  0  0  0  0
    4.1432   -5.1589    0.4506 C   0  0  0  0  0  0  0  0  0  0  0  0
    4.5279   -5.4561    2.8851 O   0  0  0  0  0  0  0  0  0  0  0  0
    3.0823   -5.8870    3.0003 O   0  0  0  0  0  0  0  0  0  0  0  0
    1.9733   -8.5222    6.5307 C   0  0  2  0  0  0  0  0  0  0  0  0
    1.3490   -9.0999    7.8151 C   0  0  0  0  0  0  0  0  0  0  0  0
    2.6355   -9.7370    5.8343 C   0  0  1  0  0  0  0  0  0  0  0  0
    1.6180  -10.6700    5.5368 O   0  0  0  0  0  0  0  0  0  0  0  0
    2.9743  -11.3252    2.4317 H   0  0  0  0  0  0  0  0  0  0  0  0
    2.5991  -12.1248    3.9801 H   0  0  0  0  0  0  0  0  0  0  0  0
    3.4801  -12.9870    2.7191 H   0  0  0  0  0  0  0  0  0  0  0  0
    2.7736   -9.6800    3.6948 H   0  0  0  0  0  0  0  0  0  0  0  0
    4.8569   -8.0072    3.9746 H   0  0  0  0  0  0  0  0  0  0  0  0
    4.8934   -7.8572    6.1863 H   0  0  0  0  0  0  0  0  0  0  0  0
    4.0552   -5.4943    4.9690 H   0  0  0  0  0  0  0  0  0  0  0  0
    3.2985   -7.6974    8.7453 H   0  0  0  0  0  0  0  0  0  0  0  0
    4.6073   -5.1129    7.8741 H   0  0  0  0  0  0  0  0  0  0  0  0
    5.4339   -6.6688    8.0549 H   0  0  0  0  0  0  0  0  0  0  0  0
    4.6904   -5.9003    9.4390 H   0  0  0  0  0  0  0  0  0  0  0  0
    1.4244   -6.4953    9.2574 H   0  0  0  0  0  0  0  0  0  0  0  0
    2.3907   -5.0521    9.1282 H   0  0  0  0  0  0  0  0  0  0  0  0
    0.1645   -5.6514    7.5055 H   0  0  0  0  0  0  0  0  0  0  0  0
    1.4096   -4.4707    7.1163 H   0  0  0  0  0  0  0  0  0  0  0  0
    1.9930   -5.7786    5.3174 H   0  0  0  0  0  0  0  0  0  0  0  0
   -0.0156   -7.6473    6.2693 H   0  0  0  0  0  0  0  0  0  0  0  0
   -0.3251   -8.0953    4.1128 H   0  0  0  0  0  0  0  0  0  0  0  0
    0.9268   -6.8364    1.2299 H   0  0  0  0  0  0  0  0  0  0  0  0
   -0.3382   -7.7942    1.9568 H   0  0  0  0  0  0  0  0  0  0  0  0
    1.0640   -8.6036    1.3068 H   0  0  0  0  0  0  0  0  0  0  0  0
    3.6296   -8.9301    1.8073 H   0  0  0  0  0  0  0  0  0  0  0  0
    3.0227   -7.5464    0.9755 H   0  0  0  0  0  0  0  0  0  0  0  0
    5.7629   -7.6989    2.2140 H   0  0  0  0  0  0  0  0  0  0  0  0
    5.3528   -7.6183    0.5187 H   0  0  0  0  0  0  0  0  0  0  0  0
    7.1538   -5.8100    2.1467 H   0  0  0  0  0  0  0  0  0  0  0  0
    7.9437   -4.1209    0.6523 H   0  0  0  0  0  0  0  0  0  0  0  0
    6.2717   -2.4942   -0.1844 H   0  0  0  0  0  0  0  0  0  0  0  0
    6.1856   -3.8867   -1.2559 H   0  0  0  0  0  0  0  0  0  0  0  0
    4.2905   -3.1006    1.0062 H   0  0  0  0  0  0  0  0  0  0  0  0
    3.7624   -3.8056   -1.9337 H   0  0  0  0  0  0  0  0  0  0  0  0
    3.8357   -2.1641   -1.2879 H   0  0  0  0  0  0  0  0  0  0  0  0
    2.5508   -3.2607   -0.7798 H   0  0  0  0  0  0  0  0  0  0  0  0
    4.3056   -5.7485   -0.4337 H   0  0  0  0  0  0  0  0  0  0  0  0
    3.0773   -5.2373    0.6738 H   0  0  0  0  0  0  0  0  0  0  0  0
    0.5939   -9.8578    7.5938 H   0  0  0  0  0  0  0  0  0  0  0  0
    0.8110   -8.3424    8.3768 H   0  0  0  0  0  0  0  0  0  0  0  0
    2.1000   -9.5680    8.4493 H   0  0  0  0  0  0  0  0  0  0  0  0
    3.3210  -10.2175    6.5383 H   0  0  0  0  0  0  0  0  0  0  0  0
    1.5109  -11.2487    6.2847 H   0  0  0  0  0  0  0  0  0  0  0  0
  1  2  1  0
  1 35  1  0
  1 36  1  0
  1 37  1  0
  2  3  2  0
  2  4  1  0
  4  5  1  0
  5 33  1  0
  5  6  1  0
  5 38  1  6
  6 19  1  0
  6  7  1  0
  6 39  1  6
  7  8  1  0
  7  9  1  0
  7 40  1  1
  8 41  1  0
  9 14  1  0
  9 31  1  1
  9 10  1  0
 10 11  1  0
 10 12  1  0
 10 42  1  1
 11 43  1  0
 11 44  1  0
 11 45  1  0
 12 13  1  0
 12 46  1  0
 12 47  1  0
 13 14  1  0
 13 48  1  0
 13 49  1  0
 14 15  1  0
 14 50  1  6
 15 16  1  0
 15 31  1  0
 15 51  1  1
 16 17  2  3
 16 52  1  0
 17 18  1  0
 17 19  1  0
 18 53  1  0
 18 54  1  0
 18 55  1  0
 19 30  1  6
 19 20  1  0
 20 21  1  0
 20 56  1  0
 20 57  1  0
 21 22  1  0
 21 58  1  0
 21 59  1  0
 22 28  1  0
 22 23  1  0
 22 29  1  1
 23 24  2  0
 23 60  1  0
 24 25  1  0
 24 61  1  0
 25 26  1  0
 25 62  1  0
 25 63  1  0
 26 27  1  0
 26 28  1  0
 26 64  1  1
 27 65  1  0
 27 66  1  0
 27 67  1  0
 28 68  1  0
 28 69  1  0
 29 30  1  0
 31 32  1  1
 31 33  1  0
 32 70  1  0
 32 71  1  0
 32 72  1  0
 33 34  1  0
 33 73  1  1
 34 74  1  0
M  END
>  <i_m_ct_stereo_status>  (71) 
1

>  <s_m_source_file>  (71) 
/var/tmp/pbs.5076255.sched01/tmpyb5u0fxv/0ob_ovo1_.sdf

>  <i_m_source_file_index>  (71) 
36

>  <i_lp_mmshare_version>  (71) 
48012

>  <i_f3d_flags>  (71) 
0

>  <s_epik_input>  (71) 
W0NIM11bQ0BIXTFbQ0gyXVtDSDJdW0NAQEhdKFtDQF0xMjMpW0NAQEhdNFtDQEBdMyhbQ0gzXSlbQ0BASF0oW09IXSlbQ0BIXShPQyg9TylbQ0gzXSlbQ0BIXShbQ0BIXTJbT0hdKVtDQF01KEMoPVtDSF1cNCkvW0NIM10pW0NIMl1bQ0gyXVtDQEBdNihPTzUpW0NIXT1bQ0hdW0NIMl1bQ0BASF0oW0NIM10pW0NIMl02

>  <s_epik_cmdline>  (71) 
J2VwaWtfcHl0aG9uJywgJy1waHQnLCAnMi4wJywgJy1waCcsICc3LjAnLCAnLXRuJywgJzgnLCAnLW1hJywgJzIwMCcsICctaW1hZScsICc8aW5maWxlLm1hZT4nLCAnLW9tYWUnLCAnPG91dGZpbGUubWFlPic=

>  <r_lp_tautomer_probability>  (71) 
1

>  <r_epik_Ionization_Penalty>  (71) 
1.30459e-07

>  <r_epik_Ionization_Penalty_Charging>  (71) 
0

>  <r_epik_Ionization_Penalty_Neutral>  (71) 
1.30459e-07

>  <r_epik_State_Penalty>  (71) 
-0

>  <r_epik_Charging_Adjusted_Penalty>  (71) 
0

>  <i_epik_Tot_Q>  (71) 
0

>  <i_epik_Tot_abs_Q>  (71) 
0

>  <s_epik_Chemistry_Notes>  (71) 
This compound has an ester and may undergo hydrolysis at high or low pH.

>  <s_lp_Force_Field>  (71) 
OPLS3e

>  <r_lp_Energy>  (71) 
72.1521

>  <b_lp_Chiralities_Consistent>  (71) 
1

>  <s_lp_Variant>  (71) 
24:0-1

>  <s_i_glide_gridfile>  (71) 
pfpi4k_grid

>  <i_i_glide_lignum>  (71) 
36

>  <i_i_glide_rotatable_bonds>  (71) 
4

>  <r_i_docking_score>  (71) 
-2.2819

>  <r_i_glide_ligand_efficiency>  (71) 
-0.0671146

>  <r_i_glide_ligand_efficiency_sa>  (71) 
-0.217425

>  <r_i_glide_ligand_efficiency_ln>  (71) 
-0.504135

>  <r_i_glide_gscore>  (71) 
-2.2819

>  <r_i_glide_lipo>  (71) 
-0.495256

>  <r_i_glide_hbond>  (71) 
0

>  <r_i_glide_metal>  (71) 
-0

>  <r_i_glide_rewards>  (71) 
-0.186725

>  <r_i_glide_evdw>  (71) 
-20.2584

>  <r_i_glide_ecoul>  (71) 
-4.33951

>  <r_i_glide_erotb>  (71) 
0.0905312

>  <r_i_glide_esite>  (71) 
-0.0265997

>  <r_i_glide_emodel>  (71) 
-25.5755

>  <r_i_glide_energy>  (71) 
-24.5979

>  <r_i_glide_einternal>  (71) 
5.81458

>  <r_i_glide_intrahb_reward>  (71) 
-0

>  <i_i_glide_confnum>  (71) 
6

>  <i_i_glide_posenum>  (71) 
3

>  <r_i_glide_eff_state_penalty>  (71) 
0

>  <ligand_id>  (71) 
24

>  <original_smiles>  (71) 
CC(=O)OC1C2C(O)C34C(C)CCC3C(C=C(C)C23CCC2(C=CCC(C)C2)OO3)C4(C)C1O

>  <smiles>  (71) 
[H]OC1([H])C([H])(OC(=O)C([H])([H])[H])C2([H])C([H])(O[H])C34C([H])(C([H])([H])[H])C([H])([H])C([H])([H])C3([H])C([H])(C([H])=C(C([H])([H])[H])C23OOC2(C([H])=C([H])C([H])([H])C([H])(C([H])([H])[H])C2([H])[H])C([H])([H])C3([H])[H])C14C([H])([H])[H]

$$$$
24:0:1
     RDKit          3D

 74 79  0  0  1  0  0  0  0  0999 V2000
    8.3545   -7.6441    3.4243 C   0  0  0  0  0  0  0  0  0  0  0  0
    7.1721   -7.2641    2.5396 C   0  0  0  0  0  0  0  0  0  0  0  0
    7.3357   -6.9309    1.3668 O   0  0  0  0  0  0  0  0  0  0  0  0
    5.9895   -7.3399    3.2025 O   0  0  0  0  0  0  0  0  0  0  0  0
    4.7383   -7.0330    2.5610 C   0  0  2  0  0  0  0  0  0  0  0  0
    3.8997   -6.1341    3.4925 C   0  0  2  0  0  0  0  0  0  0  0  0
    2.9562   -6.9763    4.4128 C   0  0  1  0  0  0  0  0  0  0  0  0
    2.3533   -6.1563    5.4067 O   0  0  0  0  0  0  0  0  0  0  0  0
    1.9324   -7.8791    3.7035 C   0  0  1  0  0  0  0  0  0  0  0  0
    1.2032   -8.9386    4.6067 C   0  0  1  0  0  0  0  0  0  0  0  0
    1.2445   -8.7539    6.1421 C   0  0  0  0  0  0  0  0  0  0  0  0
   -0.2693   -8.9992    4.1287 C   0  0  0  0  0  0  0  0  0  0  0  0
   -0.5221   -7.7485    3.2704 C   0  0  0  0  0  0  0  0  0  0  0  0
    0.8227   -7.1052    2.9886 C   0  0  2  0  0  0  0  0  0  0  0  0
    1.5529   -7.3901    1.6765 C   0  0  1  0  0  0  0  0  0  0  0  0
    2.1167   -6.2189    0.8938 C   0  0  0  0  0  0  0  0  0  0  0  0
    2.7588   -5.1579    1.2676 C   0  0  0  0  0  0  0  0  0  0  0  0
    2.8816   -4.1218    0.1326 C   0  0  0  0  0  0  0  0  0  0  0  0
    3.3457   -4.8465    2.7062 C   0  0  2  0  0  0  0  0  0  0  0  0
    4.5818   -3.9075    2.5787 C   0  0  0  0  0  0  0  0  0  0  0  0
    4.1566   -2.5680    2.0395 C   0  0  0  0  0  0  0  0  0  0  0  0
    2.9604   -1.9572    2.7587 C   0  0  1  0  0  0  0  0  0  0  0  0
    3.4736   -1.6148    4.1482 C   0  0  0  0  0  0  0  0  0  0  0  0
    3.3425   -0.4217    4.7269 C   0  0  0  0  0  0  0  0  0  0  0  0
    2.5965    0.7304    4.0964 C   0  0  0  0  0  0  0  0  0  0  0  0
    1.7537    0.3100    2.8774 C   0  0  1  0  0  0  0  0  0  0  0  0
    1.3388    1.5418    2.0793 C   0  0  0  0  0  0  0  0  0  0  0  0
    2.5154   -0.6716    1.9868 C   0  0  0  0  0  0  0  0  0  0  0  0
    1.8715   -2.8971    2.8323 O   0  0  0  0  0  0  0  0  0  0  0  0
    2.3513   -4.1992    3.5099 O   0  0  0  0  0  0  0  0  0  0  0  0
    2.4778   -8.4411    2.3249 C   0  0  2  0  0  0  0  0  0  0  0  0
    2.0643   -9.8815    1.9163 C   0  0  0  0  0  0  0  0  0  0  0  0
    4.0357   -8.3607    2.1425 C   0  0  1  0  0  0  0  0  0  0  0  0
    4.3995   -8.6429    0.7985 O   0  0  0  0  0  0  0  0  0  0  0  0
    8.2610   -8.6779    3.7566 H   0  0  0  0  0  0  0  0  0  0  0  0
    8.3951   -6.9989    4.3017 H   0  0  0  0  0  0  0  0  0  0  0  0
    9.2948   -7.5428    2.8798 H   0  0  0  0  0  0  0  0  0  0  0  0
    4.9571   -6.4732    1.6544 H   0  0  0  0  0  0  0  0  0  0  0  0
    4.5920   -5.7309    4.2257 H   0  0  0  0  0  0  0  0  0  0  0  0
    3.6281   -7.6377    4.9724 H   0  0  0  0  0  0  0  0  0  0  0  0
    3.0228   -5.7568    5.9226 H   0  0  0  0  0  0  0  0  0  0  0  0
    1.6496   -9.9193    4.4604 H   0  0  0  0  0  0  0  0  0  0  0  0
    0.7217   -7.8546    6.4624 H   0  0  0  0  0  0  0  0  0  0  0  0
    2.2672   -8.7181    6.5152 H   0  0  0  0  0  0  0  0  0  0  0  0
    0.7629   -9.5964    6.6429 H   0  0  0  0  0  0  0  0  0  0  0  0
   -0.4573   -9.9036    3.5500 H   0  0  0  0  0  0  0  0  0  0  0  0
   -0.9800   -9.0427    4.9509 H   0  0  0  0  0  0  0  0  0  0  0  0
   -1.0475   -7.9979    2.3457 H   0  0  0  0  0  0  0  0  0  0  0  0
   -1.1688   -7.0652    3.8187 H   0  0  0  0  0  0  0  0  0  0  0  0
    0.7913   -6.0469    3.2886 H   0  0  0  0  0  0  0  0  0  0  0  0
    0.8699   -7.8529    0.9674 H   0  0  0  0  0  0  0  0  0  0  0  0
    1.8022   -6.2509   -0.1460 H   0  0  0  0  0  0  0  0  0  0  0  0
    2.3806   -3.1868    0.4579 H   0  0  0  0  0  0  0  0  0  0  0  0
    2.3484   -4.2807   -0.7701 H   0  0  0  0  0  0  0  0  0  0  0  0
    3.9393   -4.0038   -0.1659 H   0  0  0  0  0  0  0  0  0  0  0  0
    5.1224   -3.6605    3.5027 H   0  0  0  0  0  0  0  0  0  0  0  0
    5.3239   -4.3480    1.9375 H   0  0  0  0  0  0  0  0  0  0  0  0
    5.0126   -1.9520    1.9277 H   0  0  0  0  0  0  0  0  0  0  0  0
    4.0597   -2.5276    1.0298 H   0  0  0  0  0  0  0  0  0  0  0  0
    4.0262   -2.3948    4.6370 H   0  0  0  0  0  0  0  0  0  0  0  0
    3.7839   -0.2712    5.6924 H   0  0  0  0  0  0  0  0  0  0  0  0
    1.9578    1.1855    4.8540 H   0  0  0  0  0  0  0  0  0  0  0  0
    3.3299    1.4836    3.8061 H   0  0  0  0  0  0  0  0  0  0  0  0
    0.8360   -0.1713    3.2252 H   0  0  0  0  0  0  0  0  0  0  0  0
    2.2144    2.0559    1.6758 H   0  0  0  0  0  0  0  0  0  0  0  0
    0.7949    2.2498    2.7042 H   0  0  0  0  0  0  0  0  0  0  0  0
    0.6941    1.2675    1.2436 H   0  0  0  0  0  0  0  0  0  0  0  0
    3.3857   -0.1710    1.5615 H   0  0  0  0  0  0  0  0  0  0  0  0
    1.8989   -0.9435    1.1290 H   0  0  0  0  0  0  0  0  0  0  0  0
    2.3222  -10.1019    0.8807 H   0  0  0  0  0  0  0  0  0  0  0  0
    0.9868  -10.0394    1.9573 H   0  0  0  0  0  0  0  0  0  0  0  0
    2.5213  -10.6595    2.5247 H   0  0  0  0  0  0  0  0  0  0  0  0
    4.4813   -9.1582    2.7320 H   0  0  0  0  0  0  0  0  0  0  0  0
    4.2177   -9.5546    0.6297 H   0  0  0  0  0  0  0  0  0  0  0  0
  1  2  1  0
  1 35  1  0
  1 36  1  0
  1 37  1  0
  2  3  2  0
  2  4  1  0
  4  5  1  0
  5 33  1  0
  5  6  1  0
  5 38  1  6
  6 19  1  0
  6  7  1  0
  6 39  1  1
  7  8  1  0
  7  9  1  0
  7 40  1  1
  8 41  1  0
  9 14  1  0
  9 31  1  6
  9 10  1  0
 10 11  1  0
 10 12  1  0
 10 42  1  1
 11 43  1  0
 11 44  1  0
 11 45  1  0
 12 13  1  0
 12 46  1  0
 12 47  1  0
 13 14  1  0
 13 48  1  0
 13 49  1  0
 14 15  1  0
 14 50  1  1
 15 16  1  0
 15 31  1  0
 15 51  1  6
 16 17  2  3
 16 52  1  0
 17 18  1  0
 17 19  1  0
 18 53  1  0
 18 54  1  0
 18 55  1  0
 19 30  1  1
 19 20  1  0
 20 21  1  0
 20 56  1  0
 20 57  1  0
 21 22  1  0
 21 58  1  0
 21 59  1  0
 22 28  1  0
 22 23  1  0
 22 29  1  1
 23 24  2  0
 23 60  1  0
 24 25  1  0
 24 61  1  0
 25 26  1  0
 25 62  1  0
 25 63  1  0
 26 27  1  0
 26 28  1  0
 26 64  1  1
 27 65  1  0
 27 66  1  0
 27 67  1  0
 28 68  1  0
 28 69  1  0
 29 30  1  0
 31 32  1  6
 31 33  1  0
 32 70  1  0
 32 71  1  0
 32 72  1  0
 33 34  1  0
 33 73  1  1
 34 74  1  0
M  END
>  <i_m_ct_stereo_status>  (72) 
1

>  <s_m_source_file>  (72) 
/var/tmp/pbs.5076255.sched01/tmpyb5u0fxv/0ob_ovo1_.sdf

>  <i_m_source_file_index>  (72) 
36

>  <i_lp_mmshare_version>  (72) 
48012

>  <i_f3d_flags>  (72) 
0

>  <s_epik_input>  (72) 
W0NIM11bQ0BIXTFbQ0gyXVtDSDJdW0NAQEhdKFtDQF0xMjMpW0NAQEhdNFtDQEBdMyhbQ0gzXSlbQ0BASF0oW09IXSlbQ0BIXShPQyg9TylbQ0gzXSlbQ0BIXShbQ0BIXTJbT0hdKVtDQF01KEMoPVtDSF1cNCkvW0NIM10pW0NIMl1bQ0gyXVtDQEBdNihPTzUpW0NIXT1bQ0hdW0NIMl1bQ0BASF0oW0NIM10pW0NIMl02

>  <s_epik_cmdline>  (72) 
J2VwaWtfcHl0aG9uJywgJy1waHQnLCAnMi4wJywgJy1waCcsICc3LjAnLCAnLXRuJywgJzgnLCAnLW1hJywgJzIwMCcsICctaW1hZScsICc8aW5maWxlLm1hZT4nLCAnLW9tYWUnLCAnPG91dGZpbGUubWFlPic=

>  <r_lp_tautomer_probability>  (72) 
1

>  <r_epik_Ionization_Penalty>  (72) 
1.30459e-07

>  <r_epik_Ionization_Penalty_Charging>  (72) 
0

>  <r_epik_Ionization_Penalty_Neutral>  (72) 
1.30459e-07

>  <r_epik_State_Penalty>  (72) 
-0

>  <r_epik_Charging_Adjusted_Penalty>  (72) 
0

>  <i_epik_Tot_Q>  (72) 
0

>  <i_epik_Tot_abs_Q>  (72) 
0

>  <s_epik_Chemistry_Notes>  (72) 
This compound has an ester and may undergo hydrolysis at high or low pH.

>  <s_lp_Force_Field>  (72) 
OPLS3e

>  <r_lp_Energy>  (72) 
72.1521

>  <b_lp_Chiralities_Consistent>  (72) 
1

>  <s_lp_Variant>  (72) 
24:0-1

>  <s_i_glide_gridfile>  (72) 
pfpi4k_grid

>  <i_i_glide_lignum>  (72) 
36

>  <i_i_glide_rotatable_bonds>  (72) 
4

>  <r_i_docking_score>  (72) 
-1.37819

>  <r_i_glide_ligand_efficiency>  (72) 
-0.0405349

>  <r_i_glide_ligand_efficiency_sa>  (72) 
-0.131317

>  <r_i_glide_ligand_efficiency_ln>  (72) 
-0.30448

>  <r_i_glide_gscore>  (72) 
-1.37819

>  <r_i_glide_lipo>  (72) 
-0.0938146

>  <r_i_glide_hbond>  (72) 
0

>  <r_i_glide_metal>  (72) 
-0

>  <r_i_glide_rewards>  (72) 
-0.199282

>  <r_i_glide_evdw>  (72) 
-25.9258

>  <r_i_glide_ecoul>  (72) 
-1.54392

>  <r_i_glide_erotb>  (72) 
0.0905312

>  <r_i_glide_esite>  (72) 
0

>  <r_i_glide_emodel>  (72) 
-25.2192

>  <r_i_glide_energy>  (72) 
-27.4697

>  <r_i_glide_einternal>  (72) 
0.797888

>  <r_i_glide_intrahb_reward>  (72) 
-0

>  <i_i_glide_confnum>  (72) 
1

>  <i_i_glide_posenum>  (72) 
12

>  <r_i_glide_eff_state_penalty>  (72) 
0

>  <ligand_id>  (72) 
24

>  <original_smiles>  (72) 
CC(=O)OC1C2C(O)C34C(C)CCC3C(C=C(C)C23CCC2(C=CCC(C)C2)OO3)C4(C)C1O

>  <smiles>  (72) 
[H]OC1([H])C([H])(OC(=O)C([H])([H])[H])C2([H])C([H])(O[H])C34C([H])(C([H])([H])[H])C([H])([H])C([H])([H])C3([H])C([H])(C([H])=C(C([H])([H])[H])C23OOC2(C([H])=C([H])C([H])([H])C([H])(C([H])([H])[H])C2([H])[H])C([H])([H])C3([H])[H])C14C([H])([H])[H]

$$$$
24:0:2
     RDKit          3D

 74 79  0  0  1  0  0  0  0  0999 V2000
    8.3586   -7.6100    3.4101 C   0  0  0  0  0  0  0  0  0  0  0  0
    7.1728   -7.2164    2.5359 C   0  0  0  0  0  0  0  0  0  0  0  0
    7.3348   -6.8164    1.3839 O   0  0  0  0  0  0  0  0  0  0  0  0
    5.9886   -7.3606    3.1846 O   0  0  0  0  0  0  0  0  0  0  0  0
    4.7330   -7.0504    2.5526 C   0  0  2  0  0  0  0  0  0  0  0  0
    3.9022   -6.1500    3.4889 C   0  0  2  0  0  0  0  0  0  0  0  0
    2.9654   -6.9900    4.4153 C   0  0  1  0  0  0  0  0  0  0  0  0
    2.3666   -6.1808    5.4181 O   0  0  0  0  0  0  0  0  0  0  0  0
    1.9336   -7.8918    3.7150 C   0  0  1  0  0  0  0  0  0  0  0  0
    1.2092   -8.9491    4.6242 C   0  0  1  0  0  0  0  0  0  0  0  0
    1.2626   -8.7614    6.1592 C   0  0  0  0  0  0  0  0  0  0  0  0
   -0.2663   -9.0070    4.1569 C   0  0  0  0  0  0  0  0  0  0  0  0
   -0.5232   -7.7565    3.2996 C   0  0  0  0  0  0  0  0  0  0  0  0
    0.8207   -7.1159    3.0077 C   0  0  2  0  0  0  0  0  0  0  0  0
    1.5407   -7.4035    1.6905 C   0  0  1  0  0  0  0  0  0  0  0  0
    2.1019   -6.2326    0.9029 C   0  0  0  0  0  0  0  0  0  0  0  0
    2.7476   -5.1741    1.2713 C   0  0  0  0  0  0  0  0  0  0  0  0
    2.8641   -4.1390    0.1340 C   0  0  0  0  0  0  0  0  0  0  0  0
    3.3462   -4.8622    2.7060 C   0  0  2  0  0  0  0  0  0  0  0  0
    4.5826   -3.9259    2.5688 C   0  0  0  0  0  0  0  0  0  0  0  0
    4.1560   -2.5858    2.0305 C   0  0  0  0  0  0  0  0  0  0  0  0
    2.9664   -1.9718    2.7591 C   0  0  1  0  0  0  0  0  0  0  0  0
    3.4900   -1.6294    4.1447 C   0  0  0  0  0  0  0  0  0  0  0  0
    3.3655   -0.4364    4.7229 C   0  0  0  0  0  0  0  0  0  0  0  0
    2.6172    0.7172    4.0973 C   0  0  0  0  0  0  0  0  0  0  0  0
    1.7648    0.2973    2.8846 C   0  0  1  0  0  0  0  0  0  0  0  0
    1.3465    1.5296    2.0878 C   0  0  0  0  0  0  0  0  0  0  0  0
    2.5183   -0.6862    1.9894 C   0  0  0  0  0  0  0  0  0  0  0  0
    1.8758   -2.9099    2.8406 O   0  0  0  0  0  0  0  0  0  0  0  0
    2.3571   -4.2123    3.5153 O   0  0  0  0  0  0  0  0  0  0  0  0
    2.4685   -8.4555    2.3328 C   0  0  2  0  0  0  0  0  0  0  0  0
    2.0495   -9.8953    1.9283 C   0  0  0  0  0  0  0  0  0  0  0  0
    4.0256   -8.3775    2.1392 C   0  0  1  0  0  0  0  0  0  0  0  0
    4.3799   -8.6576    0.7933 O   0  0  0  0  0  0  0  0  0  0  0  0
    8.2935   -8.6620    3.6848 H   0  0  0  0  0  0  0  0  0  0  0  0
    8.3757   -7.0116    4.3198 H   0  0  0  0  0  0  0  0  0  0  0  0
    9.3016   -7.4529    2.8764 H   0  0  0  0  0  0  0  0  0  0  0  0
    4.9455   -6.4927    1.6431 H   0  0  0  0  0  0  0  0  0  0  0  0
    4.6000   -5.7477    4.2180 H   0  0  0  0  0  0  0  0  0  0  0  0
    3.6399   -7.6514    4.9705 H   0  0  0  0  0  0  0  0  0  0  0  0
    1.9525   -6.7519    6.0396 H   0  0  0  0  0  0  0  0  0  0  0  0
    1.6528   -9.9307    4.4752 H   0  0  0  0  0  0  0  0  0  0  0  0
    0.7395   -7.8648    6.4841 H   0  0  0  0  0  0  0  0  0  0  0  0
    2.2880   -8.7307    6.5254 H   0  0  0  0  0  0  0  0  0  0  0  0
    0.7829   -9.6041    6.6632 H   0  0  0  0  0  0  0  0  0  0  0  0
   -0.4605   -9.9114    3.5800 H   0  0  0  0  0  0  0  0  0  0  0  0
   -0.9717   -9.0489    4.9839 H   0  0  0  0  0  0  0  0  0  0  0  0
   -1.0556   -8.0055    2.3787 H   0  0  0  0  0  0  0  0  0  0  0  0
   -1.1650   -7.0716    3.8517 H   0  0  0  0  0  0  0  0  0  0  0  0
    0.7934   -6.0574    3.3067 H   0  0  0  0  0  0  0  0  0  0  0  0
    0.8520   -7.8650    0.9864 H   0  0  0  0  0  0  0  0  0  0  0  0
    1.7794   -6.2656   -0.1345 H   0  0  0  0  0  0  0  0  0  0  0  0
    2.3679   -3.2019    0.4633 H   0  0  0  0  0  0  0  0  0  0  0  0
    2.3252   -4.2964   -0.7633 H   0  0  0  0  0  0  0  0  0  0  0  0
    3.9207   -4.0224   -0.1712 H   0  0  0  0  0  0  0  0  0  0  0  0
    5.1304   -3.6789    3.4886 H   0  0  0  0  0  0  0  0  0  0  0  0
    5.3194   -4.3679    1.9224 H   0  0  0  0  0  0  0  0  0  0  0  0
    5.0126   -1.9713    1.9129 H   0  0  0  0  0  0  0  0  0  0  0  0
    4.0523   -2.5456    1.0232 H   0  0  0  0  0  0  0  0  0  0  0  0
    4.0445   -2.4108    4.6298 H   0  0  0  0  0  0  0  0  0  0  0  0
    3.8140   -0.2858    5.6854 H   0  0  0  0  0  0  0  0  0  0  0  0
    1.9847    1.1738    4.8591 H   0  0  0  0  0  0  0  0  0  0  0  0
    3.3498    1.4687    3.8013 H   0  0  0  0  0  0  0  0  0  0  0  0
    0.8487   -0.1818    3.2393 H   0  0  0  0  0  0  0  0  0  0  0  0
    2.2192    2.0416    1.6787 H   0  0  0  0  0  0  0  0  0  0  0  0
    0.8084    2.2389    2.7171 H   0  0  0  0  0  0  0  0  0  0  0  0
    0.6954    1.2559    1.2578 H   0  0  0  0  0  0  0  0  0  0  0  0
    3.3864   -0.1876    1.5574 H   0  0  0  0  0  0  0  0  0  0  0  0
    1.8949   -0.9575    1.1362 H   0  0  0  0  0  0  0  0  0  0  0  0
    2.2995  -10.1166    0.8916 H   0  0  0  0  0  0  0  0  0  0  0  0
    0.9719  -10.0513    1.9771 H   0  0  0  0  0  0  0  0  0  0  0  0
    2.5093  -10.6738    2.5338 H   0  0  0  0  0  0  0  0  0  0  0  0
    4.4739   -9.1757    2.7259 H   0  0  0  0  0  0  0  0  0  0  0  0
    4.2110   -9.5758    0.6301 H   0  0  0  0  0  0  0  0  0  0  0  0
  1  2  1  0
  1 35  1  0
  1 36  1  0
  1 37  1  0
  2  3  2  0
  2  4  1  0
  4  5  1  0
  5 33  1  0
  5  6  1  0
  5 38  1  6
  6 19  1  0
  6  7  1  0
  6 39  1  1
  7  8  1  0
  7  9  1  0
  7 40  1  1
  8 41  1  0
  9 14  1  0
  9 31  1  6
  9 10  1  0
 10 11  1  0
 10 12  1  0
 10 42  1  1
 11 43  1  0
 11 44  1  0
 11 45  1  0
 12 13  1  0
 12 46  1  0
 12 47  1  0
 13 14  1  0
 13 48  1  0
 13 49  1  0
 14 15  1  0
 14 50  1  1
 15 16  1  0
 15 31  1  0
 15 51  1  6
 16 17  2  3
 16 52  1  0
 17 18  1  0
 17 19  1  0
 18 53  1  0
 18 54  1  0
 18 55  1  0
 19 30  1  1
 19 20  1  0
 20 21  1  0
 20 56  1  0
 20 57  1  0
 21 22  1  0
 21 58  1  0
 21 59  1  0
 22 28  1  0
 22 23  1  0
 22 29  1  1
 23 24  2  0
 23 60  1  0
 24 25  1  0
 24 61  1  0
 25 26  1  0
 25 62  1  0
 25 63  1  0
 26 27  1  0
 26 28  1  0
 26 64  1  1
 27 65  1  0
 27 66  1  0
 27 67  1  0
 28 68  1  0
 28 69  1  0
 29 30  1  0
 31 32  1  6
 31 33  1  0
 32 70  1  0
 32 71  1  0
 32 72  1  0
 33 34  1  0
 33 73  1  1
 34 74  1  0
M  END
>  <i_m_ct_stereo_status>  (73) 
1

>  <s_m_source_file>  (73) 
/var/tmp/pbs.5076255.sched01/tmpyb5u0fxv/0ob_ovo1_.sdf

>  <i_m_source_file_index>  (73) 
36

>  <i_lp_mmshare_version>  (73) 
48012

>  <i_f3d_flags>  (73) 
0

>  <s_epik_input>  (73) 
W0NIM11bQ0BIXTFbQ0gyXVtDSDJdW0NAQEhdKFtDQF0xMjMpW0NAQEhdNFtDQEBdMyhbQ0gzXSlbQ0BASF0oW09IXSlbQ0BIXShPQyg9TylbQ0gzXSlbQ0BIXShbQ0BIXTJbT0hdKVtDQF01KEMoPVtDSF1cNCkvW0NIM10pW0NIMl1bQ0gyXVtDQEBdNihPTzUpW0NIXT1bQ0hdW0NIMl1bQ0BASF0oW0NIM10pW0NIMl02

>  <s_epik_cmdline>  (73) 
J2VwaWtfcHl0aG9uJywgJy1waHQnLCAnMi4wJywgJy1waCcsICc3LjAnLCAnLXRuJywgJzgnLCAnLW1hJywgJzIwMCcsICctaW1hZScsICc8aW5maWxlLm1hZT4nLCAnLW9tYWUnLCAnPG91dGZpbGUubWFlPic=

>  <r_lp_tautomer_probability>  (73) 
1

>  <r_epik_Ionization_Penalty>  (73) 
1.30459e-07

>  <r_epik_Ionization_Penalty_Charging>  (73) 
0

>  <r_epik_Ionization_Penalty_Neutral>  (73) 
1.30459e-07

>  <r_epik_State_Penalty>  (73) 
-0

>  <r_epik_Charging_Adjusted_Penalty>  (73) 
0

>  <i_epik_Tot_Q>  (73) 
0

>  <i_epik_Tot_abs_Q>  (73) 
0

>  <s_epik_Chemistry_Notes>  (73) 
This compound has an ester and may undergo hydrolysis at high or low pH.

>  <s_lp_Force_Field>  (73) 
OPLS3e

>  <r_lp_Energy>  (73) 
72.1521

>  <b_lp_Chiralities_Consistent>  (73) 
1

>  <s_lp_Variant>  (73) 
24:0-1

>  <s_i_glide_gridfile>  (73) 
pfpi4k_grid

>  <i_i_glide_lignum>  (73) 
36

>  <i_i_glide_rotatable_bonds>  (73) 
4

>  <r_i_docking_score>  (73) 
-1.34578

>  <r_i_glide_ligand_efficiency>  (73) 
-0.0395817

>  <r_i_glide_ligand_efficiency_sa>  (73) 
-0.128229

>  <r_i_glide_ligand_efficiency_ln>  (73) 
-0.29732

>  <r_i_glide_gscore>  (73) 
-1.34578

>  <r_i_glide_lipo>  (73) 
-0.0932742

>  <r_i_glide_hbond>  (73) 
0

>  <r_i_glide_metal>  (73) 
-0

>  <r_i_glide_rewards>  (73) 
-0.199584

>  <r_i_glide_evdw>  (73) 
-25.8037

>  <r_i_glide_ecoul>  (73) 
-1.59341

>  <r_i_glide_erotb>  (73) 
0.0905312

>  <r_i_glide_esite>  (73) 
0

>  <r_i_glide_emodel>  (73) 
-25.0027

>  <r_i_glide_energy>  (73) 
-27.3971

>  <r_i_glide_einternal>  (73) 
0.82222

>  <r_i_glide_intrahb_reward>  (73) 
-0

>  <i_i_glide_confnum>  (73) 
1

>  <i_i_glide_posenum>  (73) 
17

>  <r_i_glide_eff_state_penalty>  (73) 
0

>  <ligand_id>  (73) 
24

>  <original_smiles>  (73) 
CC(=O)OC1C2C(O)C34C(C)CCC3C(C=C(C)C23CCC2(C=CCC(C)C2)OO3)C4(C)C1O

>  <smiles>  (73) 
[H]OC1([H])C([H])(OC(=O)C([H])([H])[H])C2([H])C([H])(O[H])C34C([H])(C([H])([H])[H])C([H])([H])C([H])([H])C3([H])C([H])(C([H])=C(C([H])([H])[H])C23OOC2(C([H])=C([H])C([H])([H])C([H])(C([H])([H])[H])C2([H])[H])C([H])([H])C3([H])[H])C14C([H])([H])[H]

$$$$
24:1:0
     RDKit          3D

 74 79  0  0  1  0  0  0  0  0999 V2000
    8.5707   -7.1185    3.4025 C   0  0  0  0  0  0  0  0  0  0  0  0
    7.3196   -7.5875    2.6736 C   0  0  0  0  0  0  0  0  0  0  0  0
    7.2847   -7.6780    1.4420 O   0  0  0  0  0  0  0  0  0  0  0  0
    6.2810   -7.8807    3.5019 O   0  0  0  0  0  0  0  0  0  0  0  0
    5.0086   -8.2876    2.9775 C   0  0  2  0  0  0  0  0  0  0  0  0
    4.0144   -7.0604    3.0602 C   0  0  2  0  0  0  0  0  0  0  0  0
    3.2182   -7.1117    4.4058 C   0  0  1  0  0  0  0  0  0  0  0  0
    2.4002   -5.9557    4.5066 O   0  0  0  0  0  0  0  0  0  0  0  0
    2.4505   -8.4253    4.7737 C   0  0  1  0  0  0  0  0  0  0  0  0
    2.1528   -8.5516    6.3101 C   0  0  1  0  0  0  0  0  0  0  0  0
    2.1787   -7.2728    7.1692 C   0  0  0  0  0  0  0  0  0  0  0  0
    0.7571   -9.2230    6.4416 C   0  0  0  0  0  0  0  0  0  0  0  0
    0.1086   -9.2568    5.0441 C   0  0  0  0  0  0  0  0  0  0  0  0
    1.1198   -8.6869    4.0683 C   0  0  2  0  0  0  0  0  0  0  0  0
    1.8381   -9.5971    3.0502 C   0  0  1  0  0  0  0  0  0  0  0  0
    2.2583   -8.9798    1.7352 C   0  0  0  0  0  0  0  0  0  0  0  0
    2.0717   -7.6603    1.4706 C   0  0  0  0  0  0  0  0  0  0  0  0
    0.6922   -7.0591    1.2880 C   0  0  0  0  0  0  0  0  0  0  0  0
    3.2619   -6.7269    1.6845 C   0  0  2  0  0  0  0  0  0  0  0  0
    4.2325   -6.7621    0.4727 C   0  0  0  0  0  0  0  0  0  0  0  0
    5.3174   -5.6654    0.6260 C   0  0  0  0  0  0  0  0  0  0  0  0
    4.6644   -4.2871    0.7180 C   0  0  1  0  0  0  0  0  0  0  0  0
    5.7683   -3.2807    0.9707 C   0  0  0  0  0  0  0  0  0  0  0  0
    5.9579   -2.1451    0.2628 C   0  0  0  0  0  0  0  0  0  0  0  0
    5.0401   -1.7165   -0.8570 C   0  0  0  0  0  0  0  0  0  0  0  0
    3.7051   -2.4993   -0.8821 C   0  0  1  0  0  0  0  0  0  0  0  0
    2.9888   -2.3039   -2.2206 C   0  0  0  0  0  0  0  0  0  0  0  0
    3.9158   -3.9871   -0.6146 C   0  0  0  0  0  0  0  0  0  0  0  0
    3.8360   -4.3554    1.8537 O   0  0  0  0  0  0  0  0  0  0  0  0
    2.7473   -5.3927    1.6416 O   0  0  0  0  0  0  0  0  0  0  0  0
    3.0051   -9.7304    4.0831 C   0  0  2  0  0  0  0  0  0  0  0  0
    2.8988  -11.0737    4.8423 C   0  0  0  0  0  0  0  0  0  0  0  0
    4.5241   -9.6029    3.6925 C   0  0  1  0  0  0  0  0  0  0  0  0
    4.9318  -10.7135    2.9081 O   0  0  0  0  0  0  0  0  0  0  0  0
    9.0089   -7.9521    3.9577 H   0  0  0  0  0  0  0  0  0  0  0  0
    8.3420   -6.3119    4.1050 H   0  0  0  0  0  0  0  0  0  0  0  0
    9.3243   -6.7453    2.7130 H   0  0  0  0  0  0  0  0  0  0  0  0
    5.1641   -8.5658    1.9530 H   0  0  0  0  0  0  0  0  0  0  0  0
    4.6417   -6.1947    3.2477 H   0  0  0  0  0  0  0  0  0  0  0  0
    3.9764   -6.9730    5.1671 H   0  0  0  0  0  0  0  0  0  0  0  0
    2.9319   -5.1827    4.3714 H   0  0  0  0  0  0  0  0  0  0  0  0
    2.8987   -9.2082    6.7623 H   0  0  0  0  0  0  0  0  0  0  0  0
    1.4313   -6.5482    6.8436 H   0  0  0  0  0  0  0  0  0  0  0  0
    3.1544   -6.7850    7.1725 H   0  0  0  0  0  0  0  0  0  0  0  0
    1.9607   -7.5145    8.2097 H   0  0  0  0  0  0  0  0  0  0  0  0
    0.8694  -10.2416    6.8196 H   0  0  0  0  0  0  0  0  0  0  0  0
    0.1186   -8.7004    7.1541 H   0  0  0  0  0  0  0  0  0  0  0  0
   -0.1843  -10.2708    4.7776 H   0  0  0  0  0  0  0  0  0  0  0  0
   -0.8124   -8.6632    5.0498 H   0  0  0  0  0  0  0  0  0  0  0  0
    0.7330   -7.7565    3.6670 H   0  0  0  0  0  0  0  0  0  0  0  0
    1.3018  -10.5240    2.8646 H   0  0  0  0  0  0  0  0  0  0  0  0
    3.2455   -9.3125    1.5394 H   0  0  0  0  0  0  0  0  0  0  0  0
    0.6087   -6.6095    0.2968 H   0  0  0  0  0  0  0  0  0  0  0  0
    0.4578   -6.2860    2.0309 H   0  0  0  0  0  0  0  0  0  0  0  0
   -0.0777   -7.8308    1.3504 H   0  0  0  0  0  0  0  0  0  0  0  0
    4.7044   -7.7194    0.3598 H   0  0  0  0  0  0  0  0  0  0  0  0
    3.6215   -6.5917   -0.4230 H   0  0  0  0  0  0  0  0  0  0  0  0
    5.8734   -5.8010    1.5339 H   0  0  0  0  0  0  0  0  0  0  0  0
    6.0423   -5.6894   -0.1879 H   0  0  0  0  0  0  0  0  0  0  0  0
    6.4629   -3.5300    1.7506 H   0  0  0  0  0  0  0  0  0  0  0  0
    6.8133   -1.5314    0.4899 H   0  0  0  0  0  0  0  0  0  0  0  0
    4.8373   -0.6453   -0.7455 H   0  0  0  0  0  0  0  0  0  0  0  0
    5.5928   -1.8565   -1.7932 H   0  0  0  0  0  0  0  0  0  0  0  0
    3.0673   -2.1165   -0.0759 H   0  0  0  0  0  0  0  0  0  0  0  0
    3.5832   -2.6973   -3.0513 H   0  0  0  0  0  0  0  0  0  0  0  0
    2.7921   -1.2474   -2.4133 H   0  0  0  0  0  0  0  0  0  0  0  0
    2.0321   -2.8288   -2.2329 H   0  0  0  0  0  0  0  0  0  0  0  0
    4.5218   -4.3725   -1.4420 H   0  0  0  0  0  0  0  0  0  0  0  0
    2.9649   -4.5092   -0.6823 H   0  0  0  0  0  0  0  0  0  0  0  0
    3.1876  -11.9146    4.2087 H   0  0  0  0  0  0  0  0  0  0  0  0
    1.8771  -11.3020    5.1565 H   0  0  0  0  0  0  0  0  0  0  0  0
    3.5380  -11.0880    5.7264 H   0  0  0  0  0  0  0  0  0  0  0  0
    5.0859   -9.6870    4.6322 H   0  0  0  0  0  0  0  0  0  0  0  0
    4.3495  -10.8231    2.1688 H   0  0  0  0  0  0  0  0  0  0  0  0
  1  2  1  0
  1 35  1  0
  1 36  1  0
  1 37  1  0
  2  3  2  0
  2  4  1  0
  4  5  1  0
  5 33  1  0
  5  6  1  0
  5 38  1  6
  6 19  1  0
  6  7  1  0
  6 39  1  1
  7  8  1  0
  7  9  1  0
  7 40  1  1
  8 41  1  0
  9 14  1  0
  9 31  1  6
  9 10  1  0
 10 11  1  0
 10 12  1  0
 10 42  1  1
 11 43  1  0
 11 44  1  0
 11 45  1  0
 12 13  1  0
 12 46  1  0
 12 47  1  0
 13 14  1  0
 13 48  1  0
 13 49  1  0
 14 15  1  0
 14 50  1  6
 15 16  1  0
 15 31  1  0
 15 51  1  6
 16 17  2  3
 16 52  1  0
 17 18  1  0
 17 19  1  0
 18 53  1  0
 18 54  1  0
 18 55  1  0
 19 30  1  1
 19 20  1  0
 20 21  1  0
 20 56  1  0
 20 57  1  0
 21 22  1  0
 21 58  1  0
 21 59  1  0
 22 28  1  0
 22 23  1  0
 22 29  1  1
 23 24  2  0
 23 60  1  0
 24 25  1  0
 24 61  1  0
 25 26  1  0
 25 62  1  0
 25 63  1  0
 26 27  1  0
 26 28  1  0
 26 64  1  1
 27 65  1  0
 27 66  1  0
 27 67  1  0
 28 68  1  0
 28 69  1  0
 29 30  1  0
 31 32  1  1
 31 33  1  0
 32 70  1  0
 32 71  1  0
 32 72  1  0
 33 34  1  0
 33 73  1  1
 34 74  1  0
M  END
>  <i_m_ct_stereo_status>  (74) 
1

>  <s_m_source_file>  (74) 
/var/tmp/pbs.5076255.sched01/tmpyb5u0fxv/0ob_ovo1_.sdf

>  <i_m_source_file_index>  (74) 
37

>  <i_lp_mmshare_version>  (74) 
48012

>  <i_f3d_flags>  (74) 
0

>  <s_epik_input>  (74) 
W0NIM11bQ0BIXTFbQ0gyXVtDSDJdW0NAQEhdKFtDQF0xMjMpW0NAQEhdNFtDQEBdMyhbQ0gzXSlbQ0BASF0oW09IXSlbQ0BIXShPQyg9TylbQ0gzXSlbQ0BIXShbQ0BIXTJbT0hdKVtDQF01KEMoPVtDSF1cNCkvW0NIM10pW0NIMl1bQ0gyXVtDQEBdNihPTzUpW0NIXT1bQ0hdW0NIMl1bQ0BASF0oW0NIM10pW0NIMl02

>  <s_epik_cmdline>  (74) 
J2VwaWtfcHl0aG9uJywgJy1waHQnLCAnMi4wJywgJy1waCcsICc3LjAnLCAnLXRuJywgJzgnLCAnLW1hJywgJzIwMCcsICctaW1hZScsICc8aW5maWxlLm1hZT4nLCAnLW9tYWUnLCAnPG91dGZpbGUubWFlPic=

>  <r_lp_tautomer_probability>  (74) 
1

>  <r_epik_Ionization_Penalty>  (74) 
1.30459e-07

>  <r_epik_Ionization_Penalty_Charging>  (74) 
0

>  <r_epik_Ionization_Penalty_Neutral>  (74) 
1.30459e-07

>  <r_epik_State_Penalty>  (74) 
-0

>  <r_epik_Charging_Adjusted_Penalty>  (74) 
0

>  <i_epik_Tot_Q>  (74) 
0

>  <i_epik_Tot_abs_Q>  (74) 
0

>  <s_epik_Chemistry_Notes>  (74) 
This compound has an ester and may undergo hydrolysis at high or low pH.

>  <s_lp_Force_Field>  (74) 
OPLS3e

>  <r_lp_Energy>  (74) 
104.973

>  <b_lp_Chiralities_Consistent>  (74) 
1

>  <s_lp_Variant>  (74) 
24:0-2

>  <s_i_glide_gridfile>  (74) 
pfpi4k_grid

>  <i_i_glide_lignum>  (74) 
37

>  <i_i_glide_rotatable_bonds>  (74) 
4

>  <r_i_docking_score>  (74) 
-2.25581

>  <r_i_glide_ligand_efficiency>  (74) 
-0.0663474

>  <r_i_glide_ligand_efficiency_sa>  (74) 
-0.21494

>  <r_i_glide_ligand_efficiency_ln>  (74) 
-0.498372

>  <r_i_glide_gscore>  (74) 
-2.25581

>  <r_i_glide_lipo>  (74) 
-0.493778

>  <r_i_glide_hbond>  (74) 
0

>  <r_i_glide_metal>  (74) 
-0

>  <r_i_glide_rewards>  (74) 
-0.186725

>  <r_i_glide_evdw>  (74) 
-27.0701

>  <r_i_glide_ecoul>  (74) 
-2.07506

>  <r_i_glide_erotb>  (74) 
0.0905312

>  <r_i_glide_esite>  (74) 
-0.00107691

>  <r_i_glide_emodel>  (74) 
-31.5487

>  <r_i_glide_energy>  (74) 
-29.1451

>  <r_i_glide_einternal>  (74) 
0.499756

>  <r_i_glide_intrahb_reward>  (74) 
-0

>  <i_i_glide_confnum>  (74) 
4

>  <i_i_glide_posenum>  (74) 
8

>  <r_i_glide_eff_state_penalty>  (74) 
0

>  <ligand_id>  (74) 
24

>  <original_smiles>  (74) 
CC(=O)OC1C2C(O)C34C(C)CCC3C(C=C(C)C23CCC2(C=CCC(C)C2)OO3)C4(C)C1O

>  <smiles>  (74) 
[H]OC1([H])C([H])(OC(=O)C([H])([H])[H])C2([H])C([H])(O[H])C34C([H])(C([H])([H])[H])C([H])([H])C([H])([H])C3([H])C([H])(C([H])=C(C([H])([H])[H])C23OOC2(C([H])=C([H])C([H])([H])C([H])(C([H])([H])[H])C2([H])[H])C([H])([H])C3([H])[H])C14C([H])([H])[H]

$$$$
24:1:1
     RDKit          3D

 74 79  0  0  1  0  0  0  0  0999 V2000
    7.3550   -8.2120    1.4487 C   0  0  0  0  0  0  0  0  0  0  0  0
    7.4231   -7.7407    2.9194 C   0  0  0  0  0  0  0  0  0  0  0  0
    8.4815   -7.2941    3.3778 O   0  0  0  0  0  0  0  0  0  0  0  0
    6.2724   -7.7883    3.6448 O   0  0  0  0  0  0  0  0  0  0  0  0
    4.9858   -8.1876    3.1036 C   0  0  2  0  0  0  0  0  0  0  0  0
    3.9922   -6.9711    3.1630 C   0  0  2  0  0  0  0  0  0  0  0  0
    3.1347   -7.0477    4.4611 C   0  0  1  0  0  0  0  0  0  0  0  0
    2.2844   -5.9141    4.5278 O   0  0  0  0  0  0  0  0  0  0  0  0
    2.3839   -8.3810    4.7895 C   0  0  1  0  0  0  0  0  0  0  0  0
    2.0134   -8.5183    6.3012 C   0  0  1  0  0  0  0  0  0  0  0  0
    1.9634   -7.2313    7.1574 C   0  0  0  0  0  0  0  0  0  0  0  0
    0.6336   -9.2224    6.3587 C   0  0  0  0  0  0  0  0  0  0  0  0
    0.0571   -9.2658    4.9315 C   0  0  0  0  0  0  0  0  0  0  0  0
    1.1038   -8.6809    4.0101 C   0  0  2  0  0  0  0  0  0  0  0  0
    1.8929   -9.5637    3.0323 C   0  0  1  0  0  0  0  0  0  0  0  0
    2.3495   -8.9294    1.7351 C   0  0  0  0  0  0  0  0  0  0  0  0
    2.1531   -7.6244    1.4817 C   0  0  0  0  0  0  0  0  0  0  0  0
    0.7584   -7.0508    1.2050 C   0  0  0  0  0  0  0  0  0  0  0  0
    3.2888   -6.6486    1.7439 C   0  0  2  0  0  0  0  0  0  0  0  0
    4.3271   -6.7125    0.5712 C   0  0  0  0  0  0  0  0  0  0  0  0
    5.3867   -5.5794    0.7613 C   0  0  0  0  0  0  0  0  0  0  0  0
    4.7250   -4.2077    0.8430 C   0  0  1  0  0  0  0  0  0  0  0  0
    5.7926   -3.1684    1.1533 C   0  0  0  0  0  0  0  0  0  0  0  0
    5.9652   -2.0309    0.4601 C   0  0  0  0  0  0  0  0  0  0  0  0
    5.0957   -1.6205   -0.7135 C   0  0  0  0  0  0  0  0  0  0  0  0
    3.7920   -2.4361   -0.8042 C   0  0  1  0  0  0  0  0  0  0  0  0
    3.1328   -2.2565   -2.1796 C   0  0  0  0  0  0  0  0  0  0  0  0
    4.0383   -3.9182   -0.5236 C   0  0  0  0  0  0  0  0  0  0  0  0
    3.8436   -4.2885    1.9435 O   0  0  0  0  0  0  0  0  0  0  0  0
    2.7709   -5.3213    1.6555 O   0  0  0  0  0  0  0  0  0  0  0  0
    3.0052   -9.6756    4.1275 C   0  0  2  0  0  0  0  0  0  0  0  0
    2.8972  -11.0205    4.8764 C   0  0  0  0  0  0  0  0  0  0  0  0
    4.5299   -9.5130    3.8286 C   0  0  1  0  0  0  0  0  0  0  0  0
    5.0110  -10.5897    3.0364 O   0  0  0  0  0  0  0  0  0  0  0  0
    6.6691   -7.6242    0.9010 H   0  0  0  0  0  0  0  0  0  0  0  0
    7.0166   -9.2629    1.3889 H   0  0  0  0  0  0  0  0  0  0  0  0
    8.3244   -8.1712    0.9571 H   0  0  0  0  0  0  0  0  0  0  0  0
    5.1016   -8.4599    2.0982 H   0  0  0  0  0  0  0  0  0  0  0  0
    4.5878   -6.0909    3.3763 H   0  0  0  0  0  0  0  0  0  0  0  0
    3.8712   -6.8883    5.2612 H   0  0  0  0  0  0  0  0  0  0  0  0
    1.8856   -5.8850    5.3796 H   0  0  0  0  0  0  0  0  0  0  0  0
    2.7538   -9.1517    6.7886 H   0  0  0  0  0  0  0  0  0  0  0  0
    1.2071   -6.5334    6.8043 H   0  0  0  0  0  0  0  0  0  0  0  0
    2.9262   -6.7232    7.2099 H   0  0  0  0  0  0  0  0  0  0  0  0
    1.7042   -7.4875    8.1827 H   0  0  0  0  0  0  0  0  0  0  0  0
    0.7516  -10.2357    6.7399 H   0  0  0  0  0  0  0  0  0  0  0  0
   -0.0533   -8.7200    7.0363 H   0  0  0  0  0  0  0  0  0  0  0  0
   -0.1675  -10.2950    4.6438 H   0  0  0  0  0  0  0  0  0  0  0  0
   -0.8762   -8.7020    4.8883 H   0  0  0  0  0  0  0  0  0  0  0  0
    0.7175   -7.7561    3.5835 H   0  0  0  0  0  0  0  0  0  0  0  0
    1.3866  -10.5149    2.8136 H   0  0  0  0  0  0  0  0  0  0  0  0
    3.3486   -9.2608    1.5806 H   0  0  0  0  0  0  0  0  0  0  0  0
    0.7328   -6.6148    0.2075 H   0  0  0  0  0  0  0  0  0  0  0  0
    0.4827   -6.2910    1.9329 H   0  0  0  0  0  0  0  0  0  0  0  0
    0.0207   -7.8516    1.2321 H   0  0  0  0  0  0  0  0  0  0  0  0
    4.7545   -7.6590    0.4585 H   0  0  0  0  0  0  0  0  0  0  0  0
    3.7455   -6.4983   -0.3457 H   0  0  0  0  0  0  0  0  0  0  0  0
    5.9191   -5.7119    1.7046 H   0  0  0  0  0  0  0  0  0  0  0  0
    6.1458   -5.5929   -0.0095 H   0  0  0  0  0  0  0  0  0  0  0  0
    6.4461   -3.3906    1.9765 H   0  0  0  0  0  0  0  0  0  0  0  0
    6.7868   -1.3799    0.7211 H   0  0  0  0  0  0  0  0  0  0  0  0
    4.8580   -0.5580   -0.6148 H   0  0  0  0  0  0  0  0  0  0  0  0
    5.6954   -1.7381   -1.6204 H   0  0  0  0  0  0  0  0  0  0  0  0
    3.1038   -2.0737   -0.0343 H   0  0  0  0  0  0  0  0  0  0  0  0
    3.7776   -2.6290   -2.9793 H   0  0  0  0  0  0  0  0  0  0  0  0
    2.9223   -1.2062   -2.3789 H   0  0  0  0  0  0  0  0  0  0  0  0
    2.1909   -2.8016   -2.2412 H   0  0  0  0  0  0  0  0  0  0  0  0
    4.6834   -4.2928   -1.3073 H   0  0  0  0  0  0  0  0  0  0  0  0
    3.0970   -4.4670   -0.6307 H   0  0  0  0  0  0  0  0  0  0  0  0
    3.2442  -11.8532    4.2583 H   0  0  0  0  0  0  0  0  0  0  0  0
    1.8674  -11.2765    5.1380 H   0  0  0  0  0  0  0  0  0  0  0  0
    3.4899  -11.0179    5.7898 H   0  0  0  0  0  0  0  0  0  0  0  0
    5.0541   -9.5897    4.7871 H   0  0  0  0  0  0  0  0  0  0  0  0
    4.4674  -10.7202    2.2743 H   0  0  0  0  0  0  0  0  0  0  0  0
  1  2  1  0
  1 35  1  0
  1 36  1  0
  1 37  1  0
  2  3  2  0
  2  4  1  0
  4  5  1  0
  5 33  1  0
  5  6  1  0
  5 38  1  6
  6 19  1  0
  6  7  1  0
  6 39  1  1
  7  8  1  0
  7  9  1  0
  7 40  1  1
  8 41  1  0
  9 14  1  0
  9 31  1  6
  9 10  1  0
 10 11  1  0
 10 12  1  0
 10 42  1  1
 11 43  1  0
 11 44  1  0
 11 45  1  0
 12 13  1  0
 12 46  1  0
 12 47  1  0
 13 14  1  0
 13 48  1  0
 13 49  1  0
 14 15  1  0
 14 50  1  6
 15 16  1  0
 15 31  1  0
 15 51  1  6
 16 17  2  3
 16 52  1  0
 17 18  1  0
 17 19  1  0
 18 53  1  0
 18 54  1  0
 18 55  1  0
 19 30  1  1
 19 20  1  0
 20 21  1  0
 20 56  1  0
 20 57  1  0
 21 22  1  0
 21 58  1  0
 21 59  1  0
 22 28  1  0
 22 23  1  0
 22 29  1  1
 23 24  2  0
 23 60  1  0
 24 25  1  0
 24 61  1  0
 25 26  1  0
 25 62  1  0
 25 63  1  0
 26 27  1  0
 26 28  1  0
 26 64  1  1
 27 65  1  0
 27 66  1  0
 27 67  1  0
 28 68  1  0
 28 69  1  0
 29 30  1  0
 31 32  1  1
 31 33  1  0
 32 70  1  0
 32 71  1  0
 32 72  1  0
 33 34  1  0
 33 73  1  1
 34 74  1  0
M  END
>  <i_m_ct_stereo_status>  (75) 
1

>  <s_m_source_file>  (75) 
/var/tmp/pbs.5076255.sched01/tmpyb5u0fxv/0ob_ovo1_.sdf

>  <i_m_source_file_index>  (75) 
37

>  <i_lp_mmshare_version>  (75) 
48012

>  <i_f3d_flags>  (75) 
0

>  <s_epik_input>  (75) 
W0NIM11bQ0BIXTFbQ0gyXVtDSDJdW0NAQEhdKFtDQF0xMjMpW0NAQEhdNFtDQEBdMyhbQ0gzXSlbQ0BASF0oW09IXSlbQ0BIXShPQyg9TylbQ0gzXSlbQ0BIXShbQ0BIXTJbT0hdKVtDQF01KEMoPVtDSF1cNCkvW0NIM10pW0NIMl1bQ0gyXVtDQEBdNihPTzUpW0NIXT1bQ0hdW0NIMl1bQ0BASF0oW0NIM10pW0NIMl02

>  <s_epik_cmdline>  (75) 
J2VwaWtfcHl0aG9uJywgJy1waHQnLCAnMi4wJywgJy1waCcsICc3LjAnLCAnLXRuJywgJzgnLCAnLW1hJywgJzIwMCcsICctaW1hZScsICc8aW5maWxlLm1hZT4nLCAnLW9tYWUnLCAnPG91dGZpbGUubWFlPic=

>  <r_lp_tautomer_probability>  (75) 
1

>  <r_epik_Ionization_Penalty>  (75) 
1.30459e-07

>  <r_epik_Ionization_Penalty_Charging>  (75) 
0

>  <r_epik_Ionization_Penalty_Neutral>  (75) 
1.30459e-07

>  <r_epik_State_Penalty>  (75) 
-0

>  <r_epik_Charging_Adjusted_Penalty>  (75) 
0

>  <i_epik_Tot_Q>  (75) 
0

>  <i_epik_Tot_abs_Q>  (75) 
0

>  <s_epik_Chemistry_Notes>  (75) 
This compound has an ester and may undergo hydrolysis at high or low pH.

>  <s_lp_Force_Field>  (75) 
OPLS3e

>  <r_lp_Energy>  (75) 
104.973

>  <b_lp_Chiralities_Consistent>  (75) 
1

>  <s_lp_Variant>  (75) 
24:0-2

>  <s_i_glide_gridfile>  (75) 
pfpi4k_grid

>  <i_i_glide_lignum>  (75) 
37

>  <i_i_glide_rotatable_bonds>  (75) 
4

>  <r_i_docking_score>  (75) 
-2.11626

>  <r_i_glide_ligand_efficiency>  (75) 
-0.062243

>  <r_i_glide_ligand_efficiency_sa>  (75) 
-0.201643

>  <r_i_glide_ligand_efficiency_ln>  (75) 
-0.467542

>  <r_i_glide_gscore>  (75) 
-2.11626

>  <r_i_glide_lipo>  (75) 
-0.556351

>  <r_i_glide_hbond>  (75) 
0

>  <r_i_glide_metal>  (75) 
-0

>  <r_i_glide_rewards>  (75) 
-0.186725

>  <r_i_glide_evdw>  (75) 
-27.6246

>  <r_i_glide_ecoul>  (75) 
-0.528877

>  <r_i_glide_erotb>  (75) 
0.0905312

>  <r_i_glide_esite>  (75) 
-0.00315581

>  <r_i_glide_emodel>  (75) 
-26.602

>  <r_i_glide_energy>  (75) 
-28.1534

>  <r_i_glide_einternal>  (75) 
5.6119

>  <r_i_glide_intrahb_reward>  (75) 
-0

>  <i_i_glide_confnum>  (75) 
4

>  <i_i_glide_posenum>  (75) 
39

>  <r_i_glide_eff_state_penalty>  (75) 
0

>  <ligand_id>  (75) 
24

>  <original_smiles>  (75) 
CC(=O)OC1C2C(O)C34C(C)CCC3C(C=C(C)C23CCC2(C=CCC(C)C2)OO3)C4(C)C1O

>  <smiles>  (75) 
[H]OC1([H])C([H])(OC(=O)C([H])([H])[H])C2([H])C([H])(O[H])C34C([H])(C([H])([H])[H])C([H])([H])C([H])([H])C3([H])C([H])(C([H])=C(C([H])([H])[H])C23OOC2(C([H])=C([H])C([H])([H])C([H])(C([H])([H])[H])C2([H])[H])C([H])([H])C3([H])[H])C14C([H])([H])[H]

$$$$
24:1:2
     RDKit          3D

 74 79  0  0  1  0  0  0  0  0999 V2000
    7.6256   -6.9848    3.6879 C   0  0  0  0  0  0  0  0  0  0  0  0
    6.9910   -6.2647    4.8956 C   0  0  0  0  0  0  0  0  0  0  0  0
    7.7007   -5.7504    5.7338 O   0  0  0  0  0  0  0  0  0  0  0  0
    5.6159   -6.2589    4.9546 O   0  0  0  0  0  0  0  0  0  0  0  0
    4.7719   -6.7989    3.9425 C   0  0  2  0  0  0  0  0  0  0  0  0
    3.7154   -5.7296    3.5283 C   0  0  2  0  0  0  0  0  0  0  0  0
    2.3882   -5.9755    4.3398 C   0  0  1  0  0  0  0  0  0  0  0  0
    1.4324   -4.9722    4.0074 O   0  0  0  0  0  0  0  0  0  0  0  0
    1.7592   -7.4227    4.3295 C   0  0  1  0  0  0  0  0  0  0  0  0
    0.8032   -7.6788    5.5303 C   0  0  1  0  0  0  0  0  0  0  0  0
    0.2162   -6.4575    6.2655 C   0  0  0  0  0  0  0  0  0  0  0  0
   -0.3452   -8.5729    4.9952 C   0  0  0  0  0  0  0  0  0  0  0  0
   -0.2438   -8.6406    3.4646 C   0  0  0  0  0  0  0  0  0  0  0  0
    0.9934   -7.8595    3.0809 C   0  0  2  0  0  0  0  0  0  0  0  0
    2.2401   -8.5907    2.5562 C   0  0  1  0  0  0  0  0  0  0  0  0
    3.1141   -7.8369    1.5771 C   0  0  0  0  0  0  0  0  0  0  0  0
    2.8431   -6.5507    1.2372 C   0  0  0  0  0  0  0  0  0  0  0  0
    1.6163   -6.1948    0.4113 C   0  0  0  0  0  0  0  0  0  0  0  0
    3.6542   -5.4569    1.9565 C   0  0  2  0  0  0  0  0  0  0  0  0
    5.0845   -5.3697    1.3512 C   0  0  0  0  0  0  0  0  0  0  0  0
    5.0536   -4.8907   -0.0907 C   0  0  0  0  0  0  0  0  0  0  0  0
    4.2852   -3.5585   -0.2365 C   0  0  1  0  0  0  0  0  0  0  0  0
    4.9752   -2.4374    0.5388 C   0  0  0  0  0  0  0  0  0  0  0  0
    5.2687   -1.2364    0.0053 C   0  0  0  0  0  0  0  0  0  0  0  0
    4.9126   -0.8504   -1.4108 C   0  0  0  0  0  0  0  0  0  0  0  0
    3.8864   -1.7954   -2.0693 C   0  0  1  0  0  0  0  0  0  0  0  0
    3.8500   -1.5734   -3.5837 C   0  0  0  0  0  0  0  0  0  0  0  0
    4.1872   -3.2577   -1.7529 C   0  0  0  0  0  0  0  0  0  0  0  0
    2.9956   -3.7997    0.2933 O   0  0  0  0  0  0  0  0  0  0  0  0
    3.1123   -4.1431    1.7984 O   0  0  0  0  0  0  0  0  0  0  0  0
    2.7712   -8.5880    4.0329 C   0  0  2  0  0  0  0  0  0  0  0  0
    2.5581   -9.9755    4.6731 C   0  0  0  0  0  0  0  0  0  0  0  0
    4.2310   -8.1971    4.4139 C   0  0  1  0  0  0  0  0  0  0  0  0
    5.1159   -9.1555    3.8717 O   0  0  0  0  0  0  0  0  0  0  0  0
    7.3235   -6.5099    2.7458 H   0  0  0  0  0  0  0  0  0  0  0  0
    7.3216   -8.0340    3.6660 H   0  0  0  0  0  0  0  0  0  0  0  0
    8.7109   -6.9801    3.7330 H   0  0  0  0  0  0  0  0  0  0  0  0
    5.3362   -7.0048    3.0731 H   0  0  0  0  0  0  0  0  0  0  0  0
    4.0719   -4.7710    3.8995 H   0  0  0  0  0  0  0  0  0  0  0  0
    2.6833   -5.7539    5.3679 H   0  0  0  0  0  0  0  0  0  0  0  0
    0.7490   -4.9991    4.6629 H   0  0  0  0  0  0  0  0  0  0  0  0
    1.3504   -8.2284    6.2972 H   0  0  0  0  0  0  0  0  0  0  0  0
   -0.4168   -5.8534    5.6135 H   0  0  0  0  0  0  0  0  0  0  0  0
    0.9831   -5.8208    6.7152 H   0  0  0  0  0  0  0  0  0  0  0  0
   -0.4035   -6.7844    7.0986 H   0  0  0  0  0  0  0  0  0  0  0  0
   -0.2535   -9.5704    5.4146 H   0  0  0  0  0  0  0  0  0  0  0  0
   -1.3269   -8.2029    5.2715 H   0  0  0  0  0  0  0  0  0  0  0  0
   -0.2026   -9.6747    3.1137 H   0  0  0  0  0  0  0  0  0  0  0  0
   -1.1357   -8.1942    3.0144 H   0  0  0  0  0  0  0  0  0  0  0  0
    0.6958   -6.9805    2.5213 H   0  0  0  0  0  0  0  0  0  0  0  0
    2.0250   -9.5832    2.1519 H   0  0  0  0  0  0  0  0  0  0  0  0
    4.1173   -8.0168    1.8771 H   0  0  0  0  0  0  0  0  0  0  0  0
    1.9288   -5.7535   -0.5380 H   0  0  0  0  0  0  0  0  0  0  0  0
    0.9896   -5.4773    0.9416 H   0  0  0  0  0  0  0  0  0  0  0  0
    1.0184   -7.0689    0.1498 H   0  0  0  0  0  0  0  0  0  0  0  0
    5.6188   -4.6804    1.9956 H   0  0  0  0  0  0  0  0  0  0  0  0
    5.5928   -6.3125    1.3235 H   0  0  0  0  0  0  0  0  0  0  0  0
    6.0527   -4.7972   -0.4913 H   0  0  0  0  0  0  0  0  0  0  0  0
    4.5549   -5.6509   -0.6955 H   0  0  0  0  0  0  0  0  0  0  0  0
    5.2140   -2.6007    1.5782 H   0  0  0  0  0  0  0  0  0  0  0  0
    5.7943   -0.5257    0.6113 H   0  0  0  0  0  0  0  0  0  0  0  0
    4.5231    0.1490   -1.4003 H   0  0  0  0  0  0  0  0  0  0  0  0
    5.8376   -0.8511   -1.9927 H   0  0  0  0  0  0  0  0  0  0  0  0
    2.8991   -1.5748   -1.6536 H   0  0  0  0  0  0  0  0  0  0  0  0
    4.8174   -1.8067   -4.0395 H   0  0  0  0  0  0  0  0  0  0  0  0
    3.6209   -0.5314   -3.8229 H   0  0  0  0  0  0  0  0  0  0  0  0
    3.0995   -2.1985   -4.0739 H   0  0  0  0  0  0  0  0  0  0  0  0
    5.1438   -3.5175   -2.2015 H   0  0  0  0  0  0  0  0  0  0  0  0
    3.4359   -3.8950   -2.2091 H   0  0  0  0  0  0  0  0  0  0  0  0
    3.2424  -10.7184    4.2666 H   0  0  0  0  0  0  0  0  0  0  0  0
    1.5694  -10.3735    4.4625 H   0  0  0  0  0  0  0  0  0  0  0  0
    2.7038   -9.9331    5.7460 H   0  0  0  0  0  0  0  0  0  0  0  0
    4.3130   -8.2596    5.5084 H   0  0  0  0  0  0  0  0  0  0  0  0
    4.8860  -10.0108    4.2010 H   0  0  0  0  0  0  0  0  0  0  0  0
  1  2  1  0
  1 35  1  0
  1 36  1  0
  1 37  1  0
  2  3  2  0
  2  4  1  0
  4  5  1  0
  5 33  1  0
  5  6  1  0
  5 38  1  6
  6 19  1  0
  6  7  1  0
  6 39  1  1
  7  8  1  0
  7  9  1  0
  7 40  1  1
  8 41  1  0
  9 14  1  0
  9 31  1  1
  9 10  1  0
 10 11  1  0
 10 12  1  0
 10 42  1  1
 11 43  1  0
 11 44  1  0
 11 45  1  0
 12 13  1  0
 12 46  1  0
 12 47  1  0
 13 14  1  0
 13 48  1  0
 13 49  1  0
 14 15  1  0
 14 50  1  6
 15 16  1  0
 15 31  1  0
 15 51  1  6
 16 17  2  3
 16 52  1  0
 17 18  1  0
 17 19  1  0
 18 53  1  0
 18 54  1  0
 18 55  1  0
 19 30  1  1
 19 20  1  0
 20 21  1  0
 20 56  1  0
 20 57  1  0
 21 22  1  0
 21 58  1  0
 21 59  1  0
 22 28  1  0
 22 23  1  0
 22 29  1  1
 23 24  2  0
 23 60  1  0
 24 25  1  0
 24 61  1  0
 25 26  1  0
 25 62  1  0
 25 63  1  0
 26 27  1  0
 26 28  1  0
 26 64  1  1
 27 65  1  0
 27 66  1  0
 27 67  1  0
 28 68  1  0
 28 69  1  0
 29 30  1  0
 31 32  1  1
 31 33  1  0
 32 70  1  0
 32 71  1  0
 32 72  1  0
 33 34  1  0
 33 73  1  1
 34 74  1  0
M  END
>  <i_m_ct_stereo_status>  (76) 
1

>  <s_m_source_file>  (76) 
/var/tmp/pbs.5076255.sched01/tmpyb5u0fxv/0ob_ovo1_.sdf

>  <i_m_source_file_index>  (76) 
37

>  <i_lp_mmshare_version>  (76) 
48012

>  <i_f3d_flags>  (76) 
0

>  <s_epik_input>  (76) 
W0NIM11bQ0BIXTFbQ0gyXVtDSDJdW0NAQEhdKFtDQF0xMjMpW0NAQEhdNFtDQEBdMyhbQ0gzXSlbQ0BASF0oW09IXSlbQ0BIXShPQyg9TylbQ0gzXSlbQ0BIXShbQ0BIXTJbT0hdKVtDQF01KEMoPVtDSF1cNCkvW0NIM10pW0NIMl1bQ0gyXVtDQEBdNihPTzUpW0NIXT1bQ0hdW0NIMl1bQ0BASF0oW0NIM10pW0NIMl02

>  <s_epik_cmdline>  (76) 
J2VwaWtfcHl0aG9uJywgJy1waHQnLCAnMi4wJywgJy1waCcsICc3LjAnLCAnLXRuJywgJzgnLCAnLW1hJywgJzIwMCcsICctaW1hZScsICc8aW5maWxlLm1hZT4nLCAnLW9tYWUnLCAnPG91dGZpbGUubWFlPic=

>  <r_lp_tautomer_probability>  (76) 
1

>  <r_epik_Ionization_Penalty>  (76) 
1.30459e-07

>  <r_epik_Ionization_Penalty_Charging>  (76) 
0

>  <r_epik_Ionization_Penalty_Neutral>  (76) 
1.30459e-07

>  <r_epik_State_Penalty>  (76) 
-0

>  <r_epik_Charging_Adjusted_Penalty>  (76) 
0

>  <i_epik_Tot_Q>  (76) 
0

>  <i_epik_Tot_abs_Q>  (76) 
0

>  <s_epik_Chemistry_Notes>  (76) 
This compound has an ester and may undergo hydrolysis at high or low pH.

>  <s_lp_Force_Field>  (76) 
OPLS3e

>  <r_lp_Energy>  (76) 
104.973

>  <b_lp_Chiralities_Consistent>  (76) 
1

>  <s_lp_Variant>  (76) 
24:0-2

>  <s_i_glide_gridfile>  (76) 
pfpi4k_grid

>  <i_i_glide_lignum>  (76) 
37

>  <i_i_glide_rotatable_bonds>  (76) 
4

>  <r_i_docking_score>  (76) 
-1.63735

>  <r_i_glide_ligand_efficiency>  (76) 
-0.0481574

>  <r_i_glide_ligand_efficiency_sa>  (76) 
-0.156011

>  <r_i_glide_ligand_efficiency_ln>  (76) 
-0.361737

>  <r_i_glide_gscore>  (76) 
-1.63735

>  <r_i_glide_lipo>  (76) 
-0.366451

>  <r_i_glide_hbond>  (76) 
0

>  <r_i_glide_metal>  (76) 
-0

>  <r_i_glide_rewards>  (76) 
-0.188092

>  <r_i_glide_evdw>  (76) 
-25.0506

>  <r_i_glide_ecoul>  (76) 
0.527932

>  <r_i_glide_erotb>  (76) 
0.0905312

>  <r_i_glide_esite>  (76) 
0

>  <r_i_glide_emodel>  (76) 
-23.5029

>  <r_i_glide_energy>  (76) 
-24.5226

>  <r_i_glide_einternal>  (76) 
5.81467

>  <r_i_glide_intrahb_reward>  (76) 
-0

>  <i_i_glide_confnum>  (76) 
2

>  <i_i_glide_posenum>  (76) 
34

>  <r_i_glide_eff_state_penalty>  (76) 
0

>  <ligand_id>  (76) 
24

>  <original_smiles>  (76) 
CC(=O)OC1C2C(O)C34C(C)CCC3C(C=C(C)C23CCC2(C=CCC(C)C2)OO3)C4(C)C1O

>  <smiles>  (76) 
[H]OC1([H])C([H])(OC(=O)C([H])([H])[H])C2([H])C([H])(O[H])C34C([H])(C([H])([H])[H])C([H])([H])C([H])([H])C3([H])C([H])(C([H])=C(C([H])([H])[H])C23OOC2(C([H])=C([H])C([H])([H])C([H])(C([H])([H])[H])C2([H])[H])C([H])([H])C3([H])[H])C14C([H])([H])[H]

$$$$
25:0:0
     RDKit          3D

 57 62  0  0  1  0  0  0  0  0999 V2000
    3.8570   -8.5593    3.2466 C   0  0  0  0  0  0  0  0  0  0  0  0
    3.8343   -7.7303    1.9461 C   0  0  0  0  0  0  0  0  0  0  0  0
    4.2887   -8.6130    0.7684 C   0  0  0  0  0  0  0  0  0  0  0  0
    2.4168   -7.1913    1.6800 C   0  0  0  0  0  0  0  0  0  0  0  0
    1.3962   -7.8684    1.7082 O   0  0  0  0  0  0  0  0  0  0  0  0
    2.4068   -5.7075    1.3443 C   0  0  0  0  0  0  0  0  0  0  0  0
    3.8883   -5.4144    1.1360 C   0  0  2  0  0  0  0  0  0  0  0  0
    4.6017   -6.3936    2.0758 C   0  0  2  0  0  0  0  0  0  0  0  0
    6.1335   -6.3343    1.8399 C   0  0  0  0  0  0  0  0  0  0  0  0
    6.7015   -4.8746    1.7715 C   0  0  1  0  0  0  0  0  0  0  0  0
    7.2762   -4.7119    0.4902 O   0  0  0  0  0  0  0  0  0  0  0  0
    5.6077   -3.8041    2.1512 C   0  0  1  0  0  0  0  0  0  0  0  0
    5.3513   -3.9301    3.6988 C   0  0  0  0  0  0  0  0  0  0  0  0
    5.7768   -2.3351    1.9460 C   0  0  0  0  0  0  0  0  0  0  0  0
    6.6715   -1.8749    1.0584 C   0  0  0  0  0  0  0  0  0  0  0  0
    6.2044   -1.4276   -0.1412 O   0  0  0  0  0  0  0  0  0  0  0  0
    4.8151   -1.7284   -0.4198 C   0  0  1  0  0  0  0  0  0  0  0  0
    4.6497   -1.1445   -1.8472 C   0  0  0  0  0  0  0  0  0  0  0  0
    3.3384   -1.4941   -2.5323 C   0  0  0  0  0  0  0  0  0  0  0  0
    3.1283   -3.0084   -2.5186 C   0  0  0  0  0  0  0  0  0  0  0  0
    3.1461   -3.5466   -1.0721 C   0  0  0  0  0  0  0  0  0  0  0  0
    4.4762   -3.2931   -0.3137 C   0  0  2  0  0  0  0  0  0  0  0  0
    4.3651   -3.9270    1.1857 C   0  0  1  0  0  0  0  0  0  0  0  0
    3.5150   -3.0140    1.8661 O   0  0  0  0  0  0  0  0  0  0  0  0
    4.3192   -1.8359    1.9557 C   0  0  2  0  0  0  0  0  0  0  0  0
    3.9949   -1.0417    0.6906 C   0  0  1  0  0  0  0  0  0  0  0  0
    4.3475    0.3080    0.8770 O   0  0  0  0  0  0  0  0  0  0  0  0
    4.8753   -8.8179    3.5375 H   0  0  0  0  0  0  0  0  0  0  0  0
    3.3053   -9.4967    3.1314 H   0  0  0  0  0  0  0  0  0  0  0  0
    3.3978   -8.0251    4.0786 H   0  0  0  0  0  0  0  0  0  0  0  0
    5.3114   -8.9716    0.8956 H   0  0  0  0  0  0  0  0  0  0  0  0
    4.2315   -8.0817   -0.1794 H   0  0  0  0  0  0  0  0  0  0  0  0
    3.6553   -9.4972    0.6686 H   0  0  0  0  0  0  0  0  0  0  0  0
    1.8027   -5.5173    0.4625 H   0  0  0  0  0  0  0  0  0  0  0  0
    1.9987   -5.1569    2.1869 H   0  0  0  0  0  0  0  0  0  0  0  0
    4.1636   -5.7876    0.1502 H   0  0  0  0  0  0  0  0  0  0  0  0
    4.3962   -6.1000    3.1020 H   0  0  0  0  0  0  0  0  0  0  0  0
    6.6305   -6.8690    2.6471 H   0  0  0  0  0  0  0  0  0  0  0  0
    6.3954   -6.8771    0.9291 H   0  0  0  0  0  0  0  0  0  0  0  0
    7.5303   -4.8088    2.4753 H   0  0  0  0  0  0  0  0  0  0  0  0
    6.5813   -4.7565   -0.1508 H   0  0  0  0  0  0  0  0  0  0  0  0
    5.7966   -4.8320    4.1282 H   0  0  0  0  0  0  0  0  0  0  0  0
    4.2911   -3.9227    3.9673 H   0  0  0  0  0  0  0  0  0  0  0  0
    5.8061   -3.1048    4.2601 H   0  0  0  0  0  0  0  0  0  0  0  0
    7.6238   -2.3541    0.8881 H   0  0  0  0  0  0  0  0  0  0  0  0
    4.7373   -0.0589   -1.8281 H   0  0  0  0  0  0  0  0  0  0  0  0
    5.4616   -1.5128   -2.4740 H   0  0  0  0  0  0  0  0  0  0  0  0
    2.5474   -0.9859   -1.9975 H   0  0  0  0  0  0  0  0  0  0  0  0
    3.3088   -1.1041   -3.5500 H   0  0  0  0  0  0  0  0  0  0  0  0
    2.1729   -3.2476   -2.9887 H   0  0  0  0  0  0  0  0  0  0  0  0
    3.8999   -3.4860   -3.1217 H   0  0  0  0  0  0  0  0  0  0  0  0
    2.3033   -3.1102   -0.5243 H   0  0  0  0  0  0  0  0  0  0  0  0
    2.9542   -4.6136   -1.1146 H   0  0  0  0  0  0  0  0  0  0  0  0
    5.2489   -3.8228   -0.8587 H   0  0  0  0  0  0  0  0  0  0  0  0
    4.0895   -1.2861    2.8704 H   0  0  0  0  0  0  0  0  0  0  0  0
    2.9230   -1.0746    0.4877 H   0  0  0  0  0  0  0  0  0  0  0  0
    4.4867    0.7185    0.0338 H   0  0  0  0  0  0  0  0  0  0  0  0
  1  2  1  0
  1 28  1  0
  1 29  1  0
  1 30  1  0
  2  8  1  0
  2  3  1  0
  2  4  1  0
  3 31  1  0
  3 32  1  0
  3 33  1  0
  4  5  2  0
  4  6  1  0
  6  7  1  0
  6 34  1  0
  6 35  1  0
  7 23  1  0
  7  8  1  0
  7 36  1  6
  8  9  1  0
  8 37  1  1
  9 10  1  0
  9 38  1  0
  9 39  1  0
 10 11  1  0
 10 12  1  0
 10 40  1  1
 11 41  1  0
 12 23  1  0
 12 13  1  1
 12 14  1  0
 13 42  1  0
 13 43  1  0
 13 44  1  0
 14 25  1  0
 14 15  2  0
 15 16  1  0
 15 45  1  0
 17 16  1  1
 17 22  1  0
 17 26  1  0
 17 18  1  0
 18 19  1  0
 18 46  1  0
 18 47  1  0
 19 20  1  0
 19 48  1  0
 19 49  1  0
 20 21  1  0
 20 50  1  0
 20 51  1  0
 21 22  1  0
 21 52  1  0
 21 53  1  0
 22 23  1  0
 22 54  1  6
 23 24  1  1
 24 25  1  0
 25 26  1  0
 25 55  1  1
 26 27  1  0
 26 56  1  6
 27 57  1  0
M  END
>  <i_m_ct_stereo_status>  (77) 
1

>  <s_m_source_file>  (77) 
/var/tmp/pbs.5076255.sched01/tmpyb5u0fxv/0ob_ovo1_.sdf

>  <i_m_source_file_index>  (77) 
38

>  <i_lp_mmshare_version>  (77) 
48012

>  <i_f3d_flags>  (77) 
0

>  <s_epik_input>  (77) 
W09IXVtDQEBIXTFbQ0BASF0oTzIpQyg9W0NIXU8zKVtDQF00KFtDSDNdKVtDQEhdKFtPSF0pW0NIMl1bQ0BIXShDKFtDSDNdKShbQ0gzXSlDKD1PKVtDSDJdNSlbQ0BASF01W0NAQF0yNFtDQEhdKFtDQEBdMTM2KVtDSDJdW0NIMl1bQ0gyXVtDSDJdNg==

>  <s_epik_cmdline>  (77) 
J2VwaWtfcHl0aG9uJywgJy1waHQnLCAnMi4wJywgJy1waCcsICc3LjAnLCAnLXRuJywgJzgnLCAnLW1hJywgJzIwMCcsICctaW1hZScsICc8aW5maWxlLm1hZT4nLCAnLW9tYWUnLCAnPG91dGZpbGUubWFlPic=

>  <r_lp_tautomer_probability>  (77) 
1

>  <r_epik_Ionization_Penalty>  (77) 
4.0504e-06

>  <r_epik_Ionization_Penalty_Charging>  (77) 
0

>  <r_epik_Ionization_Penalty_Neutral>  (77) 
4.0504e-06

>  <r_epik_State_Penalty>  (77) 
-0

>  <r_epik_Charging_Adjusted_Penalty>  (77) 
0

>  <i_epik_Tot_Q>  (77) 
0

>  <i_epik_Tot_abs_Q>  (77) 
0

>  <s_lp_Force_Field>  (77) 
OPLS3e

>  <r_lp_Energy>  (77) 
101.21

>  <b_lp_Chiralities_Consistent>  (77) 
1

>  <s_lp_Variant>  (77) 
25:0-1

>  <s_i_glide_gridfile>  (77) 
pfpi4k_grid

>  <i_i_glide_lignum>  (77) 
38

>  <i_i_glide_rotatable_bonds>  (77) 
2

>  <r_i_docking_score>  (77) 
-3.05571

>  <r_i_glide_ligand_efficiency>  (77) 
-0.113175

>  <r_i_glide_ligand_efficiency_sa>  (77) 
-0.339524

>  <r_i_glide_ligand_efficiency_ln>  (77) 
-0.71132

>  <r_i_glide_gscore>  (77) 
-3.05571

>  <r_i_glide_lipo>  (77) 
-0.471121

>  <r_i_glide_hbond>  (77) 
-0.0255045

>  <r_i_glide_metal>  (77) 
-0

>  <r_i_glide_rewards>  (77) 
-0.855882

>  <r_i_glide_evdw>  (77) 
-26.8905

>  <r_i_glide_ecoul>  (77) 
-2.34114

>  <r_i_glide_erotb>  (77) 
0

>  <r_i_glide_esite>  (77) 
-0.00750807

>  <r_i_glide_emodel>  (77) 
-33.6182

>  <r_i_glide_energy>  (77) 
-29.2317

>  <r_i_glide_einternal>  (77) 
0.711573

>  <r_i_glide_intrahb_reward>  (77) 
-0

>  <i_i_glide_confnum>  (77) 
1

>  <i_i_glide_posenum>  (77) 
15

>  <r_i_glide_eff_state_penalty>  (77) 
0

>  <ligand_id>  (77) 
25

>  <original_smiles>  (77) 
CC1(C)C(=O)CC2C1CC(O)C1(C)C3=COC45CCCCC4C21OC3C5O

>  <smiles>  (77) 
[H]OC1([H])C2([H])OC34C5([H])C([H])([H])C(=O)C(C([H])([H])[H])(C([H])([H])[H])C5([H])C([H])([H])C([H])(O[H])C3(C([H])([H])[H])C2=C([H])OC12C([H])([H])C([H])([H])C([H])([H])C([H])([H])C24[H]

$$$$
25:0:1
     RDKit          3D

 57 62  0  0  1  0  0  0  0  0999 V2000
    3.8486   -8.5648    3.2370 C   0  0  0  0  0  0  0  0  0  0  0  0
    3.8274   -7.7351    1.9370 C   0  0  0  0  0  0  0  0  0  0  0  0
    4.2838   -8.6155    0.7598 C   0  0  0  0  0  0  0  0  0  0  0  0
    2.4149   -7.1913    1.6679 C   0  0  0  0  0  0  0  0  0  0  0  0
    1.3896   -7.8671    1.6989 O   0  0  0  0  0  0  0  0  0  0  0  0
    2.4054   -5.7081    1.3352 C   0  0  0  0  0  0  0  0  0  0  0  0
    3.8874   -5.4184    1.1292 C   0  0  2  0  0  0  0  0  0  0  0  0
    4.5973   -6.3989    2.0702 C   0  0  2  0  0  0  0  0  0  0  0  0
    6.1285   -6.3412    1.8347 C   0  0  0  0  0  0  0  0  0  0  0  0
    6.6938   -4.8823    1.7664 C   0  0  1  0  0  0  0  0  0  0  0  0
    7.2520   -4.7196    0.4793 O   0  0  0  0  0  0  0  0  0  0  0  0
    5.6068   -3.8112    2.1500 C   0  0  1  0  0  0  0  0  0  0  0  0
    5.3490   -3.9365    3.6973 C   0  0  0  0  0  0  0  0  0  0  0  0
    5.7777   -2.3393    1.9452 C   0  0  0  0  0  0  0  0  0  0  0  0
    6.6721   -1.8703    1.0682 C   0  0  0  0  0  0  0  0  0  0  0  0
    6.2122   -1.4357   -0.1433 O   0  0  0  0  0  0  0  0  0  0  0  0
    4.8221   -1.7352   -0.4211 C   0  0  1  0  0  0  0  0  0  0  0  0
    4.6590   -1.1489   -1.8486 C   0  0  0  0  0  0  0  0  0  0  0  0
    3.3480   -1.4951   -2.5351 C   0  0  0  0  0  0  0  0  0  0  0  0
    3.1372   -3.0071   -2.5254 C   0  0  0  0  0  0  0  0  0  0  0  0
    3.1527   -3.5395   -1.0782 C   0  0  0  0  0  0  0  0  0  0  0  0
    4.4827   -3.2973   -0.3183 C   0  0  2  0  0  0  0  0  0  0  0  0
    4.3661   -3.9327    1.1815 C   0  0  1  0  0  0  0  0  0  0  0  0
    3.5133   -3.0206    1.8598 O   0  0  0  0  0  0  0  0  0  0  0  0
    4.3186   -1.8447    1.9525 C   0  0  2  0  0  0  0  0  0  0  0  0
    3.9980   -1.0466    0.6872 C   0  0  1  0  0  0  0  0  0  0  0  0
    4.3573    0.2960    0.8798 O   0  0  0  0  0  0  0  0  0  0  0  0
    4.8666   -8.8256    3.5283 H   0  0  0  0  0  0  0  0  0  0  0  0
    3.2951   -9.5009    3.1184 H   0  0  0  0  0  0  0  0  0  0  0  0
    3.3884   -8.0307    4.0680 H   0  0  0  0  0  0  0  0  0  0  0  0
    5.3054   -8.9766    0.8883 H   0  0  0  0  0  0  0  0  0  0  0  0
    4.2329   -8.0828   -0.1875 H   0  0  0  0  0  0  0  0  0  0  0  0
    3.6487   -9.4985    0.6566 H   0  0  0  0  0  0  0  0  0  0  0  0
    1.8032   -5.5185    0.4533 H   0  0  0  0  0  0  0  0  0  0  0  0
    1.9963   -5.1560    2.1773 H   0  0  0  0  0  0  0  0  0  0  0  0
    4.1667   -5.7917    0.1443 H   0  0  0  0  0  0  0  0  0  0  0  0
    4.3912   -6.1067    3.0960 H   0  0  0  0  0  0  0  0  0  0  0  0
    6.6258   -6.8785    2.6408 H   0  0  0  0  0  0  0  0  0  0  0  0
    6.3914   -6.8782    0.9205 H   0  0  0  0  0  0  0  0  0  0  0  0
    7.5283   -4.8191    2.4678 H   0  0  0  0  0  0  0  0  0  0  0  0
    7.6661   -3.8720    0.4483 H   0  0  0  0  0  0  0  0  0  0  0  0
    5.7907   -4.8411    4.1227 H   0  0  0  0  0  0  0  0  0  0  0  0
    4.2859   -3.9289    3.9616 H   0  0  0  0  0  0  0  0  0  0  0  0
    5.8100   -3.1150    4.2564 H   0  0  0  0  0  0  0  0  0  0  0  0
    7.6386   -2.3184    0.9062 H   0  0  0  0  0  0  0  0  0  0  0  0
    4.7461   -0.0654   -1.8277 H   0  0  0  0  0  0  0  0  0  0  0  0
    5.4698   -1.5176   -2.4753 H   0  0  0  0  0  0  0  0  0  0  0  0
    2.5571   -0.9866   -1.9977 H   0  0  0  0  0  0  0  0  0  0  0  0
    3.3197   -1.1040   -3.5526 H   0  0  0  0  0  0  0  0  0  0  0  0
    2.1807   -3.2479   -2.9954 H   0  0  0  0  0  0  0  0  0  0  0  0
    3.9086   -3.4879   -3.1280 H   0  0  0  0  0  0  0  0  0  0  0  0
    2.3069   -3.1147   -0.5294 H   0  0  0  0  0  0  0  0  0  0  0  0
    2.9606   -4.6054   -1.1198 H   0  0  0  0  0  0  0  0  0  0  0  0
    5.2587   -3.8355   -0.8547 H   0  0  0  0  0  0  0  0  0  0  0  0
    4.0887   -1.2925    2.8655 H   0  0  0  0  0  0  0  0  0  0  0  0
    2.9260   -1.0779    0.4819 H   0  0  0  0  0  0  0  0  0  0  0  0
    4.4708    0.7198    0.0371 H   0  0  0  0  0  0  0  0  0  0  0  0
  1  2  1  0
  1 28  1  0
  1 29  1  0
  1 30  1  0
  2  8  1  0
  2  3  1  0
  2  4  1  0
  3 31  1  0
  3 32  1  0
  3 33  1  0
  4  5  2  0
  4  6  1  0
  6  7  1  0
  6 34  1  0
  6 35  1  0
  7 23  1  0
  7  8  1  0
  7 36  1  6
  8  9  1  0
  8 37  1  1
  9 10  1  0
  9 38  1  0
  9 39  1  0
 10 11  1  0
 10 12  1  0
 10 40  1  1
 11 41  1  0
 12 23  1  0
 12 13  1  1
 12 14  1  0
 13 42  1  0
 13 43  1  0
 13 44  1  0
 14 25  1  0
 14 15  2  0
 15 16  1  0
 15 45  1  0
 17 16  1  1
 17 22  1  0
 17 26  1  0
 17 18  1  0
 18 19  1  0
 18 46  1  0
 18 47  1  0
 19 20  1  0
 19 48  1  0
 19 49  1  0
 20 21  1  0
 20 50  1  0
 20 51  1  0
 21 22  1  0
 21 52  1  0
 21 53  1  0
 22 23  1  0
 22 54  1  6
 23 24  1  1
 24 25  1  0
 25 26  1  0
 25 55  1  1
 26 27  1  0
 26 56  1  6
 27 57  1  0
M  END
>  <i_m_ct_stereo_status>  (78) 
1

>  <s_m_source_file>  (78) 
/var/tmp/pbs.5076255.sched01/tmpyb5u0fxv/0ob_ovo1_.sdf

>  <i_m_source_file_index>  (78) 
38

>  <i_lp_mmshare_version>  (78) 
48012

>  <i_f3d_flags>  (78) 
0

>  <s_epik_input>  (78) 
W09IXVtDQEBIXTFbQ0BASF0oTzIpQyg9W0NIXU8zKVtDQF00KFtDSDNdKVtDQEhdKFtPSF0pW0NIMl1bQ0BIXShDKFtDSDNdKShbQ0gzXSlDKD1PKVtDSDJdNSlbQ0BASF01W0NAQF0yNFtDQEhdKFtDQEBdMTM2KVtDSDJdW0NIMl1bQ0gyXVtDSDJdNg==

>  <s_epik_cmdline>  (78) 
J2VwaWtfcHl0aG9uJywgJy1waHQnLCAnMi4wJywgJy1waCcsICc3LjAnLCAnLXRuJywgJzgnLCAnLW1hJywgJzIwMCcsICctaW1hZScsICc8aW5maWxlLm1hZT4nLCAnLW9tYWUnLCAnPG91dGZpbGUubWFlPic=

>  <r_lp_tautomer_probability>  (78) 
1

>  <r_epik_Ionization_Penalty>  (78) 
4.0504e-06

>  <r_epik_Ionization_Penalty_Charging>  (78) 
0

>  <r_epik_Ionization_Penalty_Neutral>  (78) 
4.0504e-06

>  <r_epik_State_Penalty>  (78) 
-0

>  <r_epik_Charging_Adjusted_Penalty>  (78) 
0

>  <i_epik_Tot_Q>  (78) 
0

>  <i_epik_Tot_abs_Q>  (78) 
0

>  <s_lp_Force_Field>  (78) 
OPLS3e

>  <r_lp_Energy>  (78) 
101.21

>  <b_lp_Chiralities_Consistent>  (78) 
1

>  <s_lp_Variant>  (78) 
25:0-1

>  <s_i_glide_gridfile>  (78) 
pfpi4k_grid

>  <i_i_glide_lignum>  (78) 
38

>  <i_i_glide_rotatable_bonds>  (78) 
2

>  <r_i_docking_score>  (78) 
-3.03975

>  <r_i_glide_ligand_efficiency>  (78) 
-0.112583

>  <r_i_glide_ligand_efficiency_sa>  (78) 
-0.33775

>  <r_i_glide_ligand_efficiency_ln>  (78) 
-0.707603

>  <r_i_glide_gscore>  (78) 
-3.03975

>  <r_i_glide_lipo>  (78) 
-0.473774

>  <r_i_glide_hbond>  (78) 
-0.0266095

>  <r_i_glide_metal>  (78) 
-0

>  <r_i_glide_rewards>  (78) 
-0.855882

>  <r_i_glide_evdw>  (78) 
-27.0557

>  <r_i_glide_ecoul>  (78) 
-2.15419

>  <r_i_glide_erotb>  (78) 
0

>  <r_i_glide_esite>  (78) 
-0.0075666

>  <r_i_glide_emodel>  (78) 
-33.4693

>  <r_i_glide_energy>  (78) 
-29.2099

>  <r_i_glide_einternal>  (78) 
0.987092

>  <r_i_glide_intrahb_reward>  (78) 
-0

>  <i_i_glide_confnum>  (78) 
1

>  <i_i_glide_posenum>  (78) 
1

>  <r_i_glide_eff_state_penalty>  (78) 
0

>  <ligand_id>  (78) 
25

>  <original_smiles>  (78) 
CC1(C)C(=O)CC2C1CC(O)C1(C)C3=COC45CCCCC4C21OC3C5O

>  <smiles>  (78) 
[H]OC1([H])C2([H])OC34C5([H])C([H])([H])C(=O)C(C([H])([H])[H])(C([H])([H])[H])C5([H])C([H])([H])C([H])(O[H])C3(C([H])([H])[H])C2=C([H])OC12C([H])([H])C([H])([H])C([H])([H])C([H])([H])C24[H]

$$$$
25:0:2
     RDKit          3D

 57 62  0  0  1  0  0  0  0  0999 V2000
    3.8688   -8.5422    3.2579 C   0  0  0  0  0  0  0  0  0  0  0  0
    3.8336   -7.7175    1.9549 C   0  0  0  0  0  0  0  0  0  0  0  0
    4.2979   -8.5980    0.7806 C   0  0  0  0  0  0  0  0  0  0  0  0
    2.4161   -7.1908    1.6826 C   0  0  0  0  0  0  0  0  0  0  0  0
    1.3981   -7.8784    1.7128 O   0  0  0  0  0  0  0  0  0  0  0  0
    2.3880   -5.7089    1.3514 C   0  0  0  0  0  0  0  0  0  0  0  0
    3.8669   -5.4015    1.1444 C   0  0  2  0  0  0  0  0  0  0  0  0
    4.5906   -6.3725    2.0845 C   0  0  2  0  0  0  0  0  0  0  0  0
    6.1211   -6.3000    1.8437 C   0  0  0  0  0  0  0  0  0  0  0  0
    6.6737   -4.8353    1.7683 C   0  0  1  0  0  0  0  0  0  0  0  0
    7.2439   -4.6701    0.4869 O   0  0  0  0  0  0  0  0  0  0  0  0
    5.5725   -3.7756    2.1539 C   0  0  1  0  0  0  0  0  0  0  0  0
    5.3302   -3.8992    3.7016 C   0  0  0  0  0  0  0  0  0  0  0  0
    5.7236   -2.3041    1.9515 C   0  0  0  0  0  0  0  0  0  0  0  0
    6.6136   -1.8385    1.0673 C   0  0  0  0  0  0  0  0  0  0  0  0
    6.1437   -1.4019   -0.1367 O   0  0  0  0  0  0  0  0  0  0  0  0
    4.7540   -1.7075   -0.4112 C   0  0  1  0  0  0  0  0  0  0  0  0
    4.5862   -1.1312   -1.8433 C   0  0  0  0  0  0  0  0  0  0  0  0
    3.2797   -1.4951   -2.5337 C   0  0  0  0  0  0  0  0  0  0  0  0
    3.0786   -3.0079   -2.5121 C   0  0  0  0  0  0  0  0  0  0  0  0
    3.1022   -3.5357   -1.0656 C   0  0  0  0  0  0  0  0  0  0  0  0
    4.4316   -3.2750   -0.3059 C   0  0  2  0  0  0  0  0  0  0  0  0
    4.3271   -3.9107    1.1944 C   0  0  1  0  0  0  0  0  0  0  0  0
    3.4709   -3.0051    1.8778 O   0  0  0  0  0  0  0  0  0  0  0  0
    4.2629   -1.8194    1.9655 C   0  0  2  0  0  0  0  0  0  0  0  0
    3.9219   -1.0305    0.7029 C   0  0  1  0  0  0  0  0  0  0  0  0
    4.2272    0.3319    0.8796 O   0  0  0  0  0  0  0  0  0  0  0  0
    4.8901   -8.7912    3.5481 H   0  0  0  0  0  0  0  0  0  0  0  0
    3.3267   -9.4848    3.1472 H   0  0  0  0  0  0  0  0  0  0  0  0
    3.4074   -8.0106    4.0906 H   0  0  0  0  0  0  0  0  0  0  0  0
    5.3249   -8.9442    0.9029 H   0  0  0  0  0  0  0  0  0  0  0  0
    4.2331   -8.0696   -0.1692 H   0  0  0  0  0  0  0  0  0  0  0  0
    3.6724   -9.4895    0.6889 H   0  0  0  0  0  0  0  0  0  0  0  0
    1.7804   -5.5201    0.4729 H   0  0  0  0  0  0  0  0  0  0  0  0
    1.9782   -5.1644    2.1980 H   0  0  0  0  0  0  0  0  0  0  0  0
    4.1452   -5.7741    0.1597 H   0  0  0  0  0  0  0  0  0  0  0  0
    4.3856   -6.0814    3.1106 H   0  0  0  0  0  0  0  0  0  0  0  0
    6.6258   -6.8241    2.6532 H   0  0  0  0  0  0  0  0  0  0  0  0
    6.3869   -6.8425    0.9349 H   0  0  0  0  0  0  0  0  0  0  0  0
    7.5046   -4.7589    2.4668 H   0  0  0  0  0  0  0  0  0  0  0  0
    6.5488   -4.7199   -0.1525 H   0  0  0  0  0  0  0  0  0  0  0  0
    5.7754   -4.8014    4.1267 H   0  0  0  0  0  0  0  0  0  0  0  0
    4.2711   -3.8915    3.9781 H   0  0  0  0  0  0  0  0  0  0  0  0
    5.8082   -3.0806    4.2519 H   0  0  0  0  0  0  0  0  0  0  0  0
    7.5687   -2.3114    0.8954 H   0  0  0  0  0  0  0  0  0  0  0  0
    4.6529   -0.0452   -1.8152 H   0  0  0  0  0  0  0  0  0  0  0  0
    5.4096   -1.4843   -2.4663 H   0  0  0  0  0  0  0  0  0  0  0  0
    2.4804   -0.9870   -2.0114 H   0  0  0  0  0  0  0  0  0  0  0  0
    3.2476   -1.1123   -3.5538 H   0  0  0  0  0  0  0  0  0  0  0  0
    2.1222   -3.2614   -2.9768 H   0  0  0  0  0  0  0  0  0  0  0  0
    3.8517   -3.4879   -3.1155 H   0  0  0  0  0  0  0  0  0  0  0  0
    2.2539   -3.1192   -0.5128 H   0  0  0  0  0  0  0  0  0  0  0  0
    2.9236   -4.6053   -1.1244 H   0  0  0  0  0  0  0  0  0  0  0  0
    5.2092   -3.8013   -0.8513 H   0  0  0  0  0  0  0  0  0  0  0  0
    4.0335   -1.2729    2.8813 H   0  0  0  0  0  0  0  0  0  0  0  0
    2.8504   -1.0932    0.5003 H   0  0  0  0  0  0  0  0  0  0  0  0
    3.6561    0.7030    1.5291 H   0  0  0  0  0  0  0  0  0  0  0  0
  1  2  1  0
  1 28  1  0
  1 29  1  0
  1 30  1  0
  2  8  1  0
  2  3  1  0
  2  4  1  0
  3 31  1  0
  3 32  1  0
  3 33  1  0
  4  5  2  0
  4  6  1  0
  6  7  1  0
  6 34  1  0
  6 35  1  0
  7 23  1  0
  7  8  1  0
  7 36  1  6
  8  9  1  0
  8 37  1  1
  9 10  1  0
  9 38  1  0
  9 39  1  0
 10 11  1  0
 10 12  1  0
 10 40  1  1
 11 41  1  0
 12 23  1  0
 12 13  1  1
 12 14  1  0
 13 42  1  0
 13 43  1  0
 13 44  1  0
 14 25  1  0
 14 15  2  0
 15 16  1  0
 15 45  1  0
 17 16  1  1
 17 22  1  0
 17 26  1  0
 17 18  1  0
 18 19  1  0
 18 46  1  0
 18 47  1  0
 19 20  1  0
 19 48  1  0
 19 49  1  0
 20 21  1  0
 20 50  1  0
 20 51  1  0
 21 22  1  0
 21 52  1  0
 21 53  1  0
 22 23  1  0
 22 54  1  6
 23 24  1  1
 24 25  1  0
 25 26  1  0
 25 55  1  1
 26 27  1  0
 26 56  1  6
 27 57  1  0
M  END
>  <i_m_ct_stereo_status>  (79) 
1

>  <s_m_source_file>  (79) 
/var/tmp/pbs.5076255.sched01/tmpyb5u0fxv/0ob_ovo1_.sdf

>  <i_m_source_file_index>  (79) 
38

>  <i_lp_mmshare_version>  (79) 
48012

>  <i_f3d_flags>  (79) 
0

>  <s_epik_input>  (79) 
W09IXVtDQEBIXTFbQ0BASF0oTzIpQyg9W0NIXU8zKVtDQF00KFtDSDNdKVtDQEhdKFtPSF0pW0NIMl1bQ0BIXShDKFtDSDNdKShbQ0gzXSlDKD1PKVtDSDJdNSlbQ0BASF01W0NAQF0yNFtDQEhdKFtDQEBdMTM2KVtDSDJdW0NIMl1bQ0gyXVtDSDJdNg==

>  <s_epik_cmdline>  (79) 
J2VwaWtfcHl0aG9uJywgJy1waHQnLCAnMi4wJywgJy1waCcsICc3LjAnLCAnLXRuJywgJzgnLCAnLW1hJywgJzIwMCcsICctaW1hZScsICc8aW5maWxlLm1hZT4nLCAnLW9tYWUnLCAnPG91dGZpbGUubWFlPic=

>  <r_lp_tautomer_probability>  (79) 
1

>  <r_epik_Ionization_Penalty>  (79) 
4.0504e-06

>  <r_epik_Ionization_Penalty_Charging>  (79) 
0

>  <r_epik_Ionization_Penalty_Neutral>  (79) 
4.0504e-06

>  <r_epik_State_Penalty>  (79) 
-0

>  <r_epik_Charging_Adjusted_Penalty>  (79) 
0

>  <i_epik_Tot_Q>  (79) 
0

>  <i_epik_Tot_abs_Q>  (79) 
0

>  <s_lp_Force_Field>  (79) 
OPLS3e

>  <r_lp_Energy>  (79) 
101.21

>  <b_lp_Chiralities_Consistent>  (79) 
1

>  <s_lp_Variant>  (79) 
25:0-1

>  <s_i_glide_gridfile>  (79) 
pfpi4k_grid

>  <i_i_glide_lignum>  (79) 
38

>  <i_i_glide_rotatable_bonds>  (79) 
2

>  <r_i_docking_score>  (79) 
-2.84641

>  <r_i_glide_ligand_efficiency>  (79) 
-0.105422

>  <r_i_glide_ligand_efficiency_sa>  (79) 
-0.316267

>  <r_i_glide_ligand_efficiency_ln>  (79) 
-0.662596

>  <r_i_glide_gscore>  (79) 
-2.84641

>  <r_i_glide_lipo>  (79) 
-0.477527

>  <r_i_glide_hbond>  (79) 
-0.0163924

>  <r_i_glide_metal>  (79) 
-0

>  <r_i_glide_rewards>  (79) 
-0.855882

>  <r_i_glide_evdw>  (79) 
-26.9591

>  <r_i_glide_ecoul>  (79) 
-0.940766

>  <r_i_glide_erotb>  (79) 
0

>  <r_i_glide_esite>  (79) 
-0.00753384

>  <r_i_glide_emodel>  (79) 
-32.2519

>  <r_i_glide_energy>  (79) 
-27.8999

>  <r_i_glide_einternal>  (79) 
0.344479

>  <r_i_glide_intrahb_reward>  (79) 
-0

>  <i_i_glide_confnum>  (79) 
1

>  <i_i_glide_posenum>  (79) 
5

>  <r_i_glide_eff_state_penalty>  (79) 
0

>  <ligand_id>  (79) 
25

>  <original_smiles>  (79) 
CC1(C)C(=O)CC2C1CC(O)C1(C)C3=COC45CCCCC4C21OC3C5O

>  <smiles>  (79) 
[H]OC1([H])C2([H])OC34C5([H])C([H])([H])C(=O)C(C([H])([H])[H])(C([H])([H])[H])C5([H])C([H])([H])C([H])(O[H])C3(C([H])([H])[H])C2=C([H])OC12C([H])([H])C([H])([H])C([H])([H])C([H])([H])C24[H]

$$$$
26:0:0
     RDKit          3D

 31 33  0  0  1  0  0  0  0  0999 V2000
    4.9028   -4.8079   -1.0587 O   0  0  0  0  0  0  0  0  0  0  0  0
    3.9506   -4.1708   -0.2899 N   0  0  0  0  0  0  0  0  0  0  0  0
    3.4109   -3.0346   -0.6714 C   0  0  0  0  0  0  0  0  0  0  0  0
    3.5680   -2.3535   -1.9495 C   0  0  0  0  0  0  0  0  0  0  0  0
    3.9006   -0.9942   -1.9533 C   0  0  0  0  0  0  0  0  0  0  0  0
    3.9683   -0.3458   -3.1958 C   0  0  0  0  0  0  0  0  0  0  0  0
    3.7177   -1.1334   -4.3360 C   0  0  0  0  0  0  0  0  0  0  0  0
    3.4184   -2.4506   -4.2669 N   0  0  0  0  0  0  0  0  0  0  0  0
    3.3233   -3.0580   -3.0793 N   0  0  0  0  0  0  0  0  0  0  0  0
    2.7068   -2.6023    0.3748 N   0  0  0  0  0  0  0  0  0  0  0  0
    2.8113   -3.5178    1.5341 C   0  0  0  0  0  0  0  0  0  0  0  0
    3.7172   -4.6659    1.0572 C   0  0  0  0  0  0  0  0  0  0  0  0
    3.0210   -6.0223    1.0459 C   0  0  0  0  0  0  0  0  0  0  0  0
    4.1082   -7.0782    1.2713 C   0  0  0  0  0  0  0  0  0  0  0  0
    5.3974   -6.3330    1.6327 C   0  0  0  0  0  0  0  0  0  0  0  0
    4.9999   -4.8624    1.8519 C   0  0  0  0  0  0  0  0  0  0  0  0
    4.0587   -0.4627   -1.0261 H   0  0  0  0  0  0  0  0  0  0  0  0
    4.1973    0.7020   -3.2776 H   0  0  0  0  0  0  0  0  0  0  0  0
    3.7873   -0.7244   -5.3318 H   0  0  0  0  0  0  0  0  0  0  0  0
    3.2104   -3.0050    2.4173 H   0  0  0  0  0  0  0  0  0  0  0  0
    1.8142   -3.8907    1.7760 H   0  0  0  0  0  0  0  0  0  0  0  0
    2.3130   -6.0828    1.8730 H   0  0  0  0  0  0  0  0  0  0  0  0
    2.4681   -6.1917    0.1115 H   0  0  0  0  0  0  0  0  0  0  0  0
    3.7971   -7.7432    2.0737 H   0  0  0  0  0  0  0  0  0  0  0  0
    4.2498   -7.6537    0.3643 H   0  0  0  0  0  0  0  0  0  0  0  0
    5.9026   -6.7442    2.5178 H   0  0  0  0  0  0  0  0  0  0  0  0
    6.0941   -6.3783    0.7954 H   0  0  0  0  0  0  0  0  0  0  0  0
    5.8061   -4.2118    1.5232 H   0  0  0  0  0  0  0  0  0  0  0  0
    4.8310   -4.7035    2.9182 H   0  0  0  0  0  0  0  0  0  0  0  0
    2.0620   -1.8228    0.3019 H   0  0  0  0  0  0  0  0  0  0  0  0
    4.3476   -5.3130   -1.6388 H   0  0  0  0  0  0  0  0  0  0  0  0
  1  2  1  0
  1 31  1  0
  2 12  1  0
  2  3  2  0
  3  4  1  0
  3 10  1  0
  4  9  1  0
  4  5  2  0
  5  6  1  0
  5 17  1  0
  6  7  2  0
  6 18  1  0
  7  8  1  0
  7 19  1  0
  8  9  2  0
 10 11  1  0
 10 30  1  0
 11 12  1  0
 11 20  1  0
 11 21  1  0
 12 16  1  0
 12 13  1  0
 13 14  1  0
 13 22  1  0
 13 23  1  0
 14 15  1  0
 14 24  1  0
 14 25  1  0
 15 16  1  0
 15 26  1  0
 15 27  1  0
 16 28  1  0
 16 29  1  0
M  CHG  1   2   1
M  END
>  <i_m_ct_stereo_status>  (80) 
1

>  <s_m_source_file>  (80) 
/var/tmp/pbs.5076255.sched01/tmpyb5u0fxv/0ob_ovo1_.sdf

>  <i_m_source_file_index>  (80) 
39

>  <i_lp_mmshare_version>  (80) 
48012

>  <i_f3d_flags>  (80) 
0

>  <s_epik_input>  (80) 
W0NIMl0xW0NIMl1bQ0gyXVtDSDJdQzEyTihbT0hdKUMoPU5bQ0gyXTIpYzNbY0hdW2NIXVtjSF1ubjM=

>  <s_epik_cmdline>  (80) 
J2VwaWtfcHl0aG9uJywgJy1waHQnLCAnMi4wJywgJy1waCcsICc3LjAnLCAnLXRuJywgJzgnLCAnLW1hJywgJzIwMCcsICctaW1hZScsICc8aW5maWxlLm1hZT4nLCAnLW9tYWUnLCAnPG91dGZpbGUubWFlPic=

>  <r_lp_tautomer_probability>  (80) 
1

>  <r_epik_Ionization_Penalty>  (80) 
0.00255493

>  <r_epik_Ionization_Penalty_Charging>  (80) 
0.00120476

>  <r_epik_Ionization_Penalty_Neutral>  (80) 
0.00135017

>  <r_epik_State_Penalty>  (80) 
0.284078

>  <r_epik_Charging_Adjusted_Penalty>  (80) 
0.285282

>  <i_epik_Tot_Q>  (80) 
1

>  <i_epik_Tot_abs_Q>  (80) 
1

>  <s_epik_Chemistry_Notes>  (80) 
This compound has an imine and may undergo hydrolysis.

>  <s_lp_Force_Field>  (80) 
OPLS3e

>  <r_lp_Energy>  (80) 
37.3601

>  <b_lp_Chiralities_Consistent>  (80) 
1

>  <s_lp_Variant>  (80) 
26:0-1

>  <s_i_glide_gridfile>  (80) 
pfpi4k_grid

>  <i_i_glide_lignum>  (80) 
39

>  <i_i_glide_rotatable_bonds>  (80) 
2

>  <r_i_docking_score>  (80) 
-4.79915

>  <r_i_glide_ligand_efficiency>  (80) 
-0.299947

>  <r_i_glide_ligand_efficiency_sa>  (80) 
-0.755819

>  <r_i_glide_ligand_efficiency_ln>  (80) 
-1.27211

>  <r_i_glide_gscore>  (80) 
-4.79915

>  <r_i_glide_lipo>  (80) 
-0.409642

>  <r_i_glide_hbond>  (80) 
-0.442293

>  <r_i_glide_metal>  (80) 
-0

>  <r_i_glide_rewards>  (80) 
-1.91412

>  <r_i_glide_evdw>  (80) 
-19.0207

>  <r_i_glide_ecoul>  (80) 
-8.76731

>  <r_i_glide_erotb>  (80) 
0.349987

>  <r_i_glide_esite>  (80) 
-0.116953

>  <r_i_glide_emodel>  (80) 
-38.1288

>  <r_i_glide_energy>  (80) 
-27.788

>  <r_i_glide_einternal>  (80) 
0.242661

>  <r_i_glide_intrahb_reward>  (80) 
-0

>  <i_i_glide_confnum>  (80) 
2

>  <i_i_glide_posenum>  (80) 
3

>  <r_i_glide_eff_state_penalty>  (80) 
0

>  <ligand_id>  (80) 
26

>  <original_smiles>  (80) 
ON1C(c2cccnn2)=NCC12CCCC2

>  <smiles>  (80) 
[H]O[N+]1=C(c2nnc([H])c([H])c2[H])N([H])C([H])([H])C12C([H])([H])C([H])([H])C([H])([H])C2([H])[H]

$$$$
26:0:1
     RDKit          3D

 31 33  0  0  1  0  0  0  0  0999 V2000
    1.9815   -3.6588   -1.5404 O   0  0  0  0  0  0  0  0  0  0  0  0
    3.2562   -3.8299   -1.0489 N   0  0  0  0  0  0  0  0  0  0  0  0
    3.5282   -4.7502   -0.1132 C   0  0  0  0  0  0  0  0  0  0  0  0
    2.6720   -5.7121    0.5718 C   0  0  0  0  0  0  0  0  0  0  0  0
    3.1808   -6.4389    1.6778 C   0  0  0  0  0  0  0  0  0  0  0  0
    2.3109   -7.3428    2.3136 C   0  0  0  0  0  0  0  0  0  0  0  0
    0.9971   -7.4338    1.8147 C   0  0  0  0  0  0  0  0  0  0  0  0
    0.5526   -6.6791    0.7816 N   0  0  0  0  0  0  0  0  0  0  0  0
    1.3978   -5.8554    0.1397 N   0  0  0  0  0  0  0  0  0  0  0  0
    4.8372   -4.5750    0.1062 N   0  0  0  0  0  0  0  0  0  0  0  0
    5.4354   -3.5015   -0.7061 C   0  0  0  0  0  0  0  0  0  0  0  0
    4.3028   -2.9936   -1.5952 C   0  0  0  0  0  0  0  0  0  0  0  0
    4.5710   -3.2518   -3.0764 C   0  0  0  0  0  0  0  0  0  0  0  0
    3.8128   -2.1624   -3.8378 C   0  0  0  0  0  0  0  0  0  0  0  0
    3.2938   -1.1612   -2.8125 C   0  0  0  0  0  0  0  0  0  0  0  0
    3.9586   -1.5275   -1.4716 C   0  0  0  0  0  0  0  0  0  0  0  0
    4.1926   -6.3057    2.0190 H   0  0  0  0  0  0  0  0  0  0  0  0
    2.6395   -7.9321    3.1533 H   0  0  0  0  0  0  0  0  0  0  0  0
    0.2689   -8.1006    2.2534 H   0  0  0  0  0  0  0  0  0  0  0  0
    5.8728   -2.7136   -0.0709 H   0  0  0  0  0  0  0  0  0  0  0  0
    6.2475   -3.9430   -1.2915 H   0  0  0  0  0  0  0  0  0  0  0  0
    5.6313   -3.1418   -3.2909 H   0  0  0  0  0  0  0  0  0  0  0  0
    4.2731   -4.2579   -3.3898 H   0  0  0  0  0  0  0  0  0  0  0  0
    4.4886   -1.6819   -4.5396 H   0  0  0  0  0  0  0  0  0  0  0  0
    2.9895   -2.6210   -4.3730 H   0  0  0  0  0  0  0  0  0  0  0  0
    3.4929   -0.1214   -3.0615 H   0  0  0  0  0  0  0  0  0  0  0  0
    2.2287   -1.2956   -2.6984 H   0  0  0  0  0  0  0  0  0  0  0  0
    3.2617   -1.3532   -0.6714 H   0  0  0  0  0  0  0  0  0  0  0  0
    4.8389   -0.9204   -1.3273 H   0  0  0  0  0  0  0  0  0  0  0  0
    5.3825   -5.1174    0.7483 H   0  0  0  0  0  0  0  0  0  0  0  0
    1.9382   -4.3401   -2.1949 H   0  0  0  0  0  0  0  0  0  0  0  0
  1  2  1  0
  1 31  1  0
  2 12  1  0
  2  3  2  0
  3  4  1  0
  3 10  1  0
  4  9  1  0
  4  5  2  0
  5  6  1  0
  5 17  1  0
  6  7  2  0
  6 18  1  0
  7  8  1  0
  7 19  1  0
  8  9  2  0
 10 11  1  0
 10 30  1  0
 11 12  1  0
 11 20  1  0
 11 21  1  0
 12 16  1  0
 12 13  1  0
 13 14  1  0
 13 22  1  0
 13 23  1  0
 14 15  1  0
 14 24  1  0
 14 25  1  0
 15 16  1  0
 15 26  1  0
 15 27  1  0
 16 28  1  0
 16 29  1  0
M  CHG  1   2   1
M  END
>  <i_m_ct_stereo_status>  (81) 
1

>  <s_m_source_file>  (81) 
/var/tmp/pbs.5076255.sched01/tmpyb5u0fxv/0ob_ovo1_.sdf

>  <i_m_source_file_index>  (81) 
39

>  <i_lp_mmshare_version>  (81) 
48012

>  <i_f3d_flags>  (81) 
0

>  <s_epik_input>  (81) 
W0NIMl0xW0NIMl1bQ0gyXVtDSDJdQzEyTihbT0hdKUMoPU5bQ0gyXTIpYzNbY0hdW2NIXVtjSF1ubjM=

>  <s_epik_cmdline>  (81) 
J2VwaWtfcHl0aG9uJywgJy1waHQnLCAnMi4wJywgJy1waCcsICc3LjAnLCAnLXRuJywgJzgnLCAnLW1hJywgJzIwMCcsICctaW1hZScsICc8aW5maWxlLm1hZT4nLCAnLW9tYWUnLCAnPG91dGZpbGUubWFlPic=

>  <r_lp_tautomer_probability>  (81) 
1

>  <r_epik_Ionization_Penalty>  (81) 
0.00255493

>  <r_epik_Ionization_Penalty_Charging>  (81) 
0.00120476

>  <r_epik_Ionization_Penalty_Neutral>  (81) 
0.00135017

>  <r_epik_State_Penalty>  (81) 
0.284078

>  <r_epik_Charging_Adjusted_Penalty>  (81) 
0.285282

>  <i_epik_Tot_Q>  (81) 
1

>  <i_epik_Tot_abs_Q>  (81) 
1

>  <s_epik_Chemistry_Notes>  (81) 
This compound has an imine and may undergo hydrolysis.

>  <s_lp_Force_Field>  (81) 
OPLS3e

>  <r_lp_Energy>  (81) 
37.3601

>  <b_lp_Chiralities_Consistent>  (81) 
1

>  <s_lp_Variant>  (81) 
26:0-1

>  <s_i_glide_gridfile>  (81) 
pfpi4k_grid

>  <i_i_glide_lignum>  (81) 
39

>  <i_i_glide_rotatable_bonds>  (81) 
2

>  <r_i_docking_score>  (81) 
-4.66618

>  <r_i_glide_ligand_efficiency>  (81) 
-0.291637

>  <r_i_glide_ligand_efficiency_sa>  (81) 
-0.734878

>  <r_i_glide_ligand_efficiency_ln>  (81) 
-1.23687

>  <r_i_glide_gscore>  (81) 
-4.66618

>  <r_i_glide_lipo>  (81) 
-0.337547

>  <r_i_glide_hbond>  (81) 
-0.223051

>  <r_i_glide_metal>  (81) 
-0

>  <r_i_glide_rewards>  (81) 
-1.91412

>  <r_i_glide_evdw>  (81) 
-22.8725

>  <r_i_glide_ecoul>  (81) 
-7.75912

>  <r_i_glide_erotb>  (81) 
0.349987

>  <r_i_glide_esite>  (81) 
-0.233964

>  <r_i_glide_emodel>  (81) 
-39.7724

>  <r_i_glide_energy>  (81) 
-30.6316

>  <r_i_glide_einternal>  (81) 
2.07195

>  <r_i_glide_intrahb_reward>  (81) 
-0

>  <i_i_glide_confnum>  (81) 
2

>  <i_i_glide_posenum>  (81) 
14

>  <r_i_glide_eff_state_penalty>  (81) 
0

>  <ligand_id>  (81) 
26

>  <original_smiles>  (81) 
ON1C(c2cccnn2)=NCC12CCCC2

>  <smiles>  (81) 
[H]O[N+]1=C(c2nnc([H])c([H])c2[H])N([H])C([H])([H])C12C([H])([H])C([H])([H])C([H])([H])C2([H])[H]

$$$$
26:0:2
     RDKit          3D

 31 33  0  0  1  0  0  0  0  0999 V2000
    1.8568   -3.4475   -1.4124 O   0  0  0  0  0  0  0  0  0  0  0  0
    3.1386   -3.6569   -0.9562 N   0  0  0  0  0  0  0  0  0  0  0  0
    3.4348   -4.6022   -0.0538 C   0  0  0  0  0  0  0  0  0  0  0  0
    2.5512   -5.4713    0.6985 C   0  0  0  0  0  0  0  0  0  0  0  0
    2.9277   -5.9000    1.9822 C   0  0  0  0  0  0  0  0  0  0  0  0
    2.0470   -6.7450    2.6706 C   0  0  0  0  0  0  0  0  0  0  0  0
    0.8560   -7.1114    2.0199 C   0  0  0  0  0  0  0  0  0  0  0  0
    0.5401   -6.6519    0.7826 N   0  0  0  0  0  0  0  0  0  0  0  0
    1.3899   -5.8621    0.1238 N   0  0  0  0  0  0  0  0  0  0  0  0
    4.7701   -4.5749    0.0360 N   0  0  0  0  0  0  0  0  0  0  0  0
    5.3945   -3.5611   -0.8410 C   0  0  0  0  0  0  0  0  0  0  0  0
    4.2161   -2.9509   -1.6153 C   0  0  0  0  0  0  0  0  0  0  0  0
    4.3316   -3.2381   -3.1171 C   0  0  0  0  0  0  0  0  0  0  0  0
    3.6240   -2.0873   -3.8304 C   0  0  0  0  0  0  0  0  0  0  0  0
    3.3027   -1.0383   -2.7580 C   0  0  0  0  0  0  0  0  0  0  0  0
    4.0336   -1.4444   -1.4973 C   0  0  0  0  0  0  0  0  0  0  0  0
    3.8610   -5.5782    2.4205 H   0  0  0  0  0  0  0  0  0  0  0  0
    2.2684   -7.0916    3.6727 H   0  0  0  0  0  0  0  0  0  0  0  0
    0.1221   -7.7459    2.4910 H   0  0  0  0  0  0  0  0  0  0  0  0
    5.9473   -2.8184   -0.2538 H   0  0  0  0  0  0  0  0  0  0  0  0
    6.0953   -4.0768   -1.5075 H   0  0  0  0  0  0  0  0  0  0  0  0
    5.3779   -3.2228   -3.4265 H   0  0  0  0  0  0  0  0  0  0  0  0
    3.9255   -4.2174   -3.4028 H   0  0  0  0  0  0  0  0  0  0  0  0
    4.2750   -1.6649   -4.6019 H   0  0  0  0  0  0  0  0  0  0  0  0
    2.7083   -2.4556   -4.2952 H   0  0  0  0  0  0  0  0  0  0  0  0
    3.5596   -0.0162   -3.0580 H   0  0  0  0  0  0  0  0  0  0  0  0
    2.2297   -1.0653   -2.5735 H   0  0  0  0  0  0  0  0  0  0  0  0
    3.4306   -1.2025   -0.6221 H   0  0  0  0  0  0  0  0  0  0  0  0
    4.9972   -0.9310   -1.4163 H   0  0  0  0  0  0  0  0  0  0  0  0
    5.3167   -5.1888    0.6229 H   0  0  0  0  0  0  0  0  0  0  0  0
    1.6565   -2.5665   -1.1135 H   0  0  0  0  0  0  0  0  0  0  0  0
  1  2  1  0
  1 31  1  0
  2 12  1  0
  2  3  2  0
  3  4  1  0
  3 10  1  0
  4  9  1  0
  4  5  2  0
  5  6  1  0
  5 17  1  0
  6  7  2  0
  6 18  1  0
  7  8  1  0
  7 19  1  0
  8  9  2  0
 10 11  1  0
 10 30  1  0
 11 12  1  0
 11 20  1  0
 11 21  1  0
 12 16  1  0
 12 13  1  0
 13 14  1  0
 13 22  1  0
 13 23  1  0
 14 15  1  0
 14 24  1  0
 14 25  1  0
 15 16  1  0
 15 26  1  0
 15 27  1  0
 16 28  1  0
 16 29  1  0
M  CHG  1   2   1
M  END
>  <i_m_ct_stereo_status>  (82) 
1

>  <s_m_source_file>  (82) 
/var/tmp/pbs.5076255.sched01/tmpyb5u0fxv/0ob_ovo1_.sdf

>  <i_m_source_file_index>  (82) 
39

>  <i_lp_mmshare_version>  (82) 
48012

>  <i_f3d_flags>  (82) 
0

>  <s_epik_input>  (82) 
W0NIMl0xW0NIMl1bQ0gyXVtDSDJdQzEyTihbT0hdKUMoPU5bQ0gyXTIpYzNbY0hdW2NIXVtjSF1ubjM=

>  <s_epik_cmdline>  (82) 
J2VwaWtfcHl0aG9uJywgJy1waHQnLCAnMi4wJywgJy1waCcsICc3LjAnLCAnLXRuJywgJzgnLCAnLW1hJywgJzIwMCcsICctaW1hZScsICc8aW5maWxlLm1hZT4nLCAnLW9tYWUnLCAnPG91dGZpbGUubWFlPic=

>  <r_lp_tautomer_probability>  (82) 
1

>  <r_epik_Ionization_Penalty>  (82) 
0.00255493

>  <r_epik_Ionization_Penalty_Charging>  (82) 
0.00120476

>  <r_epik_Ionization_Penalty_Neutral>  (82) 
0.00135017

>  <r_epik_State_Penalty>  (82) 
0.284078

>  <r_epik_Charging_Adjusted_Penalty>  (82) 
0.285282

>  <i_epik_Tot_Q>  (82) 
1

>  <i_epik_Tot_abs_Q>  (82) 
1

>  <s_epik_Chemistry_Notes>  (82) 
This compound has an imine and may undergo hydrolysis.

>  <s_lp_Force_Field>  (82) 
OPLS3e

>  <r_lp_Energy>  (82) 
37.3601

>  <b_lp_Chiralities_Consistent>  (82) 
1

>  <s_lp_Variant>  (82) 
26:0-1

>  <s_i_glide_gridfile>  (82) 
pfpi4k_grid

>  <i_i_glide_lignum>  (82) 
39

>  <i_i_glide_rotatable_bonds>  (82) 
2

>  <r_i_docking_score>  (82) 
-4.40223

>  <r_i_glide_ligand_efficiency>  (82) 
-0.275139

>  <r_i_glide_ligand_efficiency_sa>  (82) 
-0.693307

>  <r_i_glide_ligand_efficiency_ln>  (82) 
-1.1669

>  <r_i_glide_gscore>  (82) 
-4.40223

>  <r_i_glide_lipo>  (82) 
-0.279195

>  <r_i_glide_hbond>  (82) 
-0.16144

>  <r_i_glide_metal>  (82) 
-0

>  <r_i_glide_rewards>  (82) 
-1.95069

>  <r_i_glide_evdw>  (82) 
-22.2653

>  <r_i_glide_ecoul>  (82) 
-6.80836

>  <r_i_glide_erotb>  (82) 
0.349987

>  <r_i_glide_esite>  (82) 
-0.226367

>  <r_i_glide_emodel>  (82) 
-37.725

>  <r_i_glide_energy>  (82) 
-29.0737

>  <r_i_glide_einternal>  (82) 
1.5039

>  <r_i_glide_intrahb_reward>  (82) 
-0

>  <i_i_glide_confnum>  (82) 
2

>  <i_i_glide_posenum>  (82) 
23

>  <r_i_glide_eff_state_penalty>  (82) 
0

>  <ligand_id>  (82) 
26

>  <original_smiles>  (82) 
ON1C(c2cccnn2)=NCC12CCCC2

>  <smiles>  (82) 
[H]O[N+]1=C(c2nnc([H])c([H])c2[H])N([H])C([H])([H])C12C([H])([H])C([H])([H])C([H])([H])C2([H])[H]

$$$$
26:1:0
     RDKit          3D

 31 33  0  0  1  0  0  0  0  0999 V2000
    2.0135   -3.1915   -1.4524 O   0  0  0  0  0  0  0  0  0  0  0  0
    3.3229   -3.2582   -1.0168 N   0  0  0  0  0  0  0  0  0  0  0  0
    3.7312   -4.2261   -0.1773 C   0  0  0  0  0  0  0  0  0  0  0  0
    2.8985   -5.0874    0.6714 C   0  0  0  0  0  0  0  0  0  0  0  0
    3.2921   -5.3697    1.9986 C   0  0  0  0  0  0  0  0  0  0  0  0
    2.4318   -6.1926    2.7587 C   0  0  0  0  0  0  0  0  0  0  0  0
    1.2583   -6.6534    2.1337 C   0  0  0  0  0  0  0  0  0  0  0  0
    0.9457   -6.3618    0.8560 N   0  0  0  0  0  0  0  0  0  0  0  0
    1.7869   -5.6087    0.1204 N   0  0  0  0  0  0  0  0  0  0  0  0
    5.0551   -4.2584   -0.2562 N   0  0  0  0  0  0  0  0  0  0  0  0
    5.5950   -3.3081   -1.2414 C   0  0  0  0  0  0  0  0  0  0  0  0
    4.3449   -2.7020   -1.8968 C   0  0  0  0  0  0  0  0  0  0  0  0
    4.1388   -3.1136   -3.3570 C   0  0  0  0  0  0  0  0  0  0  0  0
    3.2639   -1.9981   -3.9432 C   0  0  0  0  0  0  0  0  0  0  0  0
    3.5611   -0.7417   -3.1250 C   0  0  0  0  0  0  0  0  0  0  0  0
    4.3547   -1.1794   -1.8943 C   0  0  0  0  0  0  0  0  0  0  0  0
    1.6956   -2.3521   -1.1249 H   0  0  0  0  0  0  0  0  0  0  0  0
    4.2024   -4.9649    2.4106 H   0  0  0  0  0  0  0  0  0  0  0  0
    2.6579   -6.4483    3.7810 H   0  0  0  0  0  0  0  0  0  0  0  0
    0.5263   -7.2673    2.6494 H   0  0  0  0  0  0  0  0  0  0  0  0
    6.1623   -2.5425   -0.7035 H   0  0  0  0  0  0  0  0  0  0  0  0
    6.2682   -3.8018   -1.9506 H   0  0  0  0  0  0  0  0  0  0  0  0
    5.0777   -3.1954   -3.9098 H   0  0  0  0  0  0  0  0  0  0  0  0
    3.6120   -4.0544   -3.4441 H   0  0  0  0  0  0  0  0  0  0  0  0
    3.4470   -1.8634   -5.0122 H   0  0  0  0  0  0  0  0  0  0  0  0
    2.2103   -2.2652   -3.8436 H   0  0  0  0  0  0  0  0  0  0  0  0
    4.1550   -0.0332   -3.7015 H   0  0  0  0  0  0  0  0  0  0  0  0
    2.6328   -0.2650   -2.8182 H   0  0  0  0  0  0  0  0  0  0  0  0
    3.9310   -0.7759   -0.9677 H   0  0  0  0  0  0  0  0  0  0  0  0
    5.3785   -0.8172   -1.9900 H   0  0  0  0  0  0  0  0  0  0  0  0
    5.6528   -4.8471    0.3025 H   0  0  0  0  0  0  0  0  0  0  0  0
  1  2  1  0
  1 17  1  0
  2 12  1  0
  2  3  1  0
  3  4  1  0
  3 10  2  0
  4  9  1  0
  4  5  2  0
  5  6  1  0
  5 18  1  0
  6  7  2  0
  6 19  1  0
  7  8  1  0
  7 20  1  0
  8  9  2  0
 10 11  1  0
 10 31  1  0
 11 12  1  0
 11 21  1  0
 11 22  1  0
 12 16  1  0
 12 13  1  0
 13 14  1  0
 13 23  1  0
 13 24  1  0
 14 15  1  0
 14 25  1  0
 14 26  1  0
 15 16  1  0
 15 27  1  0
 15 28  1  0
 16 29  1  0
 16 30  1  0
M  CHG  1  10   1
M  END
>  <i_m_ct_stereo_status>  (83) 
1

>  <s_m_source_file>  (83) 
/var/tmp/pbs.5076255.sched01/tmpyb5u0fxv/0ob_ovo1_.sdf

>  <i_m_source_file_index>  (83) 
40

>  <i_lp_mmshare_version>  (83) 
48012

>  <i_f3d_flags>  (83) 
0

>  <s_epik_input>  (83) 
W0NIMl0xW0NIMl1bQ0gyXVtDSDJdQzEyTihbT0hdKUMoPU5bQ0gyXTIpYzNbY0hdW2NIXVtjSF1ubjM=

>  <s_epik_cmdline>  (83) 
J2VwaWtfcHl0aG9uJywgJy1waHQnLCAnMi4wJywgJy1waCcsICc3LjAnLCAnLXRuJywgJzgnLCAnLW1hJywgJzIwMCcsICctaW1hZScsICc8aW5maWxlLm1hZT4nLCAnLW9tYWUnLCAnPG91dGZpbGUubWFlPic=

>  <r_lp_tautomer_probability>  (83) 
1

>  <r_epik_Ionization_Penalty>  (83) 
0.021208

>  <r_epik_Ionization_Penalty_Charging>  (83) 
0.0199682

>  <r_epik_Ionization_Penalty_Neutral>  (83) 
0.0012398

>  <r_epik_State_Penalty>  (83) 
0.58162

>  <r_epik_Charging_Adjusted_Penalty>  (83) 
0.601588

>  <i_epik_Tot_Q>  (83) 
1

>  <i_epik_Tot_abs_Q>  (83) 
1

>  <s_epik_Chemistry_Notes>  (83) 
This compound has an imine and may undergo hydrolysis. This compound has a N-S or N-O group and may undergo hydrolysis at high or low pH.

>  <s_lp_Force_Field>  (83) 
OPLS3e

>  <r_lp_Energy>  (83) 
36.4606

>  <b_lp_Chiralities_Consistent>  (83) 
1

>  <s_lp_Variant>  (83) 
26:0-2

>  <s_i_glide_gridfile>  (83) 
pfpi4k_grid

>  <i_i_glide_lignum>  (83) 
40

>  <i_i_glide_rotatable_bonds>  (83) 
2

>  <r_i_docking_score>  (83) 
-4.77866

>  <r_i_glide_ligand_efficiency>  (83) 
-0.298666

>  <r_i_glide_ligand_efficiency_sa>  (83) 
-0.752592

>  <r_i_glide_ligand_efficiency_ln>  (83) 
-1.26668

>  <r_i_glide_gscore>  (83) 
-4.77866

>  <r_i_glide_lipo>  (83) 
-0.419451

>  <r_i_glide_hbond>  (83) 
-0.16

>  <r_i_glide_metal>  (83) 
-0

>  <r_i_glide_rewards>  (83) 
-1.98488

>  <r_i_glide_evdw>  (83) 
-20.7684

>  <r_i_glide_ecoul>  (83) 
-8.76572

>  <r_i_glide_erotb>  (83) 
0.349987

>  <r_i_glide_esite>  (83) 
-0.211045

>  <r_i_glide_emodel>  (83) 
-38.2084

>  <r_i_glide_energy>  (83) 
-29.5341

>  <r_i_glide_einternal>  (83) 
2.01847

>  <r_i_glide_intrahb_reward>  (83) 
-0

>  <i_i_glide_confnum>  (83) 
3

>  <i_i_glide_posenum>  (83) 
21

>  <r_i_glide_eff_state_penalty>  (83) 
0

>  <ligand_id>  (83) 
26

>  <original_smiles>  (83) 
ON1C(c2cccnn2)=NCC12CCCC2

>  <smiles>  (83) 
[H]ON1C(c2nnc([H])c([H])c2[H])=[N+]([H])C([H])([H])C12C([H])([H])C([H])([H])C([H])([H])C2([H])[H]

$$$$
26:1:1
     RDKit          3D

 31 33  0  0  1  0  0  0  0  0999 V2000
    2.3442   -3.0514   -1.0649 O   0  0  0  0  0  0  0  0  0  0  0  0
    3.4887   -2.3959   -0.6225 N   0  0  0  0  0  0  0  0  0  0  0  0
    3.7836   -2.4249    0.6734 C   0  0  0  0  0  0  0  0  0  0  0  0
    2.9356   -2.7901    1.7844 C   0  0  0  0  0  0  0  0  0  0  0  0
    2.5366   -1.8242    2.7170 C   0  0  0  0  0  0  0  0  0  0  0  0
    1.7063   -2.2515    3.7633 C   0  0  0  0  0  0  0  0  0  0  0  0
    1.3569   -3.6265    3.7992 C   0  0  0  0  0  0  0  0  0  0  0  0
    1.8135   -4.5091    2.8785 N   0  0  0  0  0  0  0  0  0  0  0  0
    2.5956   -4.0973    1.8869 N   0  0  0  0  0  0  0  0  0  0  0  0
    5.0512   -1.9976    0.7391 N   0  0  0  0  0  0  0  0  0  0  0  0
    5.6480   -1.7511   -0.5894 C   0  0  0  0  0  0  0  0  0  0  0  0
    4.5518   -2.1384   -1.5958 C   0  0  0  0  0  0  0  0  0  0  0  0
    4.8617   -3.3613   -2.4673 C   0  0  0  0  0  0  0  0  0  0  0  0
    4.0097   -3.2471   -3.6952 C   0  0  0  0  0  0  0  0  0  0  0  0
    3.7940   -1.7309   -3.8879 C   0  0  0  0  0  0  0  0  0  0  0  0
    4.2323   -1.0340   -2.5928 C   0  0  0  0  0  0  0  0  0  0  0  0
    1.7206   -2.3230   -1.1279 H   0  0  0  0  0  0  0  0  0  0  0  0
    2.8518   -0.7966    2.6079 H   0  0  0  0  0  0  0  0  0  0  0  0
    1.3277   -1.5667    4.5082 H   0  0  0  0  0  0  0  0  0  0  0  0
    0.6944   -4.0428    4.5421 H   0  0  0  0  0  0  0  0  0  0  0  0
    5.8811   -0.6890   -0.6242 H   0  0  0  0  0  0  0  0  0  0  0  0
    6.5842   -2.3111   -0.7040 H   0  0  0  0  0  0  0  0  0  0  0  0
    5.9123   -3.4402   -2.7577 H   0  0  0  0  0  0  0  0  0  0  0  0
    4.5500   -4.2376   -1.9185 H   0  0  0  0  0  0  0  0  0  0  0  0
    4.4922   -3.7487   -4.5342 H   0  0  0  0  0  0  0  0  0  0  0  0
    3.0447   -3.7240   -3.5289 H   0  0  0  0  0  0  0  0  0  0  0  0
    4.3846   -1.3585   -4.7360 H   0  0  0  0  0  0  0  0  0  0  0  0
    2.7312   -1.5133   -4.0538 H   0  0  0  0  0  0  0  0  0  0  0  0
    3.4747   -0.3298   -2.2440 H   0  0  0  0  0  0  0  0  0  0  0  0
    5.1382   -0.4779   -2.7910 H   0  0  0  0  0  0  0  0  0  0  0  0
    5.5718   -1.8988    1.5960 H   0  0  0  0  0  0  0  0  0  0  0  0
  1  2  1  0
  1 17  1  0
  2 12  1  0
  2  3  1  0
  3  4  1  0
  3 10  2  0
  4  9  1  0
  4  5  2  0
  5  6  1  0
  5 18  1  0
  6  7  2  0
  6 19  1  0
  7  8  1  0
  7 20  1  0
  8  9  2  0
 10 11  1  0
 10 31  1  0
 11 12  1  0
 11 21  1  0
 11 22  1  0
 12 16  1  0
 12 13  1  0
 13 14  1  0
 13 23  1  0
 13 24  1  0
 14 15  1  0
 14 25  1  0
 14 26  1  0
 15 16  1  0
 15 27  1  0
 15 28  1  0
 16 29  1  0
 16 30  1  0
M  CHG  1  10   1
M  END
>  <i_m_ct_stereo_status>  (84) 
1

>  <s_m_source_file>  (84) 
/var/tmp/pbs.5076255.sched01/tmpyb5u0fxv/0ob_ovo1_.sdf

>  <i_m_source_file_index>  (84) 
40

>  <i_lp_mmshare_version>  (84) 
48012

>  <i_f3d_flags>  (84) 
0

>  <s_epik_input>  (84) 
W0NIMl0xW0NIMl1bQ0gyXVtDSDJdQzEyTihbT0hdKUMoPU5bQ0gyXTIpYzNbY0hdW2NIXVtjSF1ubjM=

>  <s_epik_cmdline>  (84) 
J2VwaWtfcHl0aG9uJywgJy1waHQnLCAnMi4wJywgJy1waCcsICc3LjAnLCAnLXRuJywgJzgnLCAnLW1hJywgJzIwMCcsICctaW1hZScsICc8aW5maWxlLm1hZT4nLCAnLW9tYWUnLCAnPG91dGZpbGUubWFlPic=

>  <r_lp_tautomer_probability>  (84) 
1

>  <r_epik_Ionization_Penalty>  (84) 
0.021208

>  <r_epik_Ionization_Penalty_Charging>  (84) 
0.0199682

>  <r_epik_Ionization_Penalty_Neutral>  (84) 
0.0012398

>  <r_epik_State_Penalty>  (84) 
0.58162

>  <r_epik_Charging_Adjusted_Penalty>  (84) 
0.601588

>  <i_epik_Tot_Q>  (84) 
1

>  <i_epik_Tot_abs_Q>  (84) 
1

>  <s_epik_Chemistry_Notes>  (84) 
This compound has an imine and may undergo hydrolysis. This compound has a N-S or N-O group and may undergo hydrolysis at high or low pH.

>  <s_lp_Force_Field>  (84) 
OPLS3e

>  <r_lp_Energy>  (84) 
36.4606

>  <b_lp_Chiralities_Consistent>  (84) 
1

>  <s_lp_Variant>  (84) 
26:0-2

>  <s_i_glide_gridfile>  (84) 
pfpi4k_grid

>  <i_i_glide_lignum>  (84) 
40

>  <i_i_glide_rotatable_bonds>  (84) 
2

>  <r_i_docking_score>  (84) 
-4.19802

>  <r_i_glide_ligand_efficiency>  (84) 
-0.262377

>  <r_i_glide_ligand_efficiency_sa>  (84) 
-0.661147

>  <r_i_glide_ligand_efficiency_ln>  (84) 
-1.11277

>  <r_i_glide_gscore>  (84) 
-4.19802

>  <r_i_glide_lipo>  (84) 
-0.422213

>  <r_i_glide_hbond>  (84) 
-0.16

>  <r_i_glide_metal>  (84) 
-0

>  <r_i_glide_rewards>  (84) 
-1.91412

>  <r_i_glide_evdw>  (84) 
-19.7952

>  <r_i_glide_ecoul>  (84) 
-6.46395

>  <r_i_glide_erotb>  (84) 
0.349987

>  <r_i_glide_esite>  (84) 
-0.0923279

>  <r_i_glide_emodel>  (84) 
-34.3685

>  <r_i_glide_energy>  (84) 
-26.2592

>  <r_i_glide_einternal>  (84) 
0.537874

>  <r_i_glide_intrahb_reward>  (84) 
-0

>  <i_i_glide_confnum>  (84) 
3

>  <i_i_glide_posenum>  (84) 
23

>  <r_i_glide_eff_state_penalty>  (84) 
0

>  <ligand_id>  (84) 
26

>  <original_smiles>  (84) 
ON1C(c2cccnn2)=NCC12CCCC2

>  <smiles>  (84) 
[H]ON1C(c2nnc([H])c([H])c2[H])=[N+]([H])C([H])([H])C12C([H])([H])C([H])([H])C([H])([H])C2([H])[H]

$$$$
26:1:2
     RDKit          3D

 31 33  0  0  1  0  0  0  0  0999 V2000
    2.3413   -3.3501   -1.4100 O   0  0  0  0  0  0  0  0  0  0  0  0
    3.6772   -3.2863   -1.0642 N   0  0  0  0  0  0  0  0  0  0  0  0
    4.2008   -4.2134   -0.2604 C   0  0  0  0  0  0  0  0  0  0  0  0
    3.5169   -5.1805    0.5939 C   0  0  0  0  0  0  0  0  0  0  0  0
    3.9429   -6.5198    0.6310 C   0  0  0  0  0  0  0  0  0  0  0  0
    3.2081   -7.3907    1.4572 C   0  0  0  0  0  0  0  0  0  0  0  0
    2.1214   -6.8368    2.1701 C   0  0  0  0  0  0  0  0  0  0  0  0
    1.7906   -5.5300    2.1148 N   0  0  0  0  0  0  0  0  0  0  0  0
    2.5030   -4.6941    1.3529 N   0  0  0  0  0  0  0  0  0  0  0  0
    5.5197   -4.1121   -0.4335 N   0  0  0  0  0  0  0  0  0  0  0  0
    5.9135   -3.0818   -1.4146 C   0  0  0  0  0  0  0  0  0  0  0  0
    4.5717   -2.5773   -1.9815 C   0  0  0  0  0  0  0  0  0  0  0  0
    4.3197   -2.9390   -3.4348 C   0  0  0  0  0  0  0  0  0  0  0  0
    3.3268   -1.9253   -3.9559 C   0  0  0  0  0  0  0  0  0  0  0  0
    3.5349   -0.6758   -3.1102 C   0  0  0  0  0  0  0  0  0  0  0  0
    4.4126   -1.0638   -1.9211 C   0  0  0  0  0  0  0  0  0  0  0  0
    1.9851   -2.5226   -1.1027 H   0  0  0  0  0  0  0  0  0  0  0  0
    4.7682   -6.8603    0.0154 H   0  0  0  0  0  0  0  0  0  0  0  0
    3.4393   -8.4378    1.5218 H   0  0  0  0  0  0  0  0  0  0  0  0
    1.4805   -7.4306    2.8050 H   0  0  0  0  0  0  0  0  0  0  0  0
    6.4328   -2.2869   -0.8630 H   0  0  0  0  0  0  0  0  0  0  0  0
    6.6139   -3.4749   -2.1715 H   0  0  0  0  0  0  0  0  0  0  0  0
    5.2347   -2.9238   -4.0075 H   0  0  0  0  0  0  0  0  0  0  0  0
    3.8917   -3.9211   -3.5037 H   0  0  0  0  0  0  0  0  0  0  0  0
    3.4676   -1.7428   -5.0187 H   0  0  0  0  0  0  0  0  0  0  0  0
    2.3154   -2.3008   -3.8205 H   0  0  0  0  0  0  0  0  0  0  0  0
    4.0201    0.1137   -3.6770 H   0  0  0  0  0  0  0  0  0  0  0  0
    2.5896   -0.3076   -2.7360 H   0  0  0  0  0  0  0  0  0  0  0  0
    3.9927   -0.7401   -0.9604 H   0  0  0  0  0  0  0  0  0  0  0  0
    5.3790   -0.5808   -2.0452 H   0  0  0  0  0  0  0  0  0  0  0  0
    6.2064   -4.6275    0.0794 H   0  0  0  0  0  0  0  0  0  0  0  0
  1  2  1  0
  1 17  1  0
  2 12  1  0
  2  3  1  0
  3  4  1  0
  3 10  2  0
  4  9  1  0
  4  5  2  0
  5  6  1  0
  5 18  1  0
  6  7  2  0
  6 19  1  0
  7  8  1  0
  7 20  1  0
  8  9  2  0
 10 11  1  0
 10 31  1  0
 11 12  1  0
 11 21  1  0
 11 22  1  0
 12 16  1  0
 12 13  1  0
 13 14  1  0
 13 23  1  0
 13 24  1  0
 14 15  1  0
 14 25  1  0
 14 26  1  0
 15 16  1  0
 15 27  1  0
 15 28  1  0
 16 29  1  0
 16 30  1  0
M  CHG  1  10   1
M  END
>  <i_m_ct_stereo_status>  (85) 
1

>  <s_m_source_file>  (85) 
/var/tmp/pbs.5076255.sched01/tmpyb5u0fxv/0ob_ovo1_.sdf

>  <i_m_source_file_index>  (85) 
40

>  <i_lp_mmshare_version>  (85) 
48012

>  <i_f3d_flags>  (85) 
0

>  <s_epik_input>  (85) 
W0NIMl0xW0NIMl1bQ0gyXVtDSDJdQzEyTihbT0hdKUMoPU5bQ0gyXTIpYzNbY0hdW2NIXVtjSF1ubjM=

>  <s_epik_cmdline>  (85) 
J2VwaWtfcHl0aG9uJywgJy1waHQnLCAnMi4wJywgJy1waCcsICc3LjAnLCAnLXRuJywgJzgnLCAnLW1hJywgJzIwMCcsICctaW1hZScsICc8aW5maWxlLm1hZT4nLCAnLW9tYWUnLCAnPG91dGZpbGUubWFlPic=

>  <r_lp_tautomer_probability>  (85) 
1

>  <r_epik_Ionization_Penalty>  (85) 
0.021208

>  <r_epik_Ionization_Penalty_Charging>  (85) 
0.0199682

>  <r_epik_Ionization_Penalty_Neutral>  (85) 
0.0012398

>  <r_epik_State_Penalty>  (85) 
0.58162

>  <r_epik_Charging_Adjusted_Penalty>  (85) 
0.601588

>  <i_epik_Tot_Q>  (85) 
1

>  <i_epik_Tot_abs_Q>  (85) 
1

>  <s_epik_Chemistry_Notes>  (85) 
This compound has an imine and may undergo hydrolysis. This compound has a N-S or N-O group and may undergo hydrolysis at high or low pH.

>  <s_lp_Force_Field>  (85) 
OPLS3e

>  <r_lp_Energy>  (85) 
36.4606

>  <b_lp_Chiralities_Consistent>  (85) 
1

>  <s_lp_Variant>  (85) 
26:0-2

>  <s_i_glide_gridfile>  (85) 
pfpi4k_grid

>  <i_i_glide_lignum>  (85) 
40

>  <i_i_glide_rotatable_bonds>  (85) 
2

>  <r_i_docking_score>  (85) 
-4.14456

>  <r_i_glide_ligand_efficiency>  (85) 
-0.259035

>  <r_i_glide_ligand_efficiency_sa>  (85) 
-0.652727

>  <r_i_glide_ligand_efficiency_ln>  (85) 
-1.0986

>  <r_i_glide_gscore>  (85) 
-4.14456

>  <r_i_glide_lipo>  (85) 
-0.578776

>  <r_i_glide_hbond>  (85) 
-0.16

>  <r_i_glide_metal>  (85) 
-0

>  <r_i_glide_rewards>  (85) 
-1.95486

>  <r_i_glide_evdw>  (85) 
-22.309

>  <r_i_glide_ecoul>  (85) 
-4.06915

>  <r_i_glide_erotb>  (85) 
0.349987

>  <r_i_glide_esite>  (85) 
-0.0750907

>  <r_i_glide_emodel>  (85) 
-34.4513

>  <r_i_glide_energy>  (85) 
-26.3782

>  <r_i_glide_einternal>  (85) 
0.80887

>  <r_i_glide_intrahb_reward>  (85) 
-0

>  <i_i_glide_confnum>  (85) 
2

>  <i_i_glide_posenum>  (85) 
11

>  <r_i_glide_eff_state_penalty>  (85) 
0

>  <ligand_id>  (85) 
26

>  <original_smiles>  (85) 
ON1C(c2cccnn2)=NCC12CCCC2

>  <smiles>  (85) 
[H]ON1C(c2nnc([H])c([H])c2[H])=[N+]([H])C([H])([H])C12C([H])([H])C([H])([H])C([H])([H])C2([H])[H]

$$$$
27:0:0
     RDKit          3D

 21 22  0  0  1  0  0  0  0  0999 V2000
   -4.8712   -8.9005   -4.9963 C   0  0  0  0  0  0  0  0  0  0  0  0
   -4.3006   -7.5384   -5.4089 C   0  0  0  0  0  0  0  0  0  0  0  0
   -4.9843   -6.4600   -4.7674 O   0  0  0  0  0  0  0  0  0  0  0  0
   -6.1919   -6.0092   -5.2737 C   0  0  0  0  0  0  0  0  0  0  0  0
   -6.7378   -4.8590   -4.6552 C   0  0  0  0  0  0  0  0  0  0  0  0
   -7.9080   -4.3275   -5.1398 C   0  0  0  0  0  0  0  0  0  0  0  0
   -8.5325   -4.9435   -6.2506 C   0  0  0  0  0  0  0  0  0  0  0  0
   -9.6351   -4.6814   -6.9530 N   0  0  0  0  0  0  0  0  0  0  0  0
   -9.7127   -5.6816   -7.9165 C   0  0  0  0  0  0  0  0  0  0  0  0
   -8.6450   -6.5327   -7.8218 C   0  0  0  0  0  0  0  0  0  0  0  0
   -7.8786   -6.0897   -6.7563 N   0  0  0  0  0  0  0  0  0  0  0  0
   -6.7291   -6.6640   -6.3113 N   0  0  0  0  0  0  0  0  0  0  0  0
   -4.3353   -9.7100   -5.4897 H   0  0  0  0  0  0  0  0  0  0  0  0
   -5.9237   -8.9887   -5.2604 H   0  0  0  0  0  0  0  0  0  0  0  0
   -4.7791   -9.0496   -3.9216 H   0  0  0  0  0  0  0  0  0  0  0  0
   -3.2538   -7.4850   -5.1130 H   0  0  0  0  0  0  0  0  0  0  0  0
   -4.2925   -7.4219   -6.4923 H   0  0  0  0  0  0  0  0  0  0  0  0
   -6.2270   -4.3919   -3.8186 H   0  0  0  0  0  0  0  0  0  0  0  0
   -8.3529   -3.4474   -4.7016 H   0  0  0  0  0  0  0  0  0  0  0  0
  -10.5450   -5.7059   -8.6024 H   0  0  0  0  0  0  0  0  0  0  0  0
   -8.3518   -7.4129   -8.3745 H   0  0  0  0  0  0  0  0  0  0  0  0
  1  2  1  0
  1 13  1  0
  1 14  1  0
  1 15  1  0
  2  3  1  0
  2 16  1  0
  2 17  1  0
  3  4  1  0
  4 12  2  0
  4  5  1  0
  5  6  2  0
  5 18  1  0
  6  7  1  0
  6 19  1  0
  7 11  1  0
  7  8  2  0
  8  9  1  0
  9 10  2  0
  9 20  1  0
 10 11  1  0
 10 21  1  0
 11 12  1  0
M  END
>  <i_m_ct_stereo_status>  (86) 
1

>  <s_m_source_file>  (86) 
/var/tmp/pbs.5076255.sched01/tmpyb5u0fxv/0ob_ovo1_.sdf

>  <i_m_source_file_index>  (86) 
41

>  <i_lp_mmshare_version>  (86) 
48012

>  <i_f3d_flags>  (86) 
0

>  <s_epik_input>  (86) 
W0NIM11bQ0gyXU9jKFtjSF1bY0hdMSlubihjMTIpW2NIXVtjSF1uMg==

>  <s_epik_cmdline>  (86) 
J2VwaWtfcHl0aG9uJywgJy1waHQnLCAnMi4wJywgJy1waCcsICc3LjAnLCAnLXRuJywgJzgnLCAnLW1hJywgJzIwMCcsICctaW1hZScsICc8aW5maWxlLm1hZT4nLCAnLW9tYWUnLCAnPG91dGZpbGUubWFlPic=

>  <r_lp_tautomer_probability>  (86) 
1

>  <r_epik_Ionization_Penalty>  (86) 
0.00124836

>  <r_epik_Ionization_Penalty_Charging>  (86) 
0

>  <r_epik_Ionization_Penalty_Neutral>  (86) 
0.00124836

>  <r_epik_State_Penalty>  (86) 
0.000825829

>  <r_epik_Charging_Adjusted_Penalty>  (86) 
0.000825829

>  <i_epik_Tot_Q>  (86) 
0

>  <i_epik_Tot_abs_Q>  (86) 
0

>  <s_lp_Force_Field>  (86) 
OPLS3e

>  <r_lp_Energy>  (86) 
11.611

>  <b_lp_Chiralities_Consistent>  (86) 
1

>  <s_lp_Variant>  (86) 
27:0-1

>  <s_i_glide_gridfile>  (86) 
pfpi4k_grid

>  <i_i_glide_lignum>  (86) 
41

>  <i_i_glide_rotatable_bonds>  (86) 
2

>  <r_i_docking_score>  (86) 
-6.21656

>  <r_i_glide_ligand_efficiency>  (86) 
-0.518047

>  <r_i_glide_ligand_efficiency_sa>  (86) 
-1.18603

>  <r_i_glide_ligand_efficiency_ln>  (86) 
-1.78385

>  <r_i_glide_gscore>  (86) 
-6.21656

>  <r_i_glide_lipo>  (86) 
-1.38209

>  <r_i_glide_hbond>  (86) 
-0.32

>  <r_i_glide_metal>  (86) 
-0

>  <r_i_glide_rewards>  (86) 
-2.99373

>  <r_i_glide_evdw>  (86) 
-23.9339

>  <r_i_glide_ecoul>  (86) 
-2.16033

>  <r_i_glide_erotb>  (86) 
0

>  <r_i_glide_esite>  (86) 
0

>  <r_i_glide_emodel>  (86) 
-35.6939

>  <r_i_glide_energy>  (86) 
-26.0942

>  <r_i_glide_einternal>  (86) 
0.306636

>  <r_i_glide_intrahb_reward>  (86) 
-0

>  <i_i_glide_confnum>  (86) 
1

>  <i_i_glide_posenum>  (86) 
7

>  <r_i_glide_eff_state_penalty>  (86) 
0

>  <ligand_id>  (86) 
27

>  <original_smiles>  (86) 
CCOc1ccc2nccn2n1

>  <smiles>  (86) 
[H]c1nc2c([H])c([H])c(OC([H])([H])C([H])([H])[H])nn2c1[H]

$$$$
27:0:1
     RDKit          3D

 21 22  0  0  1  0  0  0  0  0999 V2000
   -5.8000   -6.1072   -4.3132 C   0  0  0  0  0  0  0  0  0  0  0  0
   -5.9544   -4.6312   -4.7219 C   0  0  0  0  0  0  0  0  0  0  0  0
   -7.3147   -4.2174   -4.6677 O   0  0  0  0  0  0  0  0  0  0  0  0
   -8.1712   -4.5167   -5.7063 C   0  0  0  0  0  0  0  0  0  0  0  0
   -9.4168   -3.8535   -5.6917 C   0  0  0  0  0  0  0  0  0  0  0  0
  -10.3184   -4.0910   -6.6960 C   0  0  0  0  0  0  0  0  0  0  0  0
   -9.9677   -5.0155   -7.7126 C   0  0  0  0  0  0  0  0  0  0  0  0
  -10.5834   -5.4596   -8.8061 N   0  0  0  0  0  0  0  0  0  0  0  0
   -9.7033   -6.3618   -9.3963 C   0  0  0  0  0  0  0  0  0  0  0  0
   -8.5466   -6.4600   -8.6741 C   0  0  0  0  0  0  0  0  0  0  0  0
   -8.6889   -5.6049   -7.5939 N   0  0  0  0  0  0  0  0  0  0  0  0
   -7.7608   -5.3909   -6.6317 N   0  0  0  0  0  0  0  0  0  0  0  0
   -4.7577   -6.4202   -4.3527 H   0  0  0  0  0  0  0  0  0  0  0  0
   -6.3560   -6.7736   -4.9697 H   0  0  0  0  0  0  0  0  0  0  0  0
   -6.1760   -6.2706   -3.3022 H   0  0  0  0  0  0  0  0  0  0  0  0
   -5.4183   -3.9911   -4.0227 H   0  0  0  0  0  0  0  0  0  0  0  0
   -5.5131   -4.4193   -5.6981 H   0  0  0  0  0  0  0  0  0  0  0  0
   -9.6535   -3.1461   -4.9043 H   0  0  0  0  0  0  0  0  0  0  0  0
  -11.2810   -3.5894   -6.7112 H   0  0  0  0  0  0  0  0  0  0  0  0
   -9.9845   -6.8677  -10.3094 H   0  0  0  0  0  0  0  0  0  0  0  0
   -7.6412   -7.0331   -8.7970 H   0  0  0  0  0  0  0  0  0  0  0  0
  1  2  1  0
  1 13  1  0
  1 14  1  0
  1 15  1  0
  2  3  1  0
  2 16  1  0
  2 17  1  0
  3  4  1  0
  4 12  2  0
  4  5  1  0
  5  6  2  0
  5 18  1  0
  6  7  1  0
  6 19  1  0
  7 11  1  0
  7  8  2  0
  8  9  1  0
  9 10  2  0
  9 20  1  0
 10 11  1  0
 10 21  1  0
 11 12  1  0
M  END
>  <i_m_ct_stereo_status>  (87) 
1

>  <s_m_source_file>  (87) 
/var/tmp/pbs.5076255.sched01/tmpyb5u0fxv/0ob_ovo1_.sdf

>  <i_m_source_file_index>  (87) 
41

>  <i_lp_mmshare_version>  (87) 
48012

>  <i_f3d_flags>  (87) 
0

>  <s_epik_input>  (87) 
W0NIM11bQ0gyXU9jKFtjSF1bY0hdMSlubihjMTIpW2NIXVtjSF1uMg==

>  <s_epik_cmdline>  (87) 
J2VwaWtfcHl0aG9uJywgJy1waHQnLCAnMi4wJywgJy1waCcsICc3LjAnLCAnLXRuJywgJzgnLCAnLW1hJywgJzIwMCcsICctaW1hZScsICc8aW5maWxlLm1hZT4nLCAnLW9tYWUnLCAnPG91dGZpbGUubWFlPic=

>  <r_lp_tautomer_probability>  (87) 
1

>  <r_epik_Ionization_Penalty>  (87) 
0.00124836

>  <r_epik_Ionization_Penalty_Charging>  (87) 
0

>  <r_epik_Ionization_Penalty_Neutral>  (87) 
0.00124836

>  <r_epik_State_Penalty>  (87) 
0.000825829

>  <r_epik_Charging_Adjusted_Penalty>  (87) 
0.000825829

>  <i_epik_Tot_Q>  (87) 
0

>  <i_epik_Tot_abs_Q>  (87) 
0

>  <s_lp_Force_Field>  (87) 
OPLS3e

>  <r_lp_Energy>  (87) 
11.611

>  <b_lp_Chiralities_Consistent>  (87) 
1

>  <s_lp_Variant>  (87) 
27:0-1

>  <s_i_glide_gridfile>  (87) 
pfpi4k_grid

>  <i_i_glide_lignum>  (87) 
41

>  <i_i_glide_rotatable_bonds>  (87) 
2

>  <r_i_docking_score>  (87) 
-5.11351

>  <r_i_glide_ligand_efficiency>  (87) 
-0.426126

>  <r_i_glide_ligand_efficiency_sa>  (87) 
-0.975585

>  <r_i_glide_ligand_efficiency_ln>  (87) 
-1.46733

>  <r_i_glide_gscore>  (87) 
-5.11351

>  <r_i_glide_lipo>  (87) 
-1.5281

>  <r_i_glide_hbond>  (87) 
-0.0274114

>  <r_i_glide_metal>  (87) 
-0

>  <r_i_glide_rewards>  (87) 
-2.51993

>  <r_i_glide_evdw>  (87) 
-22.7584

>  <r_i_glide_ecoul>  (87) 
0.66569

>  <r_i_glide_erotb>  (87) 
0

>  <r_i_glide_esite>  (87) 
0

>  <r_i_glide_emodel>  (87) 
-29.8262

>  <r_i_glide_energy>  (87) 
-22.0928

>  <r_i_glide_einternal>  (87) 
0.487443

>  <r_i_glide_intrahb_reward>  (87) 
-0

>  <i_i_glide_confnum>  (87) 
2

>  <i_i_glide_posenum>  (87) 
11

>  <r_i_glide_eff_state_penalty>  (87) 
0

>  <ligand_id>  (87) 
27

>  <original_smiles>  (87) 
CCOc1ccc2nccn2n1

>  <smiles>  (87) 
[H]c1nc2c([H])c([H])c(OC([H])([H])C([H])([H])[H])nn2c1[H]

$$$$
27:0:2
     RDKit          3D

 21 22  0  0  1  0  0  0  0  0999 V2000
   -6.9624   -4.5359   -4.1103 C   0  0  0  0  0  0  0  0  0  0  0  0
   -8.0365   -4.2524   -5.1548 C   0  0  0  0  0  0  0  0  0  0  0  0
   -7.5581   -4.7174   -6.4181 O   0  0  0  0  0  0  0  0  0  0  0  0
   -8.4351   -5.3949   -7.2373 C   0  0  0  0  0  0  0  0  0  0  0  0
   -9.8424   -5.1753   -7.1919 C   0  0  0  0  0  0  0  0  0  0  0  0
  -10.6591   -5.9518   -7.9794 C   0  0  0  0  0  0  0  0  0  0  0  0
  -10.0744   -6.8975   -8.8580 C   0  0  0  0  0  0  0  0  0  0  0  0
  -10.5791   -7.7596   -9.7358 N   0  0  0  0  0  0  0  0  0  0  0  0
   -9.4875   -8.4042  -10.2977 C   0  0  0  0  0  0  0  0  0  0  0  0
   -8.3149   -7.9384   -9.7671 C   0  0  0  0  0  0  0  0  0  0  0  0
   -8.6664   -6.9748   -8.8298 N   0  0  0  0  0  0  0  0  0  0  0  0
   -7.8159   -6.2617   -8.0493 N   0  0  0  0  0  0  0  0  0  0  0  0
   -7.3222   -4.2547   -3.1220 H   0  0  0  0  0  0  0  0  0  0  0  0
   -6.0497   -3.9790   -4.3206 H   0  0  0  0  0  0  0  0  0  0  0  0
   -6.7353   -5.6027   -4.0921 H   0  0  0  0  0  0  0  0  0  0  0  0
   -8.9330   -4.7708   -4.8209 H   0  0  0  0  0  0  0  0  0  0  0  0
   -8.2772   -3.1883   -5.2008 H   0  0  0  0  0  0  0  0  0  0  0  0
  -10.3006   -4.4463   -6.5332 H   0  0  0  0  0  0  0  0  0  0  0  0
  -11.7457   -5.8561   -7.9302 H   0  0  0  0  0  0  0  0  0  0  0  0
   -9.6448   -9.1622  -11.0506 H   0  0  0  0  0  0  0  0  0  0  0  0
   -7.2789   -8.1824   -9.9429 H   0  0  0  0  0  0  0  0  0  0  0  0
  1  2  1  0
  1 13  1  0
  1 14  1  0
  1 15  1  0
  2  3  1  0
  2 16  1  0
  2 17  1  0
  3  4  1  0
  4 12  2  0
  4  5  1  0
  5  6  2  0
  5 18  1  0
  6  7  1  0
  6 19  1  0
  7 11  1  0
  7  8  2  0
  8  9  1  0
  9 10  2  0
  9 20  1  0
 10 11  1  0
 10 21  1  0
 11 12  1  0
M  END
>  <i_m_ct_stereo_status>  (88) 
1

>  <s_m_source_file>  (88) 
/var/tmp/pbs.5076255.sched01/tmpyb5u0fxv/0ob_ovo1_.sdf

>  <i_m_source_file_index>  (88) 
41

>  <i_lp_mmshare_version>  (88) 
48012

>  <i_f3d_flags>  (88) 
0

>  <s_epik_input>  (88) 
W0NIM11bQ0gyXU9jKFtjSF1bY0hdMSlubihjMTIpW2NIXVtjSF1uMg==

>  <s_epik_cmdline>  (88) 
J2VwaWtfcHl0aG9uJywgJy1waHQnLCAnMi4wJywgJy1waCcsICc3LjAnLCAnLXRuJywgJzgnLCAnLW1hJywgJzIwMCcsICctaW1hZScsICc8aW5maWxlLm1hZT4nLCAnLW9tYWUnLCAnPG91dGZpbGUubWFlPic=

>  <r_lp_tautomer_probability>  (88) 
1

>  <r_epik_Ionization_Penalty>  (88) 
0.00124836

>  <r_epik_Ionization_Penalty_Charging>  (88) 
0

>  <r_epik_Ionization_Penalty_Neutral>  (88) 
0.00124836

>  <r_epik_State_Penalty>  (88) 
0.000825829

>  <r_epik_Charging_Adjusted_Penalty>  (88) 
0.000825829

>  <i_epik_Tot_Q>  (88) 
0

>  <i_epik_Tot_abs_Q>  (88) 
0

>  <s_lp_Force_Field>  (88) 
OPLS3e

>  <r_lp_Energy>  (88) 
11.611

>  <b_lp_Chiralities_Consistent>  (88) 
1

>  <s_lp_Variant>  (88) 
27:0-1

>  <s_i_glide_gridfile>  (88) 
pfpi4k_grid

>  <i_i_glide_lignum>  (88) 
41

>  <i_i_glide_rotatable_bonds>  (88) 
2

>  <r_i_docking_score>  (88) 
-4.68804

>  <r_i_glide_ligand_efficiency>  (88) 
-0.39067

>  <r_i_glide_ligand_efficiency_sa>  (88) 
-0.89441

>  <r_i_glide_ligand_efficiency_ln>  (88) 
-1.34524

>  <r_i_glide_gscore>  (88) 
-4.68804

>  <r_i_glide_lipo>  (88) 
-1.26621

>  <r_i_glide_hbond>  (88) 
0

>  <r_i_glide_metal>  (88) 
-0

>  <r_i_glide_rewards>  (88) 
-2.40613

>  <r_i_glide_evdw>  (88) 
-17.6068

>  <r_i_glide_ecoul>  (88) 
-0.89693

>  <r_i_glide_erotb>  (88) 
0

>  <r_i_glide_esite>  (88) 
-0.000811968

>  <r_i_glide_emodel>  (88) 
-22.1222

>  <r_i_glide_energy>  (88) 
-18.5038

>  <r_i_glide_einternal>  (88) 
7.18787

>  <r_i_glide_intrahb_reward>  (88) 
-0

>  <i_i_glide_confnum>  (88) 
1

>  <i_i_glide_posenum>  (88) 
4

>  <r_i_glide_eff_state_penalty>  (88) 
0

>  <ligand_id>  (88) 
27

>  <original_smiles>  (88) 
CCOc1ccc2nccn2n1

>  <smiles>  (88) 
[H]c1nc2c([H])c([H])c(OC([H])([H])C([H])([H])[H])nn2c1[H]

$$$$
28:0:0
     RDKit          3D

 30 32  0  0  1  0  0  0  0  0999 V2000
    7.1195   -6.6198    1.2859 C   0  0  0  0  0  0  0  0  0  0  0  0
    6.0618   -7.7058    1.5492 C   0  0  0  0  0  0  0  0  0  0  0  0
    4.7070   -7.2084    1.3931 N   0  0  0  0  0  0  0  0  0  0  0  0
    4.4835   -5.9769    0.8431 N   0  0  0  0  0  0  0  0  0  0  0  0
    3.1685   -5.7985    0.8662 C   0  0  0  0  0  0  0  0  0  0  0  0
    2.5415   -6.9451    1.4402 C   0  0  0  0  0  0  0  0  0  0  0  0
    1.1250   -7.2784    1.7033 C   0  0  0  0  0  0  0  0  0  0  0  0
    0.2464   -6.4733    1.4024 O   0  0  0  0  0  0  0  0  0  0  0  0
    0.9371   -8.5050    2.2964 N   0  0  0  0  0  0  0  0  0  0  0  0
   -0.4735   -8.8150    2.5548 C   0  0  0  0  0  0  0  0  0  0  0  0
    2.0709   -9.3607    2.5916 C   0  0  0  0  0  0  0  0  0  0  0  0
    1.8189  -10.7322    3.2697 C   0  0  0  0  0  0  0  0  0  0  0  0
    0.6368  -11.5829    2.9157 C   0  0  0  0  0  0  0  0  0  0  0  0
    0.7613  -10.9253    4.3047 C   0  0  0  0  0  0  0  0  0  0  0  0
    3.3173   -9.0498    2.3353 N   0  0  0  0  0  0  0  0  0  0  0  0
    3.5248   -7.8077    1.7526 C   0  0  0  0  0  0  0  0  0  0  0  0
    8.1297   -7.0031    1.4135 H   0  0  0  0  0  0  0  0  0  0  0  0
    6.9762   -5.7824    1.9715 H   0  0  0  0  0  0  0  0  0  0  0  0
    7.0265   -6.2358    0.2686 H   0  0  0  0  0  0  0  0  0  0  0  0
    6.2003   -8.5508    0.8774 H   0  0  0  0  0  0  0  0  0  0  0  0
    6.1691   -8.0891    2.5627 H   0  0  0  0  0  0  0  0  0  0  0  0
    2.7077   -4.8980    0.4979 H   0  0  0  0  0  0  0  0  0  0  0  0
   -0.7772   -9.7447    3.0165 H   0  0  0  0  0  0  0  0  0  0  0  0
   -1.0087   -8.8075    1.6242 H   0  0  0  0  0  0  0  0  0  0  0  0
   -0.8749   -8.0618    3.2092 H   0  0  0  0  0  0  0  0  0  0  0  0
    2.7728  -11.2413    3.4272 H   0  0  0  0  0  0  0  0  0  0  0  0
    0.0575  -11.1909    2.0940 H   0  0  0  0  0  0  0  0  0  0  0  0
    0.7664  -12.6547    2.8912 H   0  0  0  0  0  0  0  0  0  0  0  0
    0.9543  -11.5988    5.1264 H   0  0  0  0  0  0  0  0  0  0  0  0
    0.2587  -10.0110    4.5974 H   0  0  0  0  0  0  0  0  0  0  0  0
  1  2  1  0
  1 17  1  0
  1 18  1  0
  1 19  1  0
  2  3  1  0
  2 20  1  0
  2 21  1  0
  3 16  1  0
  3  4  1  0
  4  5  2  0
  5  6  1  0
  5 22  1  0
  6 16  2  0
  6  7  1  0
  7  8  2  0
  7  9  1  0
  9 10  1  0
  9 11  1  0
 10 23  1  0
 10 24  1  0
 10 25  1  0
 11 12  1  0
 11 15  2  0
 12 14  1  0
 12 13  1  0
 12 26  1  0
 13 14  1  0
 13 27  1  0
 13 28  1  0
 14 29  1  0
 14 30  1  0
 15 16  1  0
M  END
>  <i_m_ct_stereo_status>  (89) 
1

>  <s_m_source_file>  (89) 
/var/tmp/pbs.5076255.sched01/tmpyb5u0fxv/0ob_ovo1_.sdf

>  <i_m_source_file_index>  (89) 
42

>  <i_lp_mmshare_version>  (89) 
48012

>  <i_f3d_flags>  (89) 
0

>  <s_epik_input>  (89) 
W0NIM11bQ0gyXW4obltjSF0xKWMoYzEyKW5jKG4oYzI9TylbQ0gzXSlbQ0hdM1tDSDJdW0NIMl0z

>  <s_epik_cmdline>  (89) 
J2VwaWtfcHl0aG9uJywgJy1waHQnLCAnMi4wJywgJy1waCcsICc3LjAnLCAnLXRuJywgJzgnLCAnLW1hJywgJzIwMCcsICctaW1hZScsICc8aW5maWxlLm1hZT4nLCAnLW9tYWUnLCAnPG91dGZpbGUubWFlPic=

>  <r_lp_tautomer_probability>  (89) 
1

>  <r_epik_Ionization_Penalty>  (89) 
0.000112625

>  <r_epik_Ionization_Penalty_Charging>  (89) 
2.63808e-08

>  <r_epik_Ionization_Penalty_Neutral>  (89) 
0.000112599

>  <r_epik_State_Penalty>  (89) 
-0

>  <r_epik_Charging_Adjusted_Penalty>  (89) 
2.63808e-08

>  <i_epik_Tot_Q>  (89) 
0

>  <i_epik_Tot_abs_Q>  (89) 
0

>  <s_lp_Force_Field>  (89) 
OPLS3e

>  <r_lp_Energy>  (89) 
26.5062

>  <b_lp_Chiralities_Consistent>  (89) 
1

>  <s_lp_Variant>  (89) 
28:0-1

>  <s_i_glide_gridfile>  (89) 
pfpi4k_grid

>  <i_i_glide_lignum>  (89) 
42

>  <i_i_glide_rotatable_bonds>  (89) 
2

>  <r_i_docking_score>  (89) 
-3.97716

>  <r_i_glide_ligand_efficiency>  (89) 
-0.248572

>  <r_i_glide_ligand_efficiency_sa>  (89) 
-0.626363

>  <r_i_glide_ligand_efficiency_ln>  (89) 
-1.05423

>  <r_i_glide_gscore>  (89) 
-3.97716

>  <r_i_glide_lipo>  (89) 
-0.326831

>  <r_i_glide_hbond>  (89) 
-0.18872

>  <r_i_glide_metal>  (89) 
-0

>  <r_i_glide_rewards>  (89) 
-2.11381

>  <r_i_glide_evdw>  (89) 
-21.2027

>  <r_i_glide_ecoul>  (89) 
-4.10018

>  <r_i_glide_erotb>  (89) 
0.352717

>  <r_i_glide_esite>  (89) 
-0.0253544

>  <r_i_glide_emodel>  (89) 
-25.1561

>  <r_i_glide_energy>  (89) 
-25.3029

>  <r_i_glide_einternal>  (89) 
11.4127

>  <r_i_glide_intrahb_reward>  (89) 
-0

>  <i_i_glide_confnum>  (89) 
6

>  <i_i_glide_posenum>  (89) 
6

>  <r_i_glide_eff_state_penalty>  (89) 
0

>  <ligand_id>  (89) 
28

>  <original_smiles>  (89) 
CCn1ncc2c(=O)n(C)c(C3CC3)nc21

>  <smiles>  (89) 
[H]c1nn(C([H])([H])C([H])([H])[H])c2nc(C3([H])C([H])([H])C3([H])[H])n(C([H])([H])[H])c(=O)c12

$$$$
28:0:1
     RDKit          3D

 30 32  0  0  1  0  0  0  0  0999 V2000
   -3.1505    3.2335    7.5596 C   0  0  0  0  0  0  0  0  0  0  0  0
   -1.7092    2.7431    7.6837 C   0  0  0  0  0  0  0  0  0  0  0  0
   -1.3773    1.8386    6.5991 N   0  0  0  0  0  0  0  0  0  0  0  0
   -1.8093    0.5505    6.6254 N   0  0  0  0  0  0  0  0  0  0  0  0
   -1.3215   -0.0299    5.5251 C   0  0  0  0  0  0  0  0  0  0  0  0
   -0.5867    0.9298    4.7916 C   0  0  0  0  0  0  0  0  0  0  0  0
    0.1588    0.8184    3.5240 C   0  0  0  0  0  0  0  0  0  0  0  0
    0.2262   -0.2541    2.9380 O   0  0  0  0  0  0  0  0  0  0  0  0
    0.7526    1.9971    3.1407 N   0  0  0  0  0  0  0  0  0  0  0  0
    1.5053    1.9661    1.8640 C   0  0  0  0  0  0  0  0  0  0  0  0
    0.6423    3.1724    3.9449 C   0  0  0  0  0  0  0  0  0  0  0  0
    1.4064    4.3967    3.5004 C   0  0  0  0  0  0  0  0  0  0  0  0
    2.8997    4.4254    3.2656 C   0  0  0  0  0  0  0  0  0  0  0  0
    2.3200    5.1140    4.4749 C   0  0  0  0  0  0  0  0  0  0  0  0
   -0.0624    3.2722    5.0411 N   0  0  0  0  0  0  0  0  0  0  0  0
   -0.6493    2.0967    5.4571 C   0  0  0  0  0  0  0  0  0  0  0  0
   -3.3901    3.9332    8.3642 H   0  0  0  0  0  0  0  0  0  0  0  0
   -3.8515    2.4046    7.6186 H   0  0  0  0  0  0  0  0  0  0  0  0
   -3.3097    3.7323    6.6030 H   0  0  0  0  0  0  0  0  0  0  0  0
   -1.0313    3.5927    7.6391 H   0  0  0  0  0  0  0  0  0  0  0  0
   -1.5415    2.2445    8.6410 H   0  0  0  0  0  0  0  0  0  0  0  0
   -1.5025   -1.0758    5.3168 H   0  0  0  0  0  0  0  0  0  0  0  0
    1.9150    2.9126    1.5110 H   0  0  0  0  0  0  0  0  0  0  0  0
    0.8332    1.6454    1.0649 H   0  0  0  0  0  0  0  0  0  0  0  0
    2.3319    1.2552    1.9218 H   0  0  0  0  0  0  0  0  0  0  0  0
    0.7555    5.0241    2.9044 H   0  0  0  0  0  0  0  0  0  0  0  0
    3.4332    3.4872    3.4020 H   0  0  0  0  0  0  0  0  0  0  0  0
    3.2285    5.0339    2.4212 H   0  0  0  0  0  0  0  0  0  0  0  0
    2.3450    6.2063    4.4722 H   0  0  0  0  0  0  0  0  0  0  0  0
    2.5080    4.6533    5.4456 H   0  0  0  0  0  0  0  0  0  0  0  0
  1  2  1  0
  1 17  1  0
  1 18  1  0
  1 19  1  0
  2  3  1  0
  2 20  1  0
  2 21  1  0
  3 16  1  0
  3  4  1  0
  4  5  2  0
  5  6  1  0
  5 22  1  0
  6 16  2  0
  6  7  1  0
  7  8  2  0
  7  9  1  0
  9 10  1  0
  9 11  1  0
 10 23  1  0
 10 24  1  0
 10 25  1  0
 11 12  1  0
 11 15  2  0
 12 14  1  0
 12 13  1  0
 12 26  1  0
 13 14  1  0
 13 27  1  0
 13 28  1  0
 14 29  1  0
 14 30  1  0
 15 16  1  0
M  END
>  <i_m_ct_stereo_status>  (90) 
1

>  <s_m_source_file>  (90) 
/var/tmp/pbs.5076255.sched01/tmpyb5u0fxv/0ob_ovo1_.sdf

>  <i_m_source_file_index>  (90) 
42

>  <i_lp_mmshare_version>  (90) 
48012

>  <i_f3d_flags>  (90) 
0

>  <s_epik_input>  (90) 
W0NIM11bQ0gyXW4obltjSF0xKWMoYzEyKW5jKG4oYzI9TylbQ0gzXSlbQ0hdM1tDSDJdW0NIMl0z

>  <s_epik_cmdline>  (90) 
J2VwaWtfcHl0aG9uJywgJy1waHQnLCAnMi4wJywgJy1waCcsICc3LjAnLCAnLXRuJywgJzgnLCAnLW1hJywgJzIwMCcsICctaW1hZScsICc8aW5maWxlLm1hZT4nLCAnLW9tYWUnLCAnPG91dGZpbGUubWFlPic=

>  <r_lp_tautomer_probability>  (90) 
1

>  <r_epik_Ionization_Penalty>  (90) 
0.000112625

>  <r_epik_Ionization_Penalty_Charging>  (90) 
2.63808e-08

>  <r_epik_Ionization_Penalty_Neutral>  (90) 
0.000112599

>  <r_epik_State_Penalty>  (90) 
-0

>  <r_epik_Charging_Adjusted_Penalty>  (90) 
2.63808e-08

>  <i_epik_Tot_Q>  (90) 
0

>  <i_epik_Tot_abs_Q>  (90) 
0

>  <s_lp_Force_Field>  (90) 
OPLS3e

>  <r_lp_Energy>  (90) 
26.5062

>  <b_lp_Chiralities_Consistent>  (90) 
1

>  <s_lp_Variant>  (90) 
28:0-1

>  <s_i_glide_gridfile>  (90) 
pfpi4k_grid

>  <i_i_glide_lignum>  (90) 
42

>  <i_i_glide_rotatable_bonds>  (90) 
2

>  <r_i_docking_score>  (90) 
-3.32424

>  <r_i_glide_ligand_efficiency>  (90) 
-0.207765

>  <r_i_glide_ligand_efficiency_sa>  (90) 
-0.523535

>  <r_i_glide_ligand_efficiency_ln>  (90) 
-0.881157

>  <r_i_glide_gscore>  (90) 
-3.32424

>  <r_i_glide_lipo>  (90) 
-0.159972

>  <r_i_glide_hbond>  (90) 
-0.16

>  <r_i_glide_metal>  (90) 
-0

>  <r_i_glide_rewards>  (90) 
-1.92099

>  <r_i_glide_evdw>  (90) 
-16.175

>  <r_i_glide_ecoul>  (90) 
-3.3643

>  <r_i_glide_erotb>  (90) 
0.352717

>  <r_i_glide_esite>  (90) 
-0.122606

>  <r_i_glide_emodel>  (90) 
-25.1805

>  <r_i_glide_energy>  (90) 
-19.5393

>  <r_i_glide_einternal>  (90) 
0.060405

>  <r_i_glide_intrahb_reward>  (90) 
-0

>  <i_i_glide_confnum>  (90) 
6

>  <i_i_glide_posenum>  (90) 
26

>  <r_i_glide_eff_state_penalty>  (90) 
0

>  <ligand_id>  (90) 
28

>  <original_smiles>  (90) 
CCn1ncc2c(=O)n(C)c(C3CC3)nc21

>  <smiles>  (90) 
[H]c1nn(C([H])([H])C([H])([H])[H])c2nc(C3([H])C([H])([H])C3([H])[H])n(C([H])([H])[H])c(=O)c12

$$$$
28:0:2
     RDKit          3D

 30 32  0  0  1  0  0  0  0  0999 V2000
   -3.1482    2.5827    6.9025 C   0  0  0  0  0  0  0  0  0  0  0  0
   -1.8123    3.3321    6.9634 C   0  0  0  0  0  0  0  0  0  0  0  0
   -1.1032    3.2174    5.7081 N   0  0  0  0  0  0  0  0  0  0  0  0
   -0.8438    4.3169    4.9397 N   0  0  0  0  0  0  0  0  0  0  0  0
   -0.1860    3.8627    3.8631 C   0  0  0  0  0  0  0  0  0  0  0  0
   -0.0425    2.4571    3.9561 C   0  0  0  0  0  0  0  0  0  0  0  0
    0.5696    1.4467    3.0451 C   0  0  0  0  0  0  0  0  0  0  0  0
    1.1269    1.7785    2.0055 O   0  0  0  0  0  0  0  0  0  0  0  0
    0.4604    0.1661    3.5011 N   0  0  0  0  0  0  0  0  0  0  0  0
    1.0496   -0.8910    2.6586 C   0  0  0  0  0  0  0  0  0  0  0  0
   -0.1598   -0.1101    4.7636 C   0  0  0  0  0  0  0  0  0  0  0  0
   -0.1592   -1.5549    5.2244 C   0  0  0  0  0  0  0  0  0  0  0  0
    0.2693   -1.8986    6.6378 C   0  0  0  0  0  0  0  0  0  0  0  0
    1.1108   -2.3386    5.4733 C   0  0  0  0  0  0  0  0  0  0  0  0
   -0.7109    0.7706    5.5537 N   0  0  0  0  0  0  0  0  0  0  0  0
   -0.6284    2.0727    5.1071 C   0  0  0  0  0  0  0  0  0  0  0  0
   -3.7062    2.6680    7.8331 H   0  0  0  0  0  0  0  0  0  0  0  0
   -2.9873    1.5186    6.7177 H   0  0  0  0  0  0  0  0  0  0  0  0
   -3.7673    2.9662    6.0903 H   0  0  0  0  0  0  0  0  0  0  0  0
   -1.9705    4.3827    7.2151 H   0  0  0  0  0  0  0  0  0  0  0  0
   -1.1852    2.9080    7.7488 H   0  0  0  0  0  0  0  0  0  0  0  0
    0.1308    4.5427    3.0831 H   0  0  0  0  0  0  0  0  0  0  0  0
    0.9375   -1.9216    2.9832 H   0  0  0  0  0  0  0  0  0  0  0  0
    2.1187   -0.7119    2.5379 H   0  0  0  0  0  0  0  0  0  0  0  0
    0.6193   -0.8618    1.6619 H   0  0  0  0  0  0  0  0  0  0  0  0
   -1.0395   -2.0733    4.8463 H   0  0  0  0  0  0  0  0  0  0  0  0
    0.6619   -1.0954    7.2638 H   0  0  0  0  0  0  0  0  0  0  0  0
   -0.2696   -2.6809    7.1761 H   0  0  0  0  0  0  0  0  0  0  0  0
    1.0952   -3.3921    5.1898 H   0  0  0  0  0  0  0  0  0  0  0  0
    2.0464   -1.8170    5.2711 H   0  0  0  0  0  0  0  0  0  0  0  0
  1  2  1  0
  1 17  1  0
  1 18  1  0
  1 19  1  0
  2  3  1  0
  2 20  1  0
  2 21  1  0
  3 16  1  0
  3  4  1  0
  4  5  2  0
  5  6  1  0
  5 22  1  0
  6 16  2  0
  6  7  1  0
  7  8  2  0
  7  9  1  0
  9 10  1  0
  9 11  1  0
 10 23  1  0
 10 24  1  0
 10 25  1  0
 11 12  1  0
 11 15  2  0
 12 14  1  0
 12 13  1  0
 12 26  1  0
 13 14  1  0
 13 27  1  0
 13 28  1  0
 14 29  1  0
 14 30  1  0
 15 16  1  0
M  END
>  <i_m_ct_stereo_status>  (91) 
1

>  <s_m_source_file>  (91) 
/var/tmp/pbs.5076255.sched01/tmpyb5u0fxv/0ob_ovo1_.sdf

>  <i_m_source_file_index>  (91) 
42

>  <i_lp_mmshare_version>  (91) 
48012

>  <i_f3d_flags>  (91) 
0

>  <s_epik_input>  (91) 
W0NIM11bQ0gyXW4obltjSF0xKWMoYzEyKW5jKG4oYzI9TylbQ0gzXSlbQ0hdM1tDSDJdW0NIMl0z

>  <s_epik_cmdline>  (91) 
J2VwaWtfcHl0aG9uJywgJy1waHQnLCAnMi4wJywgJy1waCcsICc3LjAnLCAnLXRuJywgJzgnLCAnLW1hJywgJzIwMCcsICctaW1hZScsICc8aW5maWxlLm1hZT4nLCAnLW9tYWUnLCAnPG91dGZpbGUubWFlPic=

>  <r_lp_tautomer_probability>  (91) 
1

>  <r_epik_Ionization_Penalty>  (91) 
0.000112625

>  <r_epik_Ionization_Penalty_Charging>  (91) 
2.63808e-08

>  <r_epik_Ionization_Penalty_Neutral>  (91) 
0.000112599

>  <r_epik_State_Penalty>  (91) 
-0

>  <r_epik_Charging_Adjusted_Penalty>  (91) 
2.63808e-08

>  <i_epik_Tot_Q>  (91) 
0

>  <i_epik_Tot_abs_Q>  (91) 
0

>  <s_lp_Force_Field>  (91) 
OPLS3e

>  <r_lp_Energy>  (91) 
26.5062

>  <b_lp_Chiralities_Consistent>  (91) 
1

>  <s_lp_Variant>  (91) 
28:0-1

>  <s_i_glide_gridfile>  (91) 
pfpi4k_grid

>  <i_i_glide_lignum>  (91) 
42

>  <i_i_glide_rotatable_bonds>  (91) 
2

>  <r_i_docking_score>  (91) 
-2.96459

>  <r_i_glide_ligand_efficiency>  (91) 
-0.185287

>  <r_i_glide_ligand_efficiency_sa>  (91) 
-0.466894

>  <r_i_glide_ligand_efficiency_ln>  (91) 
-0.785824

>  <r_i_glide_gscore>  (91) 
-2.96459

>  <r_i_glide_lipo>  (91) 
-0.20996

>  <r_i_glide_hbond>  (91) 
0

>  <r_i_glide_metal>  (91) 
-0

>  <r_i_glide_rewards>  (91) 
-1.92099

>  <r_i_glide_evdw>  (91) 
-16.6297

>  <r_i_glide_ecoul>  (91) 
-2.05401

>  <r_i_glide_erotb>  (91) 
0.352717

>  <r_i_glide_esite>  (91) 
-0.0467738

>  <r_i_glide_emodel>  (91) 
-23.4168

>  <r_i_glide_energy>  (91) 
-18.6837

>  <r_i_glide_einternal>  (91) 
0.625321

>  <r_i_glide_intrahb_reward>  (91) 
-0

>  <i_i_glide_confnum>  (91) 
3

>  <i_i_glide_posenum>  (91) 
9

>  <r_i_glide_eff_state_penalty>  (91) 
0

>  <ligand_id>  (91) 
28

>  <original_smiles>  (91) 
CCn1ncc2c(=O)n(C)c(C3CC3)nc21

>  <smiles>  (91) 
[H]c1nn(C([H])([H])C([H])([H])[H])c2nc(C3([H])C([H])([H])C3([H])[H])n(C([H])([H])[H])c(=O)c12

$$$$
29:0:0
     RDKit          3D

 86 94  0  0  1  0  0  0  0  0999 V2000
    9.0335   -1.0086    8.2513 C   0  0  0  0  0  0  0  0  0  0  0  0
    8.2726   -2.2837    8.5877 C   0  0  0  0  0  0  0  0  0  0  0  0
    7.1598   -2.6968    7.9375 C   0  0  0  0  0  0  0  0  0  0  0  0
    6.4735   -3.9624    8.4171 C   0  0  1  0  0  0  0  0  0  0  0  0
    5.4053   -3.6687    9.4772 C   0  0  0  0  0  0  0  0  0  0  0  0
    5.9482   -4.9781    7.5215 O   0  0  0  0  0  0  0  0  0  0  0  0
    6.7519   -5.9771    8.2548 C   0  0  1  0  0  0  0  0  0  0  0  0
    7.3297   -7.1315    7.3800 C   0  0  2  0  0  0  0  0  0  0  0  0
    8.7018   -7.6091    7.8958 C   0  0  0  0  0  0  0  0  0  0  0  0
    9.3038   -8.4606    6.7818 C   0  0  0  0  0  0  0  0  0  0  0  0
    8.7312   -7.9237    5.4451 C   0  0  1  0  0  0  0  0  0  0  0  0
    8.1845   -9.0204    4.4346 C   0  0  1  0  0  0  0  0  0  0  0  0
    8.6950  -10.3217    4.6272 O   0  0  0  0  0  0  0  0  0  0  0  0
    6.7097   -8.9176    4.7820 C   0  0  2  0  0  0  0  0  0  0  0  0
    5.4216   -9.7944    4.5692 C   0  0  2  0  0  0  0  0  0  0  0  0
    4.6333   -9.8174    3.1996 C   0  0  2  0  0  0  0  0  0  0  0  0
    5.5083  -10.4276    2.2424 O   0  0  0  0  0  0  0  0  0  0  0  0
    5.6315  -11.8656    2.4957 O   0  0  0  0  0  0  0  0  0  0  0  0
    4.3920   -8.3681    2.7429 C   0  0  0  0  0  0  0  0  0  0  0  0
    4.2940   -8.0373    1.5207 N   0  0  0  0  0  0  0  0  0  0  0  0
    4.2849   -7.3934    3.7394 O   0  0  0  0  0  0  0  0  0  0  0  0
    4.8219   -7.6225    5.0759 C   0  0  1  0  0  0  0  0  0  0  0  0
    4.4185   -9.1070    5.5652 C   0  0  2  0  0  0  0  0  0  0  0  0
    4.7220   -9.4243    7.0710 C   0  0  0  0  0  0  0  0  0  0  0  0
    2.9035   -9.6729    5.4504 C   0  0  2  0  0  0  0  0  0  0  0  0
    3.0760  -11.0603    4.8164 C   0  0  0  0  0  0  0  0  0  0  0  0
    3.2312  -10.6268    3.3344 C   0  0  1  0  0  0  0  0  0  0  0  0
    1.8279   -9.9133    3.2182 C   0  0  2  0  0  0  0  0  0  0  0  0
    0.6930  -11.0013    3.1948 C   0  0  0  0  0  0  0  0  0  0  0  0
    1.4346   -8.9805    2.0752 C   0  0  0  0  0  0  0  0  0  0  0  0
    0.5019   -8.0093    2.2709 C   0  0  0  0  0  0  0  0  0  0  0  0
   -0.1271   -7.8036    3.6120 C   0  0  0  0  0  0  0  0  0  0  0  0
   -1.0900   -7.0554    3.7630 O   0  0  0  0  0  0  0  0  0  0  0  0
    0.4621   -8.5416    4.8487 C   0  0  0  0  0  0  0  0  0  0  0  0
    1.8747   -9.0222    4.4760 C   0  0  1  0  0  0  0  0  0  0  0  0
    6.4018   -7.4401    4.8247 C   0  0  2  0  0  0  0  0  0  0  0  0
    6.7505   -6.6955    3.4700 C   0  0  0  0  0  0  0  0  0  0  0  0
    7.5464   -6.9243    5.8227 C   0  0  1  0  0  0  0  0  0  0  0  0
    8.0551   -5.4573    5.5570 C   0  0  0  0  0  0  0  0  0  0  0  0
    7.6909   -4.8486    8.6816 C   0  0  2  0  0  0  0  0  0  0  0  0
    8.1867   -4.3535    9.9237 O   0  0  0  0  0  0  0  0  0  0  0  0
    8.7848   -3.0868    9.7758 C   0  0  0  0  0  0  0  0  0  0  0  0
    9.6421   -2.6609   10.5419 O   0  0  0  0  0  0  0  0  0  0  0  0
   10.0861   -1.2153    8.0778 H   0  0  0  0  0  0  0  0  0  0  0  0
    8.9741   -0.3011    9.0767 H   0  0  0  0  0  0  0  0  0  0  0  0
    8.6321   -0.5102    7.3704 H   0  0  0  0  0  0  0  0  0  0  0  0
    6.7391   -2.1574    7.1030 H   0  0  0  0  0  0  0  0  0  0  0  0
    5.8447   -3.1035   10.3077 H   0  0  0  0  0  0  0  0  0  0  0  0
    5.0045   -4.6027    9.8871 H   0  0  0  0  0  0  0  0  0  0  0  0
    4.5653   -3.0970    9.0547 H   0  0  0  0  0  0  0  0  0  0  0  0
    6.2063   -6.3848    9.1113 H   0  0  0  0  0  0  0  0  0  0  0  0
    6.6955   -7.9851    7.5447 H   0  0  0  0  0  0  0  0  0  0  0  0
    9.3653   -6.7685    8.0864 H   0  0  0  0  0  0  0  0  0  0  0  0
    8.6320   -8.1594    8.8380 H   0  0  0  0  0  0  0  0  0  0  0  0
   10.3951   -8.4186    6.8079 H   0  0  0  0  0  0  0  0  0  0  0  0
    9.0324   -9.4997    6.9587 H   0  0  0  0  0  0  0  0  0  0  0  0
    9.5365   -7.3756    4.9558 H   0  0  0  0  0  0  0  0  0  0  0  0
    8.3855   -8.7242    3.4013 H   0  0  0  0  0  0  0  0  0  0  0  0
    8.2579  -10.8909    4.0120 H   0  0  0  0  0  0  0  0  0  0  0  0
    6.8623   -9.2400    5.8005 H   0  0  0  0  0  0  0  0  0  0  0  0
    5.6977  -10.8046    4.8698 H   0  0  0  0  0  0  0  0  0  0  0  0
    5.0244  -12.2073    1.8508 H   0  0  0  0  0  0  0  0  0  0  0  0
    4.3863   -8.8211    0.8888 H   0  0  0  0  0  0  0  0  0  0  0  0
    4.4299   -6.8503    5.7394 H   0  0  0  0  0  0  0  0  0  0  0  0
    4.5090   -8.5671    7.7086 H   0  0  0  0  0  0  0  0  0  0  0  0
    5.7113   -9.8003    7.3010 H   0  0  0  0  0  0  0  0  0  0  0  0
    4.1233  -10.2512    7.4506 H   0  0  0  0  0  0  0  0  0  0  0  0
    2.4070   -9.7511    6.4183 H   0  0  0  0  0  0  0  0  0  0  0  0
    3.8841  -11.6658    5.2178 H   0  0  0  0  0  0  0  0  0  0  0  0
    2.2268  -11.7000    5.0178 H   0  0  0  0  0  0  0  0  0  0  0  0
    3.2209  -11.4971    2.6832 H   0  0  0  0  0  0  0  0  0  0  0  0
    0.3870  -11.3649    4.1735 H   0  0  0  0  0  0  0  0  0  0  0  0
    0.9743  -11.8704    2.6041 H   0  0  0  0  0  0  0  0  0  0  0  0
   -0.2261  -10.6360    2.7423 H   0  0  0  0  0  0  0  0  0  0  0  0
    1.8659   -9.1583    1.1061 H   0  0  0  0  0  0  0  0  0  0  0  0
    0.1851   -7.3788    1.4492 H   0  0  0  0  0  0  0  0  0  0  0  0
    0.5125   -7.8381    5.6780 H   0  0  0  0  0  0  0  0  0  0  0  0
   -0.2009   -9.3526    5.1538 H   0  0  0  0  0  0  0  0  0  0  0  0
    2.2866   -8.0523    4.2598 H   0  0  0  0  0  0  0  0  0  0  0  0
    6.2485   -5.7316    3.3970 H   0  0  0  0  0  0  0  0  0  0  0  0
    6.5845   -7.2571    2.5656 H   0  0  0  0  0  0  0  0  0  0  0  0
    7.8053   -6.5203    3.3107 H   0  0  0  0  0  0  0  0  0  0  0  0
    8.5220   -5.2741    4.5913 H   0  0  0  0  0  0  0  0  0  0  0  0
    8.8730   -5.2205    6.2182 H   0  0  0  0  0  0  0  0  0  0  0  0
    7.2344   -4.7325    5.6113 H   0  0  0  0  0  0  0  0  0  0  0  0
    8.4571   -4.7183    7.9354 H   0  0  0  0  0  0  0  0  0  0  0  0
  1  2  1  0
  1 44  1  0
  1 45  1  0
  1 46  1  0
  2 42  1  0
  2  3  2  0
  3  4  1  0
  3 47  1  0
  4 40  1  0
  4  5  1  1
  4  6  1  0
  5 48  1  0
  5 49  1  0
  5 50  1  0
  6  7  1  0
  7  8  1  0
  7 40  1  0
  7 51  1  1
  8 38  1  0
  8  9  1  0
  8 52  1  6
  9 10  1  0
  9 53  1  0
  9 54  1  0
 10 11  1  0
 10 55  1  0
 10 56  1  0
 11 38  1  0
 11 12  1  0
 11 57  1  6
 12 13  1  0
 12 14  1  0
 12 58  1  6
 13 59  1  0
 14 36  1  0
 14 15  1  0
 14 60  1  1
 15 23  1  0
 15 16  1  0
 15 61  1  1
 16 27  1  0
 16 17  1  6
 16 19  1  0
 17 18  1  0
 18 62  1  0
 19 20  2  3
 19 21  1  0
 20 63  1  0
 21 22  1  0
 22 23  1  0
 22 36  1  0
 22 64  1  1
 23 24  1  1
 23 25  1  0
 24 65  1  0
 24 66  1  0
 24 67  1  0
 25 35  1  0
 25 26  1  0
 25 68  1  1
 26 27  1  0
 26 69  1  0
 26 70  1  0
 27 28  1  0
 27 71  1  6
 28 35  1  0
 28 29  1  1
 28 30  1  0
 29 72  1  0
 29 73  1  0
 29 74  1  0
 30 31  2  0
 30 75  1  0
 31 32  1  0
 31 76  1  0
 32 33  2  0
 32 34  1  0
 34 35  1  0
 34 77  1  0
 34 78  1  0
 35 79  1  6
 36 37  1  6
 36 38  1  0
 37 80  1  0
 37 81  1  0
 37 82  1  0
 38 39  1  1
 39 83  1  0
 39 84  1  0
 39 85  1  0
 40 41  1  0
 40 86  1  6
 41 42  1  0
 42 43  2  0
M  END
>  <i_m_ct_stereo_status>  (92) 
1

>  <s_m_source_file>  (92) 
/var/tmp/pbs.5076255.sched01/tmpyb5u0fxv/0ob_ovo1_.sdf

>  <i_m_source_file_index>  (92) 
43

>  <i_lp_mmshare_version>  (92) 
48012

>  <i_f3d_flags>  (92) 
0

>  <s_epik_input>  (92) 
W0NIM11DKD1bQ0hdMSlDKD1PKU9bQ0BIXShbQ0BAXTEyW0NIM10pW0NAQEhdKE8yKVtDQEBIXTNbQ0gyXVtDSDJdW0NAQEhdKFtDQEhdNFtPSF0pW0NAQF0zKFtDSDNdKVtDQEBdKFtDSDNdKShbQ0BIXTRbQ0BASF01W0NAXTY3T1tPSF0pW0NAQEhdKE9DXDY9Ti9bSF0pW0NAQF01KFtDSDNdKVtDQEhdOFtDQEhdOVtDQF0oW0NIM10pKFtDQEBIXTdbQ0gyXTgpW0NIXT1bQ0hdQyg9TylbQ0gyXTk=

>  <s_epik_cmdline>  (92) 
J2VwaWtfcHl0aG9uJywgJy1waHQnLCAnMi4wJywgJy1waCcsICc3LjAnLCAnLXRuJywgJzgnLCAnLW1hJywgJzIwMCcsICctaW1hZScsICc8aW5maWxlLm1hZT4nLCAnLW9tYWUnLCAnPG91dGZpbGUubWFlPic=

>  <r_lp_tautomer_probability>  (92) 
0.5

>  <r_epik_Ionization_Penalty>  (92) 
0.000549272

>  <r_epik_Ionization_Penalty_Charging>  (92) 
0

>  <r_epik_Ionization_Penalty_Neutral>  (92) 
0.000549272

>  <r_epik_State_Penalty>  (92) 
0.41068

>  <r_epik_Charging_Adjusted_Penalty>  (92) 
0.41068

>  <i_epik_Tot_Q>  (92) 
0

>  <i_epik_Tot_abs_Q>  (92) 
0

>  <s_epik_Chemistry_Notes>  (92) 
This compound has an ester and may undergo hydrolysis at high or low pH. This compound has an imine and may undergo hydrolysis.

>  <s_lp_Force_Field>  (92) 
OPLS3e

>  <r_lp_Energy>  (92) 
223.135

>  <b_lp_Chiralities_Consistent>  (92) 
1

>  <s_lp_Variant>  (92) 
29:0-1

>  <s_i_glide_gridfile>  (92) 
pfpi4k_grid

>  <i_i_glide_lignum>  (92) 
43

>  <i_i_glide_rotatable_bonds>  (92) 
4

>  <r_i_docking_score>  (92) 
-2.65074

>  <r_i_glide_ligand_efficiency>  (92) 
-0.061645

>  <r_i_glide_ligand_efficiency_sa>  (92) 
-0.215967

>  <r_i_glide_ligand_efficiency_ln>  (92) 
-0.556737

>  <r_i_glide_gscore>  (92) 
-2.65074

>  <r_i_glide_lipo>  (92) 
-0.394988

>  <r_i_glide_hbond>  (92) 
-0.0323026

>  <r_i_glide_metal>  (92) 
-0

>  <r_i_glide_rewards>  (92) 
-0.0111595

>  <r_i_glide_evdw>  (92) 
-25.5968

>  <r_i_glide_ecoul>  (92) 
-5.9701

>  <r_i_glide_erotb>  (92) 
0.00748682

>  <r_i_glide_esite>  (92) 
-0.0444193

>  <r_i_glide_emodel>  (92) 
-33.027

>  <r_i_glide_energy>  (92) 
-31.5669

>  <r_i_glide_einternal>  (92) 
7.51529

>  <r_i_glide_intrahb_reward>  (92) 
-0

>  <i_i_glide_confnum>  (92) 
5

>  <i_i_glide_posenum>  (92) 
25

>  <r_i_glide_eff_state_penalty>  (92) 
0

>  <ligand_id>  (92) 
29

>  <original_smiles>  (92) 
CC1=CC2(C)OC(C3CCC4C(O)C5C6C7(OO)C(=N)OC(C6(C)C6CC7C7(C)C=CC(=O)CC67)C5(C)C43C)C2OC1=O

>  <smiles>  (92) 
[H]N=C1OC2([H])C3(C([H])([H])[H])C4([H])C([H])([H])C([H])(C1(OO[H])C3([H])C1([H])C([H])(O[H])C3([H])C([H])([H])C([H])([H])C([H])(C5([H])OC6(C([H])([H])[H])C([H])=C(C([H])([H])[H])C(=O)OC56[H])C3(C([H])([H])[H])C21C([H])([H])[H])C1(C([H])([H])[H])C([H])=C([H])C(=O)C([H])([H])C41[H]

$$$$
29:0:1
     RDKit          3D

 86 94  0  0  1  0  0  0  0  0999 V2000
    2.9983   -3.8958    7.5985 C   0  0  0  0  0  0  0  0  0  0  0  0
    4.4823   -4.0793    7.3394 C   0  0  0  0  0  0  0  0  0  0  0  0
    5.3850   -4.4516    8.2864 C   0  0  0  0  0  0  0  0  0  0  0  0
    6.8418   -4.5726    7.8890 C   0  0  1  0  0  0  0  0  0  0  0  0
    7.5797   -3.2294    8.0651 C   0  0  0  0  0  0  0  0  0  0  0  0
    7.6839   -5.6847    8.3063 O   0  0  0  0  0  0  0  0  0  0  0  0
    8.0677   -5.8429    6.8903 C   0  0  1  0  0  0  0  0  0  0  0  0
    8.3720   -7.3145    6.5204 C   0  0  2  0  0  0  0  0  0  0  0  0
    9.6796   -7.8243    7.1296 C   0  0  0  0  0  0  0  0  0  0  0  0
    9.9909   -9.1220    6.3806 C   0  0  0  0  0  0  0  0  0  0  0  0
    9.4221   -8.9656    4.9482 C   0  0  1  0  0  0  0  0  0  0  0  0
    8.5809  -10.2022    4.4025 C   0  0  1  0  0  0  0  0  0  0  0  0
    8.8391  -11.4368    5.0385 O   0  0  0  0  0  0  0  0  0  0  0  0
    7.1917   -9.6672    4.6942 C   0  0  2  0  0  0  0  0  0  0  0  0
    5.7454  -10.2679    4.8107 C   0  0  2  0  0  0  0  0  0  0  0  0
    4.8534  -10.5936    3.5472 C   0  0  2  0  0  0  0  0  0  0  0  0
    5.4713  -11.6926    2.8718 O   0  0  0  0  0  0  0  0  0  0  0  0
    5.4325  -12.8940    3.7055 O   0  0  0  0  0  0  0  0  0  0  0  0
    4.8685   -9.3777    2.5980 C   0  0  0  0  0  0  0  0  0  0  0  0
    4.7424   -9.4588    1.3411 N   0  0  0  0  0  0  0  0  0  0  0  0
    5.0439   -8.1257    3.1882 O   0  0  0  0  0  0  0  0  0  0  0  0
    5.6307   -7.9875    4.5092 C   0  0  1  0  0  0  0  0  0  0  0  0
    4.9836   -9.0815    5.4986 C   0  0  2  0  0  0  0  0  0  0  0  0
    5.3358   -8.9270    7.0225 C   0  0  0  0  0  0  0  0  0  0  0  0
    3.3835   -9.3068    5.6071 C   0  0  2  0  0  0  0  0  0  0  0  0
    3.2202  -10.8319    5.5131 C   0  0  0  0  0  0  0  0  0  0  0  0
    3.3405  -10.9908    3.9734 C   0  0  1  0  0  0  0  0  0  0  0  0
    2.0994  -10.0809    3.6222 C   0  0  2  0  0  0  0  0  0  0  0  0
    0.7696  -10.8367    3.9969 C   0  0  0  0  0  0  0  0  0  0  0  0
    1.8020   -9.5412    2.2323 C   0  0  0  0  0  0  0  0  0  0  0  0
    1.1073   -8.3891    2.0779 C   0  0  0  0  0  0  0  0  0  0  0  0
    0.6334   -7.5922    3.2502 C   0  0  0  0  0  0  0  0  0  0  0  0
   -0.1565   -6.6539    3.1288 O   0  0  0  0  0  0  0  0  0  0  0  0
    1.1702   -7.9586    4.6616 C   0  0  0  0  0  0  0  0  0  0  0  0
    2.4238   -8.8342    4.4771 C   0  0  1  0  0  0  0  0  0  0  0  0
    7.1893   -8.2361    4.2172 C   0  0  2  0  0  0  0  0  0  0  0  0
    7.5809   -8.1074    2.6865 C   0  0  0  0  0  0  0  0  0  0  0  0
    8.4787   -7.6787    4.9921 C   0  0  1  0  0  0  0  0  0  0  0  0
    9.1914   -6.4685    4.2988 C   0  0  0  0  0  0  0  0  0  0  0  0
    6.7052   -5.2852    6.5556 C   0  0  2  0  0  0  0  0  0  0  0  0
    6.2366   -4.2930    5.6671 O   0  0  0  0  0  0  0  0  0  0  0  0
    4.9579   -3.8266    5.9257 C   0  0  0  0  0  0  0  0  0  0  0  0
    4.2905   -3.2413    5.0789 O   0  0  0  0  0  0  0  0  0  0  0  0
    2.4111   -4.5068    6.9063 H   0  0  0  0  0  0  0  0  0  0  0  0
    2.7154   -2.8517    7.4511 H   0  0  0  0  0  0  0  0  0  0  0  0
    2.7283   -4.1821    8.6173 H   0  0  0  0  0  0  0  0  0  0  0  0
    5.1145   -4.6306    9.3153 H   0  0  0  0  0  0  0  0  0  0  0  0
    7.0660   -2.4165    7.5457 H   0  0  0  0  0  0  0  0  0  0  0  0
    8.5999   -3.2452    7.6850 H   0  0  0  0  0  0  0  0  0  0  0  0
    7.6348   -2.9440    9.1144 H   0  0  0  0  0  0  0  0  0  0  0  0
    8.8713   -5.1529    6.6263 H   0  0  0  0  0  0  0  0  0  0  0  0
    7.6079   -7.9129    6.9740 H   0  0  0  0  0  0  0  0  0  0  0  0
   10.4852   -7.1059    6.9822 H   0  0  0  0  0  0  0  0  0  0  0  0
    9.5867   -7.9886    8.2050 H   0  0  0  0  0  0  0  0  0  0  0  0
   11.0623   -9.3255    6.3698 H   0  0  0  0  0  0  0  0  0  0  0  0
    9.5186   -9.9473    6.9132 H   0  0  0  0  0  0  0  0  0  0  0  0
   10.2637   -8.8044    4.2718 H   0  0  0  0  0  0  0  0  0  0  0  0
    8.7311  -10.3506    3.3320 H   0  0  0  0  0  0  0  0  0  0  0  0
    8.2381  -12.0793    4.6838 H   0  0  0  0  0  0  0  0  0  0  0  0
    7.3604   -9.6536    5.7581 H   0  0  0  0  0  0  0  0  0  0  0  0
    5.8329  -11.1378    5.4607 H   0  0  0  0  0  0  0  0  0  0  0  0
    4.6245  -13.2904    3.4027 H   0  0  0  0  0  0  0  0  0  0  0  0
    4.6152  -10.4204    1.0233 H   0  0  0  0  0  0  0  0  0  0  0  0
    5.4330   -6.9723    4.8323 H   0  0  0  0  0  0  0  0  0  0  0  0
    5.3300   -7.8862    7.3360 H   0  0  0  0  0  0  0  0  0  0  0  0
    6.2508   -9.3981    7.3670 H   0  0  0  0  0  0  0  0  0  0  0  0
    4.6178   -9.4259    7.6764 H   0  0  0  0  0  0  0  0  0  0  0  0
    2.9598   -8.9313    6.5401 H   0  0  0  0  0  0  0  0  0  0  0  0
    3.9188  -11.4211    6.1044 H   0  0  0  0  0  0  0  0  0  0  0  0
    2.2735  -11.1509    5.9346 H   0  0  0  0  0  0  0  0  0  0  0  0
    3.1098  -12.0140    3.6824 H   0  0  0  0  0  0  0  0  0  0  0  0
    0.4802  -10.7658    5.0458 H   0  0  0  0  0  0  0  0  0  0  0  0
    0.8290  -11.8976    3.7470 H   0  0  0  0  0  0  0  0  0  0  0  0
   -0.1028  -10.4609    3.4579 H   0  0  0  0  0  0  0  0  0  0  0  0
    2.1180  -10.1321    1.3833 H   0  0  0  0  0  0  0  0  0  0  0  0
    0.8621   -8.0280    1.0899 H   0  0  0  0  0  0  0  0  0  0  0  0
    1.4324   -7.0383    5.1833 H   0  0  0  0  0  0  0  0  0  0  0  0
    0.3909   -8.4555    5.2395 H   0  0  0  0  0  0  0  0  0  0  0  0
    2.9994   -8.1179    3.9209 H   0  0  0  0  0  0  0  0  0  0  0  0
    7.2602   -7.1556    2.2619 H   0  0  0  0  0  0  0  0  0  0  0  0
    7.2255   -8.9059    2.0468 H   0  0  0  0  0  0  0  0  0  0  0  0
    8.6435   -8.2052    2.4867 H   0  0  0  0  0  0  0  0  0  0  0  0
    9.6976   -6.7041    3.3636 H   0  0  0  0  0  0  0  0  0  0  0  0
    9.9951   -6.0676    4.9151 H   0  0  0  0  0  0  0  0  0  0  0  0
    8.4956   -5.6551    4.0952 H   0  0  0  0  0  0  0  0  0  0  0  0
    5.9869   -6.0934    6.6267 H   0  0  0  0  0  0  0  0  0  0  0  0
  1  2  1  0
  1 44  1  0
  1 45  1  0
  1 46  1  0
  2 42  1  0
  2  3  2  0
  3  4  1  0
  3 47  1  0
  4 40  1  0
  4  5  1  6
  4  6  1  0
  5 48  1  0
  5 49  1  0
  5 50  1  0
  6  7  1  0
  7  8  1  0
  7 40  1  0
  7 51  1  6
  8 38  1  0
  8  9  1  0
  8 52  1  1
  9 10  1  0
  9 53  1  0
  9 54  1  0
 10 11  1  0
 10 55  1  0
 10 56  1  0
 11 38  1  0
 11 12  1  0
 11 57  1  6
 12 13  1  0
 12 14  1  0
 12 58  1  6
 13 59  1  0
 14 36  1  0
 14 15  1  0
 14 60  1  1
 15 23  1  0
 15 16  1  0
 15 61  1  1
 16 27  1  0
 16 17  1  6
 16 19  1  0
 17 18  1  0
 18 62  1  0
 19 20  2  3
 19 21  1  0
 20 63  1  0
 21 22  1  0
 22 23  1  0
 22 36  1  0
 22 64  1  1
 23 24  1  1
 23 25  1  0
 24 65  1  0
 24 66  1  0
 24 67  1  0
 25 35  1  0
 25 26  1  0
 25 68  1  1
 26 27  1  0
 26 69  1  0
 26 70  1  0
 27 28  1  0
 27 71  1  1
 28 35  1  0
 28 29  1  1
 28 30  1  0
 29 72  1  0
 29 73  1  0
 29 74  1  0
 30 31  2  0
 30 75  1  0
 31 32  1  0
 31 76  1  0
 32 33  2  0
 32 34  1  0
 34 35  1  0
 34 77  1  0
 34 78  1  0
 35 79  1  6
 36 37  1  6
 36 38  1  0
 37 80  1  0
 37 81  1  0
 37 82  1  0
 38 39  1  6
 39 83  1  0
 39 84  1  0
 39 85  1  0
 40 41  1  0
 40 86  1  1
 41 42  1  0
 42 43  2  0
M  END
>  <i_m_ct_stereo_status>  (93) 
1

>  <s_m_source_file>  (93) 
/var/tmp/pbs.5076255.sched01/tmpyb5u0fxv/0ob_ovo1_.sdf

>  <i_m_source_file_index>  (93) 
43

>  <i_lp_mmshare_version>  (93) 
48012

>  <i_f3d_flags>  (93) 
0

>  <s_epik_input>  (93) 
W0NIM11DKD1bQ0hdMSlDKD1PKU9bQ0BIXShbQ0BAXTEyW0NIM10pW0NAQEhdKE8yKVtDQEBIXTNbQ0gyXVtDSDJdW0NAQEhdKFtDQEhdNFtPSF0pW0NAQF0zKFtDSDNdKVtDQEBdKFtDSDNdKShbQ0BIXTRbQ0BASF01W0NAXTY3T1tPSF0pW0NAQEhdKE9DXDY9Ti9bSF0pW0NAQF01KFtDSDNdKVtDQEhdOFtDQEhdOVtDQF0oW0NIM10pKFtDQEBIXTdbQ0gyXTgpW0NIXT1bQ0hdQyg9TylbQ0gyXTk=

>  <s_epik_cmdline>  (93) 
J2VwaWtfcHl0aG9uJywgJy1waHQnLCAnMi4wJywgJy1waCcsICc3LjAnLCAnLXRuJywgJzgnLCAnLW1hJywgJzIwMCcsICctaW1hZScsICc8aW5maWxlLm1hZT4nLCAnLW9tYWUnLCAnPG91dGZpbGUubWFlPic=

>  <r_lp_tautomer_probability>  (93) 
0.5

>  <r_epik_Ionization_Penalty>  (93) 
0.000549272

>  <r_epik_Ionization_Penalty_Charging>  (93) 
0

>  <r_epik_Ionization_Penalty_Neutral>  (93) 
0.000549272

>  <r_epik_State_Penalty>  (93) 
0.41068

>  <r_epik_Charging_Adjusted_Penalty>  (93) 
0.41068

>  <i_epik_Tot_Q>  (93) 
0

>  <i_epik_Tot_abs_Q>  (93) 
0

>  <s_epik_Chemistry_Notes>  (93) 
This compound has an ester and may undergo hydrolysis at high or low pH. This compound has an imine and may undergo hydrolysis.

>  <s_lp_Force_Field>  (93) 
OPLS3e

>  <r_lp_Energy>  (93) 
223.135

>  <b_lp_Chiralities_Consistent>  (93) 
1

>  <s_lp_Variant>  (93) 
29:0-1

>  <s_i_glide_gridfile>  (93) 
pfpi4k_grid

>  <i_i_glide_lignum>  (93) 
43

>  <i_i_glide_rotatable_bonds>  (93) 
4

>  <r_i_docking_score>  (93) 
-2.55793

>  <r_i_glide_ligand_efficiency>  (93) 
-0.0594868

>  <r_i_glide_ligand_efficiency_sa>  (93) 
-0.208406

>  <r_i_glide_ligand_efficiency_ln>  (93) 
-0.537245

>  <r_i_glide_gscore>  (93) 
-2.55793

>  <r_i_glide_lipo>  (93) 
-0.173374

>  <r_i_glide_hbond>  (93) 
-0.291047

>  <r_i_glide_metal>  (93) 
-0

>  <r_i_glide_rewards>  (93) 
-0.00414103

>  <r_i_glide_evdw>  (93) 
-24.5003

>  <r_i_glide_ecoul>  (93) 
-5.47644

>  <r_i_glide_erotb>  (93) 
0.00748682

>  <r_i_glide_esite>  (93) 
-0.0503736

>  <r_i_glide_emodel>  (93) 
-35.5837

>  <r_i_glide_energy>  (93) 
-29.9768

>  <r_i_glide_einternal>  (93) 
0.496483

>  <r_i_glide_intrahb_reward>  (93) 
-0

>  <i_i_glide_confnum>  (93) 
5

>  <i_i_glide_posenum>  (93) 
23

>  <r_i_glide_eff_state_penalty>  (93) 
0

>  <ligand_id>  (93) 
29

>  <original_smiles>  (93) 
CC1=CC2(C)OC(C3CCC4C(O)C5C6C7(OO)C(=N)OC(C6(C)C6CC7C7(C)C=CC(=O)CC67)C5(C)C43C)C2OC1=O

>  <smiles>  (93) 
[H]N=C1OC2([H])C3(C([H])([H])[H])C4([H])C([H])([H])C([H])(C1(OO[H])C3([H])C1([H])C([H])(O[H])C3([H])C([H])([H])C([H])([H])C([H])(C5([H])OC6(C([H])([H])[H])C([H])=C(C([H])([H])[H])C(=O)OC56[H])C3(C([H])([H])[H])C21C([H])([H])[H])C1(C([H])([H])[H])C([H])=C([H])C(=O)C([H])([H])C41[H]

$$$$
29:0:2
     RDKit          3D

 86 94  0  0  1  0  0  0  0  0999 V2000
    1.2086   -1.6197    3.2166 C   0  0  0  0  0  0  0  0  0  0  0  0
    1.3744   -1.3733    4.7056 C   0  0  0  0  0  0  0  0  0  0  0  0
    0.3725   -1.4769    5.6239 C   0  0  0  0  0  0  0  0  0  0  0  0
    0.6860   -1.1854    7.0828 C   0  0  1  0  0  0  0  0  0  0  0  0
    0.5174    0.3072    7.4147 C   0  0  0  0  0  0  0  0  0  0  0  0
    0.2190   -2.0153    8.1916 O   0  0  0  0  0  0  0  0  0  0  0  0
    1.6248   -2.0871    8.6573 C   0  0  1  0  0  0  0  0  0  0  0  0
    1.9617   -3.4293    9.3643 C   0  0  2  0  0  0  0  0  0  0  0  0
    2.0017   -3.3039   10.8927 C   0  0  0  0  0  0  0  0  0  0  0  0
    2.6972   -4.5736   11.3908 C   0  0  0  0  0  0  0  0  0  0  0  0
    3.6893   -5.0069   10.2840 C   0  0  1  0  0  0  0  0  0  0  0  0
    3.6586   -6.5503    9.8964 C   0  0  1  0  0  0  0  0  0  0  0  0
    3.1163   -7.4121   10.8759 O   0  0  0  0  0  0  0  0  0  0  0  0
    2.7849   -6.4437    8.6614 C   0  0  2  0  0  0  0  0  0  0  0  0
    1.9321   -7.4380    7.7957 C   0  0  2  0  0  0  0  0  0  0  0  0
    2.5751   -8.3851    6.6962 C   0  0  2  0  0  0  0  0  0  0  0  0
    3.3766   -9.3928    7.3276 O   0  0  0  0  0  0  0  0  0  0  0  0
    2.6148  -10.0814    8.3729 O   0  0  0  0  0  0  0  0  0  0  0  0
    3.5120   -7.5466    5.8106 C   0  0  0  0  0  0  0  0  0  0  0  0
    4.5343   -8.0190    5.2307 N   0  0  0  0  0  0  0  0  0  0  0  0
    3.1991   -6.1990    5.6605 O   0  0  0  0  0  0  0  0  0  0  0  0
    2.3351   -5.5138    6.6016 C   0  0  1  0  0  0  0  0  0  0  0  0
    1.0708   -6.4352    6.9532 C   0  0  2  0  0  0  0  0  0  0  0  0
   -0.0599   -5.7374    7.7895 C   0  0  0  0  0  0  0  0  0  0  0  0
    0.1841   -7.1377    5.7961 C   0  0  2  0  0  0  0  0  0  0  0  0
    0.0538   -8.5961    6.2650 C   0  0  0  0  0  0  0  0  0  0  0  0
    1.4431   -9.1180    5.8066 C   0  0  1  0  0  0  0  0  0  0  0  0
    1.2366   -8.8013    4.2680 C   0  0  2  0  0  0  0  0  0  0  0  0
    0.1982   -9.8108    3.6557 C   0  0  0  0  0  0  0  0  0  0  0  0
    2.3463   -8.7950    3.2182 C   0  0  0  0  0  0  0  0  0  0  0  0
    2.2411   -8.0232    2.1075 C   0  0  0  0  0  0  0  0  0  0  0  0
    1.0525   -7.1286    1.8920 C   0  0  0  0  0  0  0  0  0  0  0  0
    0.8333   -6.5348    0.8369 O   0  0  0  0  0  0  0  0  0  0  0  0
    0.0575   -6.9108    3.0604 C   0  0  0  0  0  0  0  0  0  0  0  0
    0.7528   -7.3354    4.3617 C   0  0  1  0  0  0  0  0  0  0  0  0
    3.3198   -5.2788    7.8593 C   0  0  2  0  0  0  0  0  0  0  0  0
    4.8540   -5.4492    7.5035 C   0  0  0  0  0  0  0  0  0  0  0  0
    3.3178   -4.1404    8.9955 C   0  0  1  0  0  0  0  0  0  0  0  0
    4.3959   -3.0146    8.8173 C   0  0  0  0  0  0  0  0  0  0  0  0
    2.0121   -1.9004    7.2133 C   0  0  2  0  0  0  0  0  0  0  0  0
    2.9392   -1.0651    6.5434 O   0  0  0  0  0  0  0  0  0  0  0  0
    2.7676   -0.9983    5.1666 C   0  0  0  0  0  0  0  0  0  0  0  0
    3.6710   -0.6640    4.4053 O   0  0  0  0  0  0  0  0  0  0  0  0
    1.9246   -2.3688    2.8581 H   0  0  0  0  0  0  0  0  0  0  0  0
    1.3870   -0.6929    2.6661 H   0  0  0  0  0  0  0  0  0  0  0  0
    0.2086   -1.9725    2.9857 H   0  0  0  0  0  0  0  0  0  0  0  0
   -0.6410   -1.7271    5.3504 H   0  0  0  0  0  0  0  0  0  0  0  0
    1.0919    0.9312    6.7239 H   0  0  0  0  0  0  0  0  0  0  0  0
    0.8678    0.5562    8.4154 H   0  0  0  0  0  0  0  0  0  0  0  0
   -0.5219    0.6189    7.3413 H   0  0  0  0  0  0  0  0  0  0  0  0
    1.8998   -1.2146    9.2527 H   0  0  0  0  0  0  0  0  0  0  0  0
    1.1479   -4.0990    9.1792 H   0  0  0  0  0  0  0  0  0  0  0  0
    2.5820   -2.4328   11.1938 H   0  0  0  0  0  0  0  0  0  0  0  0
    1.0073   -3.1881   11.3271 H   0  0  0  0  0  0  0  0  0  0  0  0
    3.2070   -4.3991   12.3400 H   0  0  0  0  0  0  0  0  0  0  0  0
    1.9392   -5.3335   11.5761 H   0  0  0  0  0  0  0  0  0  0  0  0
    4.6972   -4.7711   10.6340 H   0  0  0  0  0  0  0  0  0  0  0  0
    4.6563   -6.9196    9.6472 H   0  0  0  0  0  0  0  0  0  0  0  0
    3.1628   -8.2993   10.5399 H   0  0  0  0  0  0  0  0  0  0  0  0
    1.9410   -6.0866    9.2286 H   0  0  0  0  0  0  0  0  0  0  0  0
    1.3151   -7.9961    8.4994 H   0  0  0  0  0  0  0  0  0  0  0  0
    2.2772  -10.8442    7.9043 H   0  0  0  0  0  0  0  0  0  0  0  0
    4.6635   -9.0012    5.4125 H   0  0  0  0  0  0  0  0  0  0  0  0
    2.0160   -4.6246    6.0744 H   0  0  0  0  0  0  0  0  0  0  0  0
   -0.2181   -4.7046    7.4738 H   0  0  0  0  0  0  0  0  0  0  0  0
    0.0280   -5.7775    8.8706 H   0  0  0  0  0  0  0  0  0  0  0  0
   -1.0163   -6.2416    7.6871 H   0  0  0  0  0  0  0  0  0  0  0  0
   -0.7962   -6.6735    5.6709 H   0  0  0  0  0  0  0  0  0  0  0  0
   -0.1720   -8.7324    7.3206 H   0  0  0  0  0  0  0  0  0  0  0  0
   -0.7984   -9.0873    5.8044 H   0  0  0  0  0  0  0  0  0  0  0  0
    1.5075  -10.1930    5.9580 H   0  0  0  0  0  0  0  0  0  0  0  0
   -0.8467   -9.5435    3.8150 H   0  0  0  0  0  0  0  0  0  0  0  0
    0.3464  -10.8174    4.0510 H   0  0  0  0  0  0  0  0  0  0  0  0
    0.2809   -9.9073    2.5707 H   0  0  0  0  0  0  0  0  0  0  0  0
    3.1861   -9.4592    3.3768 H   0  0  0  0  0  0  0  0  0  0  0  0
    3.0129   -8.0381    1.3509 H   0  0  0  0  0  0  0  0  0  0  0  0
   -0.1822   -5.8510    3.1074 H   0  0  0  0  0  0  0  0  0  0  0  0
   -0.8676   -7.4535    2.8660 H   0  0  0  0  0  0  0  0  0  0  0  0
    1.5715   -6.6431    4.2955 H   0  0  0  0  0  0  0  0  0  0  0  0
    5.1479   -4.8072    6.6723 H   0  0  0  0  0  0  0  0  0  0  0  0
    5.1701   -6.4631    7.2869 H   0  0  0  0  0  0  0  0  0  0  0  0
    5.5333   -5.2427    8.3253 H   0  0  0  0  0  0  0  0  0  0  0  0
    5.4265   -3.3210    8.9982 H   0  0  0  0  0  0  0  0  0  0  0  0
    4.2365   -2.1941    9.5192 H   0  0  0  0  0  0  0  0  0  0  0  0
    4.3884   -2.6067    7.8104 H   0  0  0  0  0  0  0  0  0  0  0  0
    1.9744   -2.8666    6.7433 H   0  0  0  0  0  0  0  0  0  0  0  0
  1  2  1  0
  1 44  1  0
  1 45  1  0
  1 46  1  0
  2 42  1  0
  2  3  2  0
  3  4  1  0
  3 47  1  0
  4 40  1  0
  4  5  1  1
  4  6  1  0
  5 48  1  0
  5 49  1  0
  5 50  1  0
  6  7  1  0
  7  8  1  0
  7 40  1  0
  7 51  1  1
  8 38  1  0
  8  9  1  0
  8 52  1  1
  9 10  1  0
  9 53  1  0
  9 54  1  0
 10 11  1  0
 10 55  1  0
 10 56  1  0
 11 38  1  0
 11 12  1  0
 11 57  1  1
 12 13  1  0
 12 14  1  0
 12 58  1  6
 13 59  1  0
 14 36  1  0
 14 15  1  0
 14 60  1  1
 15 23  1  0
 15 16  1  0
 15 61  1  1
 16 27  1  0
 16 17  1  1
 16 19  1  0
 17 18  1  0
 18 62  1  0
 19 20  2  3
 19 21  1  0
 20 63  1  0
 21 22  1  0
 22 23  1  0
 22 36  1  0
 22 64  1  6
 23 24  1  1
 23 25  1  0
 24 65  1  0
 24 66  1  0
 24 67  1  0
 25 35  1  0
 25 26  1  0
 25 68  1  6
 26 27  1  0
 26 69  1  0
 26 70  1  0
 27 28  1  0
 27 71  1  6
 28 35  1  0
 28 29  1  6
 28 30  1  0
 29 72  1  0
 29 73  1  0
 29 74  1  0
 30 31  2  0
 30 75  1  0
 31 32  1  0
 31 76  1  0
 32 33  2  0
 32 34  1  0
 34 35  1  0
 34 77  1  0
 34 78  1  0
 35 79  1  1
 36 37  1  6
 36 38  1  0
 37 80  1  0
 37 81  1  0
 37 82  1  0
 38 39  1  6
 39 83  1  0
 39 84  1  0
 39 85  1  0
 40 41  1  0
 40 86  1  6
 41 42  1  0
 42 43  2  0
M  END
>  <i_m_ct_stereo_status>  (94) 
1

>  <s_m_source_file>  (94) 
/var/tmp/pbs.5076255.sched01/tmpyb5u0fxv/0ob_ovo1_.sdf

>  <i_m_source_file_index>  (94) 
43

>  <i_lp_mmshare_version>  (94) 
48012

>  <i_f3d_flags>  (94) 
0

>  <s_epik_input>  (94) 
W0NIM11DKD1bQ0hdMSlDKD1PKU9bQ0BIXShbQ0BAXTEyW0NIM10pW0NAQEhdKE8yKVtDQEBIXTNbQ0gyXVtDSDJdW0NAQEhdKFtDQEhdNFtPSF0pW0NAQF0zKFtDSDNdKVtDQEBdKFtDSDNdKShbQ0BIXTRbQ0BASF01W0NAXTY3T1tPSF0pW0NAQEhdKE9DXDY9Ti9bSF0pW0NAQF01KFtDSDNdKVtDQEhdOFtDQEhdOVtDQF0oW0NIM10pKFtDQEBIXTdbQ0gyXTgpW0NIXT1bQ0hdQyg9TylbQ0gyXTk=

>  <s_epik_cmdline>  (94) 
J2VwaWtfcHl0aG9uJywgJy1waHQnLCAnMi4wJywgJy1waCcsICc3LjAnLCAnLXRuJywgJzgnLCAnLW1hJywgJzIwMCcsICctaW1hZScsICc8aW5maWxlLm1hZT4nLCAnLW9tYWUnLCAnPG91dGZpbGUubWFlPic=

>  <r_lp_tautomer_probability>  (94) 
0.5

>  <r_epik_Ionization_Penalty>  (94) 
0.000549272

>  <r_epik_Ionization_Penalty_Charging>  (94) 
0

>  <r_epik_Ionization_Penalty_Neutral>  (94) 
0.000549272

>  <r_epik_State_Penalty>  (94) 
0.41068

>  <r_epik_Charging_Adjusted_Penalty>  (94) 
0.41068

>  <i_epik_Tot_Q>  (94) 
0

>  <i_epik_Tot_abs_Q>  (94) 
0

>  <s_epik_Chemistry_Notes>  (94) 
This compound has an ester and may undergo hydrolysis at high or low pH. This compound has an imine and may undergo hydrolysis.

>  <s_lp_Force_Field>  (94) 
OPLS3e

>  <r_lp_Energy>  (94) 
223.135

>  <b_lp_Chiralities_Consistent>  (94) 
1

>  <s_lp_Variant>  (94) 
29:0-1

>  <s_i_glide_gridfile>  (94) 
pfpi4k_grid

>  <i_i_glide_lignum>  (94) 
43

>  <i_i_glide_rotatable_bonds>  (94) 
4

>  <r_i_docking_score>  (94) 
-2.52145

>  <r_i_glide_ligand_efficiency>  (94) 
-0.0586385

>  <r_i_glide_ligand_efficiency_sa>  (94) 
-0.205434

>  <r_i_glide_ligand_efficiency_ln>  (94) 
-0.529584

>  <r_i_glide_gscore>  (94) 
-2.52145

>  <r_i_glide_lipo>  (94) 
0

>  <r_i_glide_hbond>  (94) 
-0.203468

>  <r_i_glide_metal>  (94) 
-0

>  <r_i_glide_rewards>  (94) 
0

>  <r_i_glide_evdw>  (94) 
-19.7545

>  <r_i_glide_ecoul>  (94) 
-8.58819

>  <r_i_glide_erotb>  (94) 
0.00748682

>  <r_i_glide_esite>  (94) 
-0.0495207

>  <r_i_glide_emodel>  (94) 
-32.5037

>  <r_i_glide_energy>  (94) 
-28.3426

>  <r_i_glide_einternal>  (94) 
2.24114

>  <r_i_glide_intrahb_reward>  (94) 
-0

>  <i_i_glide_confnum>  (94) 
5

>  <i_i_glide_posenum>  (94) 
2

>  <r_i_glide_eff_state_penalty>  (94) 
0

>  <ligand_id>  (94) 
29

>  <original_smiles>  (94) 
CC1=CC2(C)OC(C3CCC4C(O)C5C6C7(OO)C(=N)OC(C6(C)C6CC7C7(C)C=CC(=O)CC67)C5(C)C43C)C2OC1=O

>  <smiles>  (94) 
[H]N=C1OC2([H])C3(C([H])([H])[H])C4([H])C([H])([H])C([H])(C1(OO[H])C3([H])C1([H])C([H])(O[H])C3([H])C([H])([H])C([H])([H])C([H])(C5([H])OC6(C([H])([H])[H])C([H])=C(C([H])([H])[H])C(=O)OC56[H])C3(C([H])([H])[H])C21C([H])([H])[H])C1(C([H])([H])[H])C([H])=C([H])C(=O)C([H])([H])C41[H]

$$$$
29:1:0
     RDKit          3D

 86 94  0  0  1  0  0  0  0  0999 V2000
    1.6968   -1.7483    2.9226 C   0  0  0  0  0  0  0  0  0  0  0  0
    2.4656   -1.5624    4.2164 C   0  0  0  0  0  0  0  0  0  0  0  0
    1.8827   -1.3199    5.4270 C   0  0  0  0  0  0  0  0  0  0  0  0
    2.7824   -1.1302    6.6503 C   0  0  1  0  0  0  0  0  0  0  0  0
    3.1641    0.3451    6.8227 C   0  0  0  0  0  0  0  0  0  0  0  0
    2.5161   -1.7524    7.9277 O   0  0  0  0  0  0  0  0  0  0  0  0
    3.8873   -2.2562    7.9138 C   0  0  1  0  0  0  0  0  0  0  0  0
    4.0585   -3.6180    8.6294 C   0  0  2  0  0  0  0  0  0  0  0  0
    4.4283   -3.4797   10.1084 C   0  0  0  0  0  0  0  0  0  0  0  0
    4.9088   -4.8653   10.5423 C   0  0  0  0  0  0  0  0  0  0  0  0
    5.5409   -5.5380    9.2981 C   0  0  1  0  0  0  0  0  0  0  0  0
    5.0947   -7.0379    9.0182 C   0  0  1  0  0  0  0  0  0  0  0  0
    4.5742   -7.7335   10.1378 O   0  0  0  0  0  0  0  0  0  0  0  0
    4.0332   -6.7574    7.9705 C   0  0  2  0  0  0  0  0  0  0  0  0
    2.8246   -7.5430    7.3403 C   0  0  2  0  0  0  0  0  0  0  0  0
    3.0206   -8.6286    6.2073 C   0  0  2  0  0  0  0  0  0  0  0  0
    3.6786   -9.7821    6.7534 O   0  0  0  0  0  0  0  0  0  0  0  0
    3.0127  -10.2570    7.9457 O   0  0  0  0  0  0  0  0  0  0  0  0
    3.9233   -8.0567    5.1005 C   0  0  0  0  0  0  0  0  0  0  0  0
    4.6760   -8.7446    4.3699 N   0  0  0  0  0  0  0  0  0  0  0  0
    3.8930   -6.6721    4.9437 O   0  0  0  0  0  0  0  0  0  0  0  0
    3.4111   -5.7929    5.9737 C   0  0  1  0  0  0  0  0  0  0  0  0
    2.0616   -6.3869    6.6142 C   0  0  2  0  0  0  0  0  0  0  0  0
    1.2923   -5.4362    7.6042 C   0  0  0  0  0  0  0  0  0  0  0  0
    0.8268   -6.8893    5.6982 C   0  0  2  0  0  0  0  0  0  0  0  0
    0.4784   -8.2706    6.2743 C   0  0  0  0  0  0  0  0  0  0  0  0
    1.5980   -9.1048    5.5933 C   0  0  1  0  0  0  0  0  0  0  0  0
    1.1607   -8.7703    4.1023 C   0  0  2  0  0  0  0  0  0  0  0  0
   -0.1724   -9.5296    3.7604 C   0  0  0  0  0  0  0  0  0  0  0  0
    2.0158   -9.0448    2.8753 C   0  0  0  0  0  0  0  0  0  0  0  0
    1.8787   -8.2873    1.7602 C   0  0  0  0  0  0  0  0  0  0  0  0
    0.8999   -7.1479    1.7146 C   0  0  0  0  0  0  0  0  0  0  0  0
    0.6099   -6.5408    0.6763 O   0  0  0  0  0  0  0  0  0  0  0  0
    0.2142   -6.6858    3.0242 C   0  0  0  0  0  0  0  0  0  0  0  0
    1.0454   -7.2359    4.1964 C   0  0  1  0  0  0  0  0  0  0  0  0
    4.6467   -5.7639    7.0086 C   0  0  2  0  0  0  0  0  0  0  0  0
    6.0051   -6.2896    6.3841 C   0  0  0  0  0  0  0  0  0  0  0  0
    5.1189   -4.6346    8.0502 C   0  0  1  0  0  0  0  0  0  0  0  0
    6.3442   -3.7717    7.5891 C   0  0  0  0  0  0  0  0  0  0  0  0
    3.7740   -2.2339    6.4098 C   0  0  2  0  0  0  0  0  0  0  0  0
    4.5893   -1.7624    5.3644 O   0  0  0  0  0  0  0  0  0  0  0  0
    3.9873   -1.6488    4.1389 C   0  0  0  0  0  0  0  0  0  0  0  0
    4.5917   -1.5916    3.0712 O   0  0  0  0  0  0  0  0  0  0  0  0
    1.9935   -2.6782    2.4263 H   0  0  0  0  0  0  0  0  0  0  0  0
    1.9064   -0.9248    2.2353 H   0  0  0  0  0  0  0  0  0  0  0  0
    0.6188   -1.7823    3.0901 H   0  0  0  0  0  0  0  0  0  0  0  0
    0.8158   -1.2386    5.5488 H   0  0  0  0  0  0  0  0  0  0  0  0
    3.6129    0.7514    5.9093 H   0  0  0  0  0  0  0  0  0  0  0  0
    3.8964    0.4947    7.6198 H   0  0  0  0  0  0  0  0  0  0  0  0
    2.2986    0.9635    7.0552 H   0  0  0  0  0  0  0  0  0  0  0  0
    4.6074   -1.5022    8.2694 H   0  0  0  0  0  0  0  0  0  0  0  0
    3.0961   -4.0908    8.6335 H   0  0  0  0  0  0  0  0  0  0  0  0
    5.2366   -2.7590   10.2385 H   0  0  0  0  0  0  0  0  0  0  0  0
    3.5893   -3.1301   10.7119 H   0  0  0  0  0  0  0  0  0  0  0  0
    5.6189   -4.7999   11.3691 H   0  0  0  0  0  0  0  0  0  0  0  0
    4.0502   -5.4272   10.9114 H   0  0  0  0  0  0  0  0  0  0  0  0
    6.6248   -5.5297    9.4352 H   0  0  0  0  0  0  0  0  0  0  0  0
    5.9139   -7.6312    8.6161 H   0  0  0  0  0  0  0  0  0  0  0  0
    4.3629   -8.6098    9.8618 H   0  0  0  0  0  0  0  0  0  0  0  0
    3.4227   -6.2027    8.6596 H   0  0  0  0  0  0  0  0  0  0  0  0
    2.2554   -7.9312    8.1831 H   0  0  0  0  0  0  0  0  0  0  0  0
    2.4588  -10.9612    7.6198 H   0  0  0  0  0  0  0  0  0  0  0  0
    5.1849   -8.1598    3.7136 H   0  0  0  0  0  0  0  0  0  0  0  0
    3.2333   -4.8843    5.4298 H   0  0  0  0  0  0  0  0  0  0  0  0
    1.3136   -4.3986    7.2626 H   0  0  0  0  0  0  0  0  0  0  0  0
    1.5886   -5.4738    8.6489 H   0  0  0  0  0  0  0  0  0  0  0  0
    0.2399   -5.7016    7.7177 H   0  0  0  0  0  0  0  0  0  0  0  0
   -0.0349   -6.2207    5.7342 H   0  0  0  0  0  0  0  0  0  0  0  0
    0.4420   -8.3307    7.3582 H   0  0  0  0  0  0  0  0  0  0  0  0
   -0.5329   -8.5743    6.0152 H   0  0  0  0  0  0  0  0  0  0  0  0
    1.4533  -10.1642    5.7944 H   0  0  0  0  0  0  0  0  0  0  0  0
   -1.0854   -9.0480    4.1115 H   0  0  0  0  0  0  0  0  0  0  0  0
   -0.1612  -10.5447    4.1605 H   0  0  0  0  0  0  0  0  0  0  0  0
   -0.3332   -9.6506    2.6858 H   0  0  0  0  0  0  0  0  0  0  0  0
    2.7000   -9.8824    2.9088 H   0  0  0  0  0  0  0  0  0  0  0  0
    2.4678   -8.5002    0.8896 H   0  0  0  0  0  0  0  0  0  0  0  0
    0.2212   -5.5942    3.0468 H   0  0  0  0  0  0  0  0  0  0  0  0
   -0.8217   -7.0154    3.0386 H   0  0  0  0  0  0  0  0  0  0  0  0
    1.9667   -6.7505    3.9353 H   0  0  0  0  0  0  0  0  0  0  0  0
    6.2651   -5.7524    5.4716 H   0  0  0  0  0  0  0  0  0  0  0  0
    6.0393   -7.3540    6.1792 H   0  0  0  0  0  0  0  0  0  0  0  0
    6.8638   -6.2254    7.0486 H   0  0  0  0  0  0  0  0  0  0  0  0
    7.2972   -4.2990    7.5554 H   0  0  0  0  0  0  0  0  0  0  0  0
    6.5343   -2.9401    8.2702 H   0  0  0  0  0  0  0  0  0  0  0  0
    6.1969   -3.3549    6.5965 H   0  0  0  0  0  0  0  0  0  0  0  0
    3.2249   -3.1111    6.1413 H   0  0  0  0  0  0  0  0  0  0  0  0
  1  2  1  0
  1 44  1  0
  1 45  1  0
  1 46  1  0
  2 42  1  0
  2  3  2  0
  3  4  1  0
  3 47  1  0
  4 40  1  0
  4  5  1  1
  4  6  1  0
  5 48  1  0
  5 49  1  0
  5 50  1  0
  6  7  1  0
  7  8  1  0
  7 40  1  0
  7 51  1  6
  8 38  1  0
  8  9  1  0
  8 52  1  1
  9 10  1  0
  9 53  1  0
  9 54  1  0
 10 11  1  0
 10 55  1  0
 10 56  1  0
 11 38  1  0
 11 12  1  0
 11 57  1  1
 12 13  1  0
 12 14  1  0
 12 58  1  6
 13 59  1  0
 14 36  1  0
 14 15  1  0
 14 60  1  1
 15 23  1  0
 15 16  1  0
 15 61  1  1
 16 27  1  0
 16 17  1  1
 16 19  1  0
 17 18  1  0
 18 62  1  0
 19 20  2  3
 19 21  1  0
 20 63  1  0
 21 22  1  0
 22 23  1  0
 22 36  1  0
 22 64  1  6
 23 24  1  1
 23 25  1  0
 24 65  1  0
 24 66  1  0
 24 67  1  0
 25 35  1  0
 25 26  1  0
 25 68  1  6
 26 27  1  0
 26 69  1  0
 26 70  1  0
 27 28  1  0
 27 71  1  6
 28 35  1  0
 28 29  1  6
 28 30  1  0
 29 72  1  0
 29 73  1  0
 29 74  1  0
 30 31  2  0
 30 75  1  0
 31 32  1  0
 31 76  1  0
 32 33  2  0
 32 34  1  0
 34 35  1  0
 34 77  1  0
 34 78  1  0
 35 79  1  6
 36 37  1  6
 36 38  1  0
 37 80  1  0
 37 81  1  0
 37 82  1  0
 38 39  1  6
 39 83  1  0
 39 84  1  0
 39 85  1  0
 40 41  1  0
 40 86  1  6
 41 42  1  0
 42 43  2  0
M  END
>  <i_m_ct_stereo_status>  (95) 
1

>  <s_m_source_file>  (95) 
/var/tmp/pbs.5076255.sched01/tmpyb5u0fxv/0ob_ovo1_.sdf

>  <i_m_source_file_index>  (95) 
44

>  <i_lp_mmshare_version>  (95) 
48012

>  <i_f3d_flags>  (95) 
0

>  <s_epik_input>  (95) 
W0NIM11DKD1bQ0hdMSlDKD1PKU9bQ0BIXShbQ0BAXTEyW0NIM10pW0NAQEhdKE8yKVtDQEBIXTNbQ0gyXVtDSDJdW0NAQEhdKFtDQEhdNFtPSF0pW0NAQF0zKFtDSDNdKVtDQEBdKFtDSDNdKShbQ0BIXTRbQ0BASF01W0NAXTY3T1tPSF0pW0NAQEhdKE9DXDY9Ti9bSF0pW0NAQF01KFtDSDNdKVtDQEhdOFtDQEhdOVtDQF0oW0NIM10pKFtDQEBIXTdbQ0gyXTgpW0NIXT1bQ0hdQyg9TylbQ0gyXTk=

>  <s_epik_cmdline>  (95) 
J2VwaWtfcHl0aG9uJywgJy1waHQnLCAnMi4wJywgJy1waCcsICc3LjAnLCAnLXRuJywgJzgnLCAnLW1hJywgJzIwMCcsICctaW1hZScsICc8aW5maWxlLm1hZT4nLCAnLW9tYWUnLCAnPG91dGZpbGUubWFlPic=

>  <r_lp_tautomer_probability>  (95) 
0.5

>  <r_epik_Ionization_Penalty>  (95) 
0.000549272

>  <r_epik_Ionization_Penalty_Charging>  (95) 
0

>  <r_epik_Ionization_Penalty_Neutral>  (95) 
0.000549272

>  <r_epik_State_Penalty>  (95) 
0.41068

>  <r_epik_Charging_Adjusted_Penalty>  (95) 
0.41068

>  <i_epik_Tot_Q>  (95) 
0

>  <i_epik_Tot_abs_Q>  (95) 
0

>  <s_epik_Chemistry_Notes>  (95) 
This compound has an ester and may undergo hydrolysis at high or low pH. This compound has an imine and may undergo hydrolysis.

>  <s_lp_Force_Field>  (95) 
OPLS3e

>  <r_lp_Energy>  (95) 
223.602

>  <b_lp_Chiralities_Consistent>  (95) 
1

>  <s_lp_Variant>  (95) 
29:0-2

>  <s_i_glide_gridfile>  (95) 
pfpi4k_grid

>  <i_i_glide_lignum>  (95) 
44

>  <i_i_glide_rotatable_bonds>  (95) 
4

>  <r_i_docking_score>  (95) 
-2.31354

>  <r_i_glide_ligand_efficiency>  (95) 
-0.0538032

>  <r_i_glide_ligand_efficiency_sa>  (95) 
-0.188494

>  <r_i_glide_ligand_efficiency_ln>  (95) 
-0.485915

>  <r_i_glide_gscore>  (95) 
-2.31354

>  <r_i_glide_lipo>  (95) 
-0.00627448

>  <r_i_glide_hbond>  (95) 
-0.16632

>  <r_i_glide_metal>  (95) 
-0

>  <r_i_glide_rewards>  (95) 
-0.000165381

>  <r_i_glide_evdw>  (95) 
-19.7252

>  <r_i_glide_ecoul>  (95) 
-7.34702

>  <r_i_glide_erotb>  (95) 
0.00748682

>  <r_i_glide_esite>  (95) 
-0.0599514

>  <r_i_glide_emodel>  (95) 
-30.5278

>  <r_i_glide_energy>  (95) 
-27.0723

>  <r_i_glide_einternal>  (95) 
1.29367

>  <r_i_glide_intrahb_reward>  (95) 
-0

>  <i_i_glide_confnum>  (95) 
3

>  <i_i_glide_posenum>  (95) 
32

>  <r_i_glide_eff_state_penalty>  (95) 
0

>  <ligand_id>  (95) 
29

>  <original_smiles>  (95) 
CC1=CC2(C)OC(C3CCC4C(O)C5C6C7(OO)C(=N)OC(C6(C)C6CC7C7(C)C=CC(=O)CC67)C5(C)C43C)C2OC1=O

>  <smiles>  (95) 
[H]N=C1OC2([H])C3(C([H])([H])[H])C4([H])C([H])([H])C([H])(C1(OO[H])C3([H])C1([H])C([H])(O[H])C3([H])C([H])([H])C([H])([H])C([H])(C5([H])OC6(C([H])([H])[H])C([H])=C(C([H])([H])[H])C(=O)OC56[H])C3(C([H])([H])[H])C21C([H])([H])[H])C1(C([H])([H])[H])C([H])=C([H])C(=O)C([H])([H])C41[H]

$$$$
29:1:1
     RDKit          3D

 86 94  0  0  1  0  0  0  0  0999 V2000
    5.4056   -7.9453    1.2710 C   0  0  0  0  0  0  0  0  0  0  0  0
    5.3124   -6.4342    1.3714 C   0  0  0  0  0  0  0  0  0  0  0  0
    4.5937   -5.6537    0.5183 C   0  0  0  0  0  0  0  0  0  0  0  0
    4.6051   -4.1549    0.7287 C   0  0  1  0  0  0  0  0  0  0  0  0
    5.7700   -3.4944   -0.0386 C   0  0  0  0  0  0  0  0  0  0  0  0
    3.3983   -3.3415    0.6528 O   0  0  0  0  0  0  0  0  0  0  0  0
    3.7846   -2.7610    1.9546 C   0  0  1  0  0  0  0  0  0  0  0  0
    2.5565   -2.3575    2.8069 C   0  0  2  0  0  0  0  0  0  0  0  0
    1.8131   -1.1447    2.2455 C   0  0  0  0  0  0  0  0  0  0  0  0
    0.8883   -0.6813    3.3733 C   0  0  0  0  0  0  0  0  0  0  0  0
    1.5929   -1.0248    4.7081 C   0  0  1  0  0  0  0  0  0  0  0  0
    0.6770   -1.7298    5.8052 C   0  0  1  0  0  0  0  0  0  0  0  0
   -0.7167   -1.4981    5.6849 O   0  0  0  0  0  0  0  0  0  0  0  0
    1.1065   -3.1647    5.5453 C   0  0  2  0  0  0  0  0  0  0  0  0
    0.5570   -4.5940    5.8868 C   0  0  2  0  0  0  0  0  0  0  0  0
    0.7580   -5.2713    7.3014 C   0  0  2  0  0  0  0  0  0  0  0  0
   -0.0161   -4.5493    8.2683 O   0  0  0  0  0  0  0  0  0  0  0  0
   -1.4286   -4.5266    7.8811 O   0  0  0  0  0  0  0  0  0  0  0  0
    2.2383   -5.1563    7.6963 C   0  0  0  0  0  0  0  0  0  0  0  0
    2.6327   -5.0959    8.8968 N   0  0  0  0  0  0  0  0  0  0  0  0
    3.1715   -5.1106    6.6608 O   0  0  0  0  0  0  0  0  0  0  0  0
    2.7836   -4.7351    5.3125 C   0  0  1  0  0  0  0  0  0  0  0  0
    1.4163   -5.4928    4.9291 C   0  0  2  0  0  0  0  0  0  0  0  0
    0.9690   -5.3897    3.4303 C   0  0  0  0  0  0  0  0  0  0  0  0
    1.2123   -7.0815    5.1643 C   0  0  2  0  0  0  0  0  0  0  0  0
   -0.1587   -7.1783    5.8516 C   0  0  0  0  0  0  0  0  0  0  0  0
    0.2762   -6.8146    7.2998 C   0  0  1  0  0  0  0  0  0  0  0  0
    1.2871   -8.0179    7.4711 C   0  0  2  0  0  0  0  0  0  0  0  0
    0.4838   -9.3629    7.6153 C   0  0  0  0  0  0  0  0  0  0  0  0
    2.3210   -8.1278    8.5878 C   0  0  0  0  0  0  0  0  0  0  0  0
    3.4653   -8.8304    8.3966 C   0  0  0  0  0  0  0  0  0  0  0  0
    3.7637   -9.4900    7.0834 C   0  0  0  0  0  0  0  0  0  0  0  0
    4.7102  -10.2596    6.9362 O   0  0  0  0  0  0  0  0  0  0  0  0
    2.8706   -9.1667    5.8555 C   0  0  0  0  0  0  0  0  0  0  0  0
    2.1039   -7.8701    6.1654 C   0  0  1  0  0  0  0  0  0  0  0  0
    2.6131   -3.1422    5.4369 C   0  0  2  0  0  0  0  0  0  0  0  0
    3.3075   -2.5283    6.7237 C   0  0  0  0  0  0  0  0  0  0  0  0
    2.7960   -2.0046    4.3224 C   0  0  1  0  0  0  0  0  0  0  0  0
    4.1590   -1.2334    4.3831 C   0  0  0  0  0  0  0  0  0  0  0  0
    4.4544   -4.0836    2.2389 C   0  0  2  0  0  0  0  0  0  0  0  0
    5.7165   -4.4624    2.7485 O   0  0  0  0  0  0  0  0  0  0  0  0
    6.0730   -5.7827    2.5065 C   0  0  0  0  0  0  0  0  0  0  0  0
    6.9451   -6.3512    3.1557 O   0  0  0  0  0  0  0  0  0  0  0  0
    5.1325   -8.4112    2.2225 H   0  0  0  0  0  0  0  0  0  0  0  0
    6.4275   -8.2467    1.0315 H   0  0  0  0  0  0  0  0  0  0  0  0
    4.7424   -8.3415    0.4976 H   0  0  0  0  0  0  0  0  0  0  0  0
    4.0448   -6.0510   -0.3211 H   0  0  0  0  0  0  0  0  0  0  0  0
    6.7286   -3.9579    0.2083 H   0  0  0  0  0  0  0  0  0  0  0  0
    5.8768   -2.4315    0.1715 H   0  0  0  0  0  0  0  0  0  0  0  0
    5.6418   -3.5973   -1.1147 H   0  0  0  0  0  0  0  0  0  0  0  0
    4.5066   -1.9539    1.8202 H   0  0  0  0  0  0  0  0  0  0  0  0
    1.8551   -3.1629    2.7351 H   0  0  0  0  0  0  0  0  0  0  0  0
    2.5060   -0.3473    1.9781 H   0  0  0  0  0  0  0  0  0  0  0  0
    1.2579   -1.4000    1.3418 H   0  0  0  0  0  0  0  0  0  0  0  0
    0.6717    0.3848    3.2926 H   0  0  0  0  0  0  0  0  0  0  0  0
   -0.0592   -1.2067    3.2783 H   0  0  0  0  0  0  0  0  0  0  0  0
    1.9748   -0.0933    5.1310 H   0  0  0  0  0  0  0  0  0  0  0  0
    0.9576   -1.4217    6.8129 H   0  0  0  0  0  0  0  0  0  0  0  0
   -0.9446   -1.5356    4.7665 H   0  0  0  0  0  0  0  0  0  0  0  0
    0.7117   -3.1591    4.5441 H   0  0  0  0  0  0  0  0  0  0  0  0
   -0.4928   -4.5812    5.6017 H   0  0  0  0  0  0  0  0  0  0  0  0
   -1.7513   -5.2941    8.3348 H   0  0  0  0  0  0  0  0  0  0  0  0
    3.6379   -5.0242    8.9529 H   0  0  0  0  0  0  0  0  0  0  0  0
    3.6032   -5.0113    4.6569 H   0  0  0  0  0  0  0  0  0  0  0  0
    1.8079   -5.4814    2.7461 H   0  0  0  0  0  0  0  0  0  0  0  0
    0.3931   -4.5144    3.1658 H   0  0  0  0  0  0  0  0  0  0  0  0
    0.2706   -6.1756    3.1372 H   0  0  0  0  0  0  0  0  0  0  0  0
    1.2169   -7.6566    4.2368 H   0  0  0  0  0  0  0  0  0  0  0  0
   -0.9459   -6.5583    5.4280 H   0  0  0  0  0  0  0  0  0  0  0  0
   -0.5783   -8.1712    5.7251 H   0  0  0  0  0  0  0  0  0  0  0  0
   -0.5460   -6.9423    8.0013 H   0  0  0  0  0  0  0  0  0  0  0  0
    0.1574   -9.8153    6.6778 H   0  0  0  0  0  0  0  0  0  0  0  0
   -0.3956   -9.2313    8.2448 H   0  0  0  0  0  0  0  0  0  0  0  0
    1.0682  -10.1520    8.0921 H   0  0  0  0  0  0  0  0  0  0  0  0
    2.0894   -7.6674    9.5386 H   0  0  0  0  0  0  0  0  0  0  0  0
    4.1921   -8.9392    9.1881 H   0  0  0  0  0  0  0  0  0  0  0  0
    3.5149   -9.0227    4.9881 H   0  0  0  0  0  0  0  0  0  0  0  0
    2.2177  -10.0123    5.6364 H   0  0  0  0  0  0  0  0  0  0  0  0
    2.9661   -7.2449    6.3066 H   0  0  0  0  0  0  0  0  0  0  0  0
    4.3581   -2.8121    6.7957 H   0  0  0  0  0  0  0  0  0  0  0  0
    2.8233   -2.7582    7.6647 H   0  0  0  0  0  0  0  0  0  0  0  0
    3.2638   -1.4448    6.7821 H   0  0  0  0  0  0  0  0  0  0  0  0
    4.2814   -0.5825    5.2469 H   0  0  0  0  0  0  0  0  0  0  0  0
    4.2709   -0.5460    3.5448 H   0  0  0  0  0  0  0  0  0  0  0  0
    5.0094   -1.9159    4.3669 H   0  0  0  0  0  0  0  0  0  0  0  0
    3.6956   -4.7769    2.5789 H   0  0  0  0  0  0  0  0  0  0  0  0
  1  2  1  0
  1 44  1  0
  1 45  1  0
  1 46  1  0
  2 42  1  0
  2  3  2  0
  3  4  1  0
  3 47  1  0
  4 40  1  0
  4  5  1  1
  4  6  1  0
  5 48  1  0
  5 49  1  0
  5 50  1  0
  6  7  1  0
  7  8  1  0
  7 40  1  0
  7 51  1  6
  8 38  1  0
  8  9  1  0
  8 52  1  1
  9 10  1  0
  9 53  1  0
  9 54  1  0
 10 11  1  0
 10 55  1  0
 10 56  1  0
 11 38  1  0
 11 12  1  0
 11 57  1  1
 12 13  1  0
 12 14  1  0
 12 58  1  1
 13 59  1  0
 14 36  1  0
 14 15  1  0
 14 60  1  6
 15 23  1  0
 15 16  1  0
 15 61  1  6
 16 27  1  0
 16 17  1  1
 16 19  1  0
 17 18  1  0
 18 62  1  0
 19 20  2  3
 19 21  1  0
 20 63  1  0
 21 22  1  0
 22 23  1  0
 22 36  1  0
 22 64  1  6
 23 24  1  6
 23 25  1  0
 24 65  1  0
 24 66  1  0
 24 67  1  0
 25 35  1  0
 25 26  1  0
 25 68  1  6
 26 27  1  0
 26 69  1  0
 26 70  1  0
 27 28  1  0
 27 71  1  1
 28 35  1  0
 28 29  1  6
 28 30  1  0
 29 72  1  0
 29 73  1  0
 29 74  1  0
 30 31  2  0
 30 75  1  0
 31 32  1  0
 31 76  1  0
 32 33  2  0
 32 34  1  0
 34 35  1  0
 34 77  1  0
 34 78  1  0
 35 79  1  1
 36 37  1  1
 36 38  1  0
 37 80  1  0
 37 81  1  0
 37 82  1  0
 38 39  1  6
 39 83  1  0
 39 84  1  0
 39 85  1  0
 40 41  1  0
 40 86  1  1
 41 42  1  0
 42 43  2  0
M  END
>  <i_m_ct_stereo_status>  (96) 
1

>  <s_m_source_file>  (96) 
/var/tmp/pbs.5076255.sched01/tmpyb5u0fxv/0ob_ovo1_.sdf

>  <i_m_source_file_index>  (96) 
44

>  <i_lp_mmshare_version>  (96) 
48012

>  <i_f3d_flags>  (96) 
0

>  <s_epik_input>  (96) 
W0NIM11DKD1bQ0hdMSlDKD1PKU9bQ0BIXShbQ0BAXTEyW0NIM10pW0NAQEhdKE8yKVtDQEBIXTNbQ0gyXVtDSDJdW0NAQEhdKFtDQEhdNFtPSF0pW0NAQF0zKFtDSDNdKVtDQEBdKFtDSDNdKShbQ0BIXTRbQ0BASF01W0NAXTY3T1tPSF0pW0NAQEhdKE9DXDY9Ti9bSF0pW0NAQF01KFtDSDNdKVtDQEhdOFtDQEhdOVtDQF0oW0NIM10pKFtDQEBIXTdbQ0gyXTgpW0NIXT1bQ0hdQyg9TylbQ0gyXTk=

>  <s_epik_cmdline>  (96) 
J2VwaWtfcHl0aG9uJywgJy1waHQnLCAnMi4wJywgJy1waCcsICc3LjAnLCAnLXRuJywgJzgnLCAnLW1hJywgJzIwMCcsICctaW1hZScsICc8aW5maWxlLm1hZT4nLCAnLW9tYWUnLCAnPG91dGZpbGUubWFlPic=

>  <r_lp_tautomer_probability>  (96) 
0.5

>  <r_epik_Ionization_Penalty>  (96) 
0.000549272

>  <r_epik_Ionization_Penalty_Charging>  (96) 
0

>  <r_epik_Ionization_Penalty_Neutral>  (96) 
0.000549272

>  <r_epik_State_Penalty>  (96) 
0.41068

>  <r_epik_Charging_Adjusted_Penalty>  (96) 
0.41068

>  <i_epik_Tot_Q>  (96) 
0

>  <i_epik_Tot_abs_Q>  (96) 
0

>  <s_epik_Chemistry_Notes>  (96) 
This compound has an ester and may undergo hydrolysis at high or low pH. This compound has an imine and may undergo hydrolysis.

>  <s_lp_Force_Field>  (96) 
OPLS3e

>  <r_lp_Energy>  (96) 
223.602

>  <b_lp_Chiralities_Consistent>  (96) 
1

>  <s_lp_Variant>  (96) 
29:0-2

>  <s_i_glide_gridfile>  (96) 
pfpi4k_grid

>  <i_i_glide_lignum>  (96) 
44

>  <i_i_glide_rotatable_bonds>  (96) 
4

>  <r_i_docking_score>  (96) 
-2.10569

>  <r_i_glide_ligand_efficiency>  (96) 
-0.0489695

>  <r_i_glide_ligand_efficiency_sa>  (96) 
-0.17156

>  <r_i_glide_ligand_efficiency_ln>  (96) 
-0.44226

>  <r_i_glide_gscore>  (96) 
-2.10569

>  <r_i_glide_lipo>  (96) 
-0.371127

>  <r_i_glide_hbond>  (96) 
0

>  <r_i_glide_metal>  (96) 
-0

>  <r_i_glide_rewards>  (96) 
-0.0307099

>  <r_i_glide_evdw>  (96) 
-23.7756

>  <r_i_glide_ecoul>  (96) 
-3.30948

>  <r_i_glide_erotb>  (96) 
0.00748682

>  <r_i_glide_esite>  (96) 
-0.0261386

>  <r_i_glide_emodel>  (96) 
-30.8685

>  <r_i_glide_energy>  (96) 
-27.0851

>  <r_i_glide_einternal>  (96) 
0.48609

>  <r_i_glide_intrahb_reward>  (96) 
-0

>  <i_i_glide_confnum>  (96) 
5

>  <i_i_glide_posenum>  (96) 
4

>  <r_i_glide_eff_state_penalty>  (96) 
0

>  <ligand_id>  (96) 
29

>  <original_smiles>  (96) 
CC1=CC2(C)OC(C3CCC4C(O)C5C6C7(OO)C(=N)OC(C6(C)C6CC7C7(C)C=CC(=O)CC67)C5(C)C43C)C2OC1=O

>  <smiles>  (96) 
[H]N=C1OC2([H])C3(C([H])([H])[H])C4([H])C([H])([H])C([H])(C1(OO[H])C3([H])C1([H])C([H])(O[H])C3([H])C([H])([H])C([H])([H])C([H])(C5([H])OC6(C([H])([H])[H])C([H])=C(C([H])([H])[H])C(=O)OC56[H])C3(C([H])([H])[H])C21C([H])([H])[H])C1(C([H])([H])[H])C([H])=C([H])C(=O)C([H])([H])C41[H]

$$$$
29:1:2
     RDKit          3D

 86 94  0  0  1  0  0  0  0  0999 V2000
    2.7498   -4.0418    7.1044 C   0  0  0  0  0  0  0  0  0  0  0  0
    4.2534   -4.2189    7.2021 C   0  0  0  0  0  0  0  0  0  0  0  0
    4.8963   -4.7458    8.2820 C   0  0  0  0  0  0  0  0  0  0  0  0
    6.4091   -4.8449    8.2511 C   0  0  1  0  0  0  0  0  0  0  0  0
    7.0635   -3.5592    8.7916 C   0  0  0  0  0  0  0  0  0  0  0  0
    7.1444   -6.0234    8.6971 O   0  0  0  0  0  0  0  0  0  0  0  0
    7.8579   -5.9918    7.4041 C   0  0  1  0  0  0  0  0  0  0  0  0
    8.2591   -7.3994    6.9037 C   0  0  2  0  0  0  0  0  0  0  0  0
    9.5240   -7.9341    7.5805 C   0  0  0  0  0  0  0  0  0  0  0  0
    9.9669   -9.1206    6.7228 C   0  0  0  0  0  0  0  0  0  0  0  0
    9.5301   -8.8146    5.2679 C   0  0  1  0  0  0  0  0  0  0  0  0
    8.8037  -10.0073    4.5078 C   0  0  1  0  0  0  0  0  0  0  0  0
    9.0684  -11.2935    5.0297 O   0  0  0  0  0  0  0  0  0  0  0  0
    7.3693   -9.5618    4.7196 C   0  0  2  0  0  0  0  0  0  0  0  0
    5.9493  -10.2253    4.6287 C   0  0  2  0  0  0  0  0  0  0  0  0
    5.1998  -10.4400    3.2526 C   0  0  2  0  0  0  0  0  0  0  0  0
    5.9410  -11.4174    2.5158 O   0  0  0  0  0  0  0  0  0  0  0  0
    5.9273  -12.6990    3.2185 O   0  0  0  0  0  0  0  0  0  0  0  0
    5.2375   -9.1269    2.4544 C   0  0  0  0  0  0  0  0  0  0  0  0
    5.2292   -9.0613    1.1910 N   0  0  0  0  0  0  0  0  0  0  0  0
    5.2949   -7.9475    3.1877 O   0  0  0  0  0  0  0  0  0  0  0  0
    5.7481   -7.9372    4.5638 C   0  0  1  0  0  0  0  0  0  0  0  0
    5.0676   -9.1579    5.3646 C   0  0  2  0  0  0  0  0  0  0  0  0
    5.2748   -9.1572    6.9214 C   0  0  0  0  0  0  0  0  0  0  0  0
    3.4777   -9.4616    5.2920 C   0  0  2  0  0  0  0  0  0  0  0  0
    3.3992  -10.9723    5.0084 C   0  0  0  0  0  0  0  0  0  0  0  0
    3.6740  -10.9412    3.4785 C   0  0  1  0  0  0  0  0  0  0  0  0
    2.4246  -10.0389    3.1144 C   0  0  2  0  0  0  0  0  0  0  0  0
    1.1019  -10.8790    3.2711 C   0  0  0  0  0  0  0  0  0  0  0  0
    2.2255   -9.3519    1.7711 C   0  0  0  0  0  0  0  0  0  0  0  0
    1.4949   -8.2101    1.6821 C   0  0  0  0  0  0  0  0  0  0  0  0
    0.8820   -7.5788    2.8908 C   0  0  0  0  0  0  0  0  0  0  0  0
    0.0599   -6.6612    2.8048 O   0  0  0  0  0  0  0  0  0  0  0  0
    1.3001   -8.0908    4.2968 C   0  0  0  0  0  0  0  0  0  0  0  0
    2.6066   -8.8918    4.1355 C   0  0  1  0  0  0  0  0  0  0  0  0
    7.3412   -8.0858    4.4061 C   0  0  2  0  0  0  0  0  0  0  0  0
    7.8679   -7.7652    2.9459 C   0  0  0  0  0  0  0  0  0  0  0  0
    8.5261   -7.5769    5.3627 C   0  0  1  0  0  0  0  0  0  0  0  0
    9.2455   -6.2690    4.8866 C   0  0  0  0  0  0  0  0  0  0  0  0
    6.6097   -5.3634    6.8415 C   0  0  2  0  0  0  0  0  0  0  0  0
    6.3708   -4.2506    6.0020 O   0  0  0  0  0  0  0  0  0  0  0  0
    5.0662   -3.7819    6.0028 C   0  0  0  0  0  0  0  0  0  0  0  0
    4.6288   -3.0599    5.1112 O   0  0  0  0  0  0  0  0  0  0  0  0
    2.3651   -4.5098    6.1928 H   0  0  0  0  0  0  0  0  0  0  0  0
    2.4961   -2.9806    7.0713 H   0  0  0  0  0  0  0  0  0  0  0  0
    2.2354   -4.4892    7.9575 H   0  0  0  0  0  0  0  0  0  0  0  0
    4.3753   -5.0675    9.1691 H   0  0  0  0  0  0  0  0  0  0  0  0
    6.6892   -2.6703    8.2771 H   0  0  0  0  0  0  0  0  0  0  0  0
    8.1468   -3.5521    8.6823 H   0  0  0  0  0  0  0  0  0  0  0  0
    6.8459   -3.4251    9.8498 H   0  0  0  0  0  0  0  0  0  0  0  0
    8.6947   -5.2902    7.4309 H   0  0  0  0  0  0  0  0  0  0  0  0
    7.4815   -8.0699    7.2058 H   0  0  0  0  0  0  0  0  0  0  0  0
   10.3076   -7.1773    7.5954 H   0  0  0  0  0  0  0  0  0  0  0  0
    9.3388   -8.2261    8.6160 H   0  0  0  0  0  0  0  0  0  0  0  0
   11.0430   -9.2836    6.7954 H   0  0  0  0  0  0  0  0  0  0  0  0
    9.4864  -10.0191    7.1092 H   0  0  0  0  0  0  0  0  0  0  0  0
   10.4250   -8.5500    4.7003 H   0  0  0  0  0  0  0  0  0  0  0  0
    9.0574  -10.0202    3.4472 H   0  0  0  0  0  0  0  0  0  0  0  0
    8.5627  -11.9227    4.5395 H   0  0  0  0  0  0  0  0  0  0  0  0
    7.4376   -9.6665    5.7891 H   0  0  0  0  0  0  0  0  0  0  0  0
    6.0149  -11.1560    5.1914 H   0  0  0  0  0  0  0  0  0  0  0  0
    6.6987  -12.6139    3.7563 H   0  0  0  0  0  0  0  0  0  0  0  0
    5.2531   -8.1053    0.8715 H   0  0  0  0  0  0  0  0  0  0  0  0
    5.4479   -6.9703    4.9426 H   0  0  0  0  0  0  0  0  0  0  0  0
    5.2062   -8.1519    7.3359 H   0  0  0  0  0  0  0  0  0  0  0  0
    6.1710   -9.6388    7.2990 H   0  0  0  0  0  0  0  0  0  0  0  0
    4.5267   -9.7527    7.4479 H   0  0  0  0  0  0  0  0  0  0  0  0
    2.9534   -9.2143    6.2165 H   0  0  0  0  0  0  0  0  0  0  0  0
    4.0708  -11.5955    5.5946 H   0  0  0  0  0  0  0  0  0  0  0  0
    2.4373  -11.3852    5.2995 H   0  0  0  0  0  0  0  0  0  0  0  0
    3.5358  -11.9314    3.0460 H   0  0  0  0  0  0  0  0  0  0  0  0
    0.7185  -10.9513    4.2889 H   0  0  0  0  0  0  0  0  0  0  0  0
    1.2325  -11.8958    2.8971 H   0  0  0  0  0  0  0  0  0  0  0  0
    0.2653  -10.4680    2.7019 H   0  0  0  0  0  0  0  0  0  0  0  0
    2.6407   -9.8339    0.8966 H   0  0  0  0  0  0  0  0  0  0  0  0
    1.3105   -7.7423    0.7287 H   0  0  0  0  0  0  0  0  0  0  0  0
    1.4661   -7.2315    4.9471 H   0  0  0  0  0  0  0  0  0  0  0  0
    0.4951   -8.6823    4.7349 H   0  0  0  0  0  0  0  0  0  0  0  0
    3.1948   -8.0915    3.7273 H   0  0  0  0  0  0  0  0  0  0  0  0
    7.5423   -6.7822    2.6044 H   0  0  0  0  0  0  0  0  0  0  0  0
    7.6109   -8.4962    2.1887 H   0  0  0  0  0  0  0  0  0  0  0  0
    8.9491   -7.7993    2.8415 H   0  0  0  0  0  0  0  0  0  0  0  0
    9.8506   -6.3774    3.9875 H   0  0  0  0  0  0  0  0  0  0  0  0
    9.9617   -5.9094    5.6251 H   0  0  0  0  0  0  0  0  0  0  0  0
    8.5367   -5.4634    4.6992 H   0  0  0  0  0  0  0  0  0  0  0  0
    5.8989   -6.1594    6.6556 H   0  0  0  0  0  0  0  0  0  0  0  0
  1  2  1  0
  1 44  1  0
  1 45  1  0
  1 46  1  0
  2 42  1  0
  2  3  2  0
  3  4  1  0
  3 47  1  0
  4 40  1  0
  4  5  1  6
  4  6  1  0
  5 48  1  0
  5 49  1  0
  5 50  1  0
  6  7  1  0
  7  8  1  0
  7 40  1  0
  7 51  1  1
  8 38  1  0
  8  9  1  0
  8 52  1  1
  9 10  1  0
  9 53  1  0
  9 54  1  0
 10 11  1  0
 10 55  1  0
 10 56  1  0
 11 38  1  0
 11 12  1  0
 11 57  1  6
 12 13  1  0
 12 14  1  0
 12 58  1  6
 13 59  1  0
 14 36  1  0
 14 15  1  0
 14 60  1  1
 15 23  1  0
 15 16  1  0
 15 61  1  1
 16 27  1  0
 16 17  1  6
 16 19  1  0
 17 18  1  0
 18 62  1  0
 19 20  2  3
 19 21  1  0
 20 63  1  0
 21 22  1  0
 22 23  1  0
 22 36  1  0
 22 64  1  1
 23 24  1  1
 23 25  1  0
 24 65  1  0
 24 66  1  0
 24 67  1  0
 25 35  1  0
 25 26  1  0
 25 68  1  1
 26 27  1  0
 26 69  1  0
 26 70  1  0
 27 28  1  0
 27 71  1  6
 28 35  1  0
 28 29  1  1
 28 30  1  0
 29 72  1  0
 29 73  1  0
 29 74  1  0
 30 31  2  0
 30 75  1  0
 31 32  1  0
 31 76  1  0
 32 33  2  0
 32 34  1  0
 34 35  1  0
 34 77  1  0
 34 78  1  0
 35 79  1  6
 36 37  1  6
 36 38  1  0
 37 80  1  0
 37 81  1  0
 37 82  1  0
 38 39  1  6
 39 83  1  0
 39 84  1  0
 39 85  1  0
 40 41  1  0
 40 86  1  6
 41 42  1  0
 42 43  2  0
M  END
>  <i_m_ct_stereo_status>  (97) 
1

>  <s_m_source_file>  (97) 
/var/tmp/pbs.5076255.sched01/tmpyb5u0fxv/0ob_ovo1_.sdf

>  <i_m_source_file_index>  (97) 
44

>  <i_lp_mmshare_version>  (97) 
48012

>  <i_f3d_flags>  (97) 
0

>  <s_epik_input>  (97) 
W0NIM11DKD1bQ0hdMSlDKD1PKU9bQ0BIXShbQ0BAXTEyW0NIM10pW0NAQEhdKE8yKVtDQEBIXTNbQ0gyXVtDSDJdW0NAQEhdKFtDQEhdNFtPSF0pW0NAQF0zKFtDSDNdKVtDQEBdKFtDSDNdKShbQ0BIXTRbQ0BASF01W0NAXTY3T1tPSF0pW0NAQEhdKE9DXDY9Ti9bSF0pW0NAQF01KFtDSDNdKVtDQEhdOFtDQEhdOVtDQF0oW0NIM10pKFtDQEBIXTdbQ0gyXTgpW0NIXT1bQ0hdQyg9TylbQ0gyXTk=

>  <s_epik_cmdline>  (97) 
J2VwaWtfcHl0aG9uJywgJy1waHQnLCAnMi4wJywgJy1waCcsICc3LjAnLCAnLXRuJywgJzgnLCAnLW1hJywgJzIwMCcsICctaW1hZScsICc8aW5maWxlLm1hZT4nLCAnLW9tYWUnLCAnPG91dGZpbGUubWFlPic=

>  <r_lp_tautomer_probability>  (97) 
0.5

>  <r_epik_Ionization_Penalty>  (97) 
0.000549272

>  <r_epik_Ionization_Penalty_Charging>  (97) 
0

>  <r_epik_Ionization_Penalty_Neutral>  (97) 
0.000549272

>  <r_epik_State_Penalty>  (97) 
0.41068

>  <r_epik_Charging_Adjusted_Penalty>  (97) 
0.41068

>  <i_epik_Tot_Q>  (97) 
0

>  <i_epik_Tot_abs_Q>  (97) 
0

>  <s_epik_Chemistry_Notes>  (97) 
This compound has an ester and may undergo hydrolysis at high or low pH. This compound has an imine and may undergo hydrolysis.

>  <s_lp_Force_Field>  (97) 
OPLS3e

>  <r_lp_Energy>  (97) 
223.602

>  <b_lp_Chiralities_Consistent>  (97) 
1

>  <s_lp_Variant>  (97) 
29:0-2

>  <s_i_glide_gridfile>  (97) 
pfpi4k_grid

>  <i_i_glide_lignum>  (97) 
44

>  <i_i_glide_rotatable_bonds>  (97) 
4

>  <r_i_docking_score>  (97) 
-2.01947

>  <r_i_glide_ligand_efficiency>  (97) 
-0.0469645

>  <r_i_glide_ligand_efficiency_sa>  (97) 
-0.164535

>  <r_i_glide_ligand_efficiency_ln>  (97) 
-0.424152

>  <r_i_glide_gscore>  (97) 
-2.01947

>  <r_i_glide_lipo>  (97) 
-0.354162

>  <r_i_glide_hbond>  (97) 
-0.109879

>  <r_i_glide_metal>  (97) 
-0

>  <r_i_glide_rewards>  (97) 
-0.00420701

>  <r_i_glide_evdw>  (97) 
-24.9823

>  <r_i_glide_ecoul>  (97) 
-1.77312

>  <r_i_glide_erotb>  (97) 
0.00748682

>  <r_i_glide_esite>  (97) 
-0.0436295

>  <r_i_glide_emodel>  (97) 
-30.4783

>  <r_i_glide_energy>  (97) 
-26.7554

>  <r_i_glide_einternal>  (97) 
0.418613

>  <r_i_glide_intrahb_reward>  (97) 
-0

>  <i_i_glide_confnum>  (97) 
6

>  <i_i_glide_posenum>  (97) 
3

>  <r_i_glide_eff_state_penalty>  (97) 
0

>  <ligand_id>  (97) 
29

>  <original_smiles>  (97) 
CC1=CC2(C)OC(C3CCC4C(O)C5C6C7(OO)C(=N)OC(C6(C)C6CC7C7(C)C=CC(=O)CC67)C5(C)C43C)C2OC1=O

>  <smiles>  (97) 
[H]N=C1OC2([H])C3(C([H])([H])[H])C4([H])C([H])([H])C([H])(C1(OO[H])C3([H])C1([H])C([H])(O[H])C3([H])C([H])([H])C([H])([H])C([H])(C5([H])OC6(C([H])([H])[H])C([H])=C(C([H])([H])[H])C(=O)OC56[H])C3(C([H])([H])[H])C21C([H])([H])[H])C1(C([H])([H])[H])C([H])=C([H])C(=O)C([H])([H])C41[H]

$$$$
30:0:0
     RDKit          3D

 40 44  0  0  1  0  0  0  0  0999 V2000
    4.5878   -3.0383   -3.5161 C   0  0  0  0  0  0  0  0  0  0  0  0
    3.7325   -2.3835   -2.4238 C   0  0  0  0  0  0  0  0  0  0  0  0
    3.0456   -1.1681   -3.0644 C   0  0  0  0  0  0  0  0  0  0  0  0
    2.5896   -3.3221   -2.0077 C   0  0  0  0  0  0  0  0  0  0  0  0
    2.8788   -4.0538   -0.7074 C   0  0  0  0  0  0  0  0  0  0  0  0
    3.0124   -3.0195    0.4094 C   0  0  0  0  0  0  0  0  0  0  0  0
    2.2675   -3.2083    1.3892 O   0  0  0  0  0  0  0  0  0  0  0  0
    3.9859   -1.8246    0.2148 C   0  0  2  0  0  0  0  0  0  0  0  0
    3.8660   -0.9758    1.3579 O   0  0  0  0  0  0  0  0  0  0  0  0
    4.4702   -1.5673    2.4814 C   0  0  0  0  0  0  0  0  0  0  0  0
    4.2696   -1.2838    3.6731 O   0  0  0  0  0  0  0  0  0  0  0  0
    5.5696   -2.5214    2.0335 C   0  0  1  0  0  0  0  0  0  0  0  0
    5.3771   -4.0826    2.1727 C   0  0  0  0  0  0  0  0  0  0  0  0
    5.7083   -4.8121    0.8681 C   0  0  0  0  0  0  0  0  0  0  0  0
    6.0807   -3.9023   -0.2067 C   0  0  0  0  0  0  0  0  0  0  0  0
    6.9815   -3.2345   -1.2436 C   0  0  0  0  0  0  0  0  0  0  0  0
    5.8622   -2.5110   -0.6731 C   0  0  1  0  0  0  0  0  0  0  0  0
    4.5679   -1.8310   -1.2328 C   0  0  1  0  0  0  0  0  0  0  0  0
    5.5174   -1.9057    0.6329 C   0  0  1  0  0  0  0  0  0  0  0  0
    6.4788   -0.6829    0.6614 C   0  0  0  0  0  0  0  0  0  0  0  0
    4.0099   -3.1945   -4.4300 H   0  0  0  0  0  0  0  0  0  0  0  0
    4.9756   -4.0103   -3.2117 H   0  0  0  0  0  0  0  0  0  0  0  0
    5.4114   -2.3728   -3.7563 H   0  0  0  0  0  0  0  0  0  0  0  0
    2.4402   -0.6559   -2.3227 H   0  0  0  0  0  0  0  0  0  0  0  0
    2.3795   -1.4704   -3.8731 H   0  0  0  0  0  0  0  0  0  0  0  0
    3.7523   -0.4366   -3.4550 H   0  0  0  0  0  0  0  0  0  0  0  0
    1.6464   -2.7732   -1.8998 H   0  0  0  0  0  0  0  0  0  0  0  0
    2.3746   -4.0219   -2.8056 H   0  0  0  0  0  0  0  0  0  0  0  0
    2.0449   -4.7168   -0.4754 H   0  0  0  0  0  0  0  0  0  0  0  0
    3.7464   -4.7119   -0.7830 H   0  0  0  0  0  0  0  0  0  0  0  0
    6.4727   -2.2354    2.5550 H   0  0  0  0  0  0  0  0  0  0  0  0
    6.0411   -4.4731    2.9599 H   0  0  0  0  0  0  0  0  0  0  0  0
    4.3653   -4.3555    2.4957 H   0  0  0  0  0  0  0  0  0  0  0  0
    5.6530   -5.8674    0.7258 H   0  0  0  0  0  0  0  0  0  0  0  0
    7.9804   -3.0409   -0.8583 H   0  0  0  0  0  0  0  0  0  0  0  0
    6.8883   -3.6721   -2.2299 H   0  0  0  0  0  0  0  0  0  0  0  0
    4.8196   -0.7999   -1.4904 H   0  0  0  0  0  0  0  0  0  0  0  0
    7.4879   -0.9917    0.9595 H   0  0  0  0  0  0  0  0  0  0  0  0
    6.1523    0.0937    1.3503 H   0  0  0  0  0  0  0  0  0  0  0  0
    6.5743   -0.2054   -0.3138 H   0  0  0  0  0  0  0  0  0  0  0  0
  1  2  1  0
  1 21  1  0
  1 22  1  0
  1 23  1  0
  2 18  1  0
  2  3  1  0
  2  4  1  0
  3 24  1  0
  3 25  1  0
  3 26  1  0
  4  5  1  0
  4 27  1  0
  4 28  1  0
  5  6  1  0
  5 29  1  0
  5 30  1  0
  6  7  2  0
  6  8  1  0
  8 18  1  0
  8 19  1  0
  8  9  1  1
  9 10  1  0
 10 11  2  0
 10 12  1  0
 12 19  1  0
 12 13  1  0
 12 31  1  1
 13 14  1  0
 13 32  1  0
 13 33  1  0
 14 15  2  0
 14 34  1  0
 15 17  1  0
 15 16  1  0
 17 16  1  6
 16 35  1  0
 16 36  1  0
 17 18  1  0
 17 19  1  0
 18 37  1  6
 19 20  1  1
 20 38  1  0
 20 39  1  0
 20 40  1  0
M  END
>  <i_m_ct_stereo_status>  (98) 
1

>  <s_m_source_file>  (98) 
/var/tmp/pbs.5076255.sched01/tmpyb5u0fxv/0ob_ovo1_.sdf

>  <i_m_source_file_index>  (98) 
45

>  <i_lp_mmshare_version>  (98) 
48012

>  <i_f3d_flags>  (98) 
0

>  <s_epik_input>  (98) 
Tz1DMVtDSDJdW0NIMl1DKFtDSDNdKShbQ0gzXSlbQ0BASF0oW0NAXTEyMylDNDVDKFtDSDJdNCk9W0NIXVtDSDJdW0NASF0oQyhPMik9TylbQ0BdMzVbQ0gzXQ==

>  <s_epik_cmdline>  (98) 
J2VwaWtfcHl0aG9uJywgJy1waHQnLCAnMi4wJywgJy1waCcsICc3LjAnLCAnLXRuJywgJzgnLCAnLW1hJywgJzIwMCcsICctaW1hZScsICc8aW5maWxlLm1hZT4nLCAnLW9tYWUnLCAnPG91dGZpbGUubWFlPic=

>  <r_lp_tautomer_probability>  (98) 
1

>  <r_epik_Ionization_Penalty>  (98) 
9.40129e-12

>  <r_epik_Ionization_Penalty_Charging>  (98) 
0

>  <r_epik_Ionization_Penalty_Neutral>  (98) 
9.40129e-12

>  <r_epik_State_Penalty>  (98) 
-0

>  <r_epik_Charging_Adjusted_Penalty>  (98) 
0

>  <i_epik_Tot_Q>  (98) 
0

>  <i_epik_Tot_abs_Q>  (98) 
0

>  <s_epik_Chemistry_Notes>  (98) 
This compound has an ester and may undergo hydrolysis at high or low pH.

>  <s_lp_Force_Field>  (98) 
OPLS3e

>  <r_lp_Energy>  (98) 
122.021

>  <b_lp_Chiralities_Consistent>  (98) 
1

>  <s_lp_Variant>  (98) 
30:0-1

>  <s_i_glide_gridfile>  (98) 
pfpi4k_grid

>  <i_i_glide_lignum>  (98) 
45

>  <i_i_glide_rotatable_bonds>  (98) 
0

>  <r_i_docking_score>  (98) 
-3.1633

>  <r_i_glide_ligand_efficiency>  (98) 
-0.158165

>  <r_i_glide_ligand_efficiency_sa>  (98) 
-0.429326

>  <r_i_glide_ligand_efficiency_ln>  (98) 
-0.79167

>  <r_i_glide_gscore>  (98) 
-3.1633

>  <r_i_glide_lipo>  (98) 
-0.709153

>  <r_i_glide_hbond>  (98) 
0

>  <r_i_glide_metal>  (98) 
-0

>  <r_i_glide_rewards>  (98) 
-1.59931

>  <r_i_glide_evdw>  (98) 
-18.1167

>  <r_i_glide_ecoul>  (98) 
0.529188

>  <r_i_glide_erotb>  (98) 
0

>  <r_i_glide_esite>  (98) 
-0.0283739

>  <r_i_glide_emodel>  (98) 
-20.1579

>  <r_i_glide_energy>  (98) 
-17.5875

>  <r_i_glide_einternal>  (98) 
0

>  <r_i_glide_intrahb_reward>  (98) 
-0

>  <i_i_glide_confnum>  (98) 
2

>  <i_i_glide_posenum>  (98) 
26

>  <r_i_glide_eff_state_penalty>  (98) 
0

>  <ligand_id>  (98) 
30

>  <original_smiles>  (98) 
CC1(C)CCC(=O)C23OC(=O)C4CC=C5CC5(C12)C43C

>  <smiles>  (98) 
[H]C1=C2C([H])([H])C23C2([H])C4(OC(=O)C([H])(C1([H])[H])C43C([H])([H])[H])C(=O)C([H])([H])C([H])([H])C2(C([H])([H])[H])C([H])([H])[H]

$$$$
30:1:0
     RDKit          3D

 40 44  0  0  1  0  0  0  0  0999 V2000
    2.4024   -3.1796   -3.4341 C   0  0  0  0  0  0  0  0  0  0  0  0
    3.6756   -2.6615   -2.7467 C   0  0  0  0  0  0  0  0  0  0  0  0
    4.7517   -2.6849   -3.8203 C   0  0  0  0  0  0  0  0  0  0  0  0
    3.4635   -1.2279   -2.2824 C   0  0  0  0  0  0  0  0  0  0  0  0
    4.7446   -0.6230   -1.7061 C   0  0  0  0  0  0  0  0  0  0  0  0
    5.5424   -1.4505   -0.6959 C   0  0  0  0  0  0  0  0  0  0  0  0
    6.3359   -0.8727    0.0647 O   0  0  0  0  0  0  0  0  0  0  0  0
    5.2667   -2.9245   -0.6224 C   0  0  2  0  0  0  0  0  0  0  0  0
    6.4772   -3.6670   -0.6196 O   0  0  0  0  0  0  0  0  0  0  0  0
    6.5323   -4.5937    0.3585 C   0  0  0  0  0  0  0  0  0  0  0  0
    7.5031   -5.2898    0.6160 O   0  0  0  0  0  0  0  0  0  0  0  0
    5.1940   -4.6885    1.0847 C   0  0  2  0  0  0  0  0  0  0  0  0
    4.5455   -6.0808    0.7986 C   0  0  0  0  0  0  0  0  0  0  0  0
    3.0465   -5.9864    0.6067 C   0  0  0  0  0  0  0  0  0  0  0  0
    2.5316   -4.6870    0.2533 C   0  0  0  0  0  0  0  0  0  0  0  0
    1.9371   -3.3619   -0.0648 C   0  0  0  0  0  0  0  0  0  0  0  0
    3.3375   -3.5115   -0.2520 C   0  0  2  0  0  0  0  0  0  0  0  0
    4.1538   -3.4833   -1.5352 C   0  0  1  0  0  0  0  0  0  0  0  0
    4.5414   -3.3513    0.6443 C   0  0  2  0  0  0  0  0  0  0  0  0
    4.2945   -2.4225    1.8400 C   0  0  0  0  0  0  0  0  0  0  0  0
    2.3152   -2.7183   -4.4143 H   0  0  0  0  0  0  0  0  0  0  0  0
    1.4958   -2.9159   -2.9008 H   0  0  0  0  0  0  0  0  0  0  0  0
    2.4383   -4.2650   -3.5883 H   0  0  0  0  0  0  0  0  0  0  0  0
    5.6864   -2.4373   -3.3625 H   0  0  0  0  0  0  0  0  0  0  0  0
    4.5390   -1.9356   -4.5699 H   0  0  0  0  0  0  0  0  0  0  0  0
    4.8843   -3.6596   -4.2853 H   0  0  0  0  0  0  0  0  0  0  0  0
    3.0788   -0.5846   -3.0864 H   0  0  0  0  0  0  0  0  0  0  0  0
    2.7154   -1.1976   -1.5012 H   0  0  0  0  0  0  0  0  0  0  0  0
    5.4212   -0.3422   -2.4921 H   0  0  0  0  0  0  0  0  0  0  0  0
    4.4358    0.2542   -1.1829 H   0  0  0  0  0  0  0  0  0  0  0  0
    5.4381   -4.6452    2.1377 H   0  0  0  0  0  0  0  0  0  0  0  0
    4.9310   -6.5195   -0.1198 H   0  0  0  0  0  0  0  0  0  0  0  0
    4.7378   -6.7925    1.6018 H   0  0  0  0  0  0  0  0  0  0  0  0
    2.3946   -6.8623    0.6468 H   0  0  0  0  0  0  0  0  0  0  0  0
    1.2766   -3.4532   -0.9093 H   0  0  0  0  0  0  0  0  0  0  0  0
    1.6707   -2.7668    0.8046 H   0  0  0  0  0  0  0  0  0  0  0  0
    4.3827   -4.4835   -1.7772 H   0  0  0  0  0  0  0  0  0  0  0  0
    3.6996   -2.9160    2.6143 H   0  0  0  0  0  0  0  0  0  0  0  0
    3.7816   -1.5019    1.5735 H   0  0  0  0  0  0  0  0  0  0  0  0
    5.2450   -2.1721    2.2912 H   0  0  0  0  0  0  0  0  0  0  0  0
  1  2  1  0
  1 21  1  0
  1 22  1  0
  1 23  1  0
  2 18  1  0
  2  3  1  0
  2  4  1  0
  3 24  1  0
  3 25  1  0
  3 26  1  0
  4  5  1  0
  4 27  1  0
  4 28  1  0
  5  6  1  0
  5 29  1  0
  5 30  1  0
  6  7  2  0
  6  8  1  0
  8 18  1  0
  8 19  1  0
  8  9  1  6
  9 10  1  0
 10 11  2  0
 10 12  1  0
 12 19  1  0
 12 13  1  0
 12 31  1  1
 13 14  1  0
 13 32  1  0
 13 33  1  0
 14 15  2  0
 14 34  1  0
 15 17  1  0
 15 16  1  0
 17 16  1  6
 16 35  1  0
 16 36  1  0
 17 18  1  0
 17 19  1  0
 18 37  1  6
 19 20  1  1
 20 38  1  0
 20 39  1  0
 20 40  1  0
M  END
>  <i_m_ct_stereo_status>  (99) 
1

>  <s_m_source_file>  (99) 
/var/tmp/pbs.5076255.sched01/tmpguyree9i/45_f3p7e6s.sdf

>  <i_m_source_file_index>  (99) 
1

>  <i_lp_mmshare_version>  (99) 
48012

>  <i_f3d_flags>  (99) 
2

>  <s_epik_input>  (99) 
Tz1DMVtDSDJdW0NIMl1DKFtDSDNdKShbQ0gzXSlbQ0BASF0oW0NAXTEyMylDNDVDKFtDSDJdNCk9W0NIXVtDSDJdW0NASF0oQyhPMik9TylbQ0BdMzVbQ0gzXQ==

>  <s_epik_cmdline>  (99) 
J2VwaWtfcHl0aG9uJywgJy1waHQnLCAnMi4wJywgJy1waCcsICc3LjAnLCAnLXRuJywgJzgnLCAnLW1hJywgJzIwMCcsICctaW1hZScsICc8aW5maWxlLm1hZT4nLCAnLW9tYWUnLCAnPG91dGZpbGUubWFlPic=

>  <r_lp_tautomer_probability>  (99) 
1

>  <r_epik_Ionization_Penalty>  (99) 
9.40129e-12

>  <r_epik_Ionization_Penalty_Charging>  (99) 
0

>  <r_epik_Ionization_Penalty_Neutral>  (99) 
9.40129e-12

>  <r_epik_State_Penalty>  (99) 
-0

>  <r_epik_Charging_Adjusted_Penalty>  (99) 
0

>  <i_epik_Tot_Q>  (99) 
0

>  <i_epik_Tot_abs_Q>  (99) 
0

>  <s_epik_Chemistry_Notes>  (99) 
This compound has an ester and may undergo hydrolysis at high or low pH.

>  <s_lp_Force_Field>  (99) 
OPLS3e

>  <r_lp_Energy>  (99) 
48.4994

>  <b_lp_Chiralities_Consistent>  (99) 
0

>  <s_lp_Variant>  (99) 
30:0-2

>  <s_i_glide_gridfile>  (99) 
pfpi4k_grid

>  <i_i_glide_lignum>  (99) 
1

>  <i_i_glide_rotatable_bonds>  (99) 
0

>  <r_i_docking_score>  (99) 
-2.87165

>  <r_i_glide_ligand_efficiency>  (99) 
-0.143582

>  <r_i_glide_ligand_efficiency_sa>  (99) 
-0.389743

>  <r_i_glide_ligand_efficiency_ln>  (99) 
-0.718679

>  <r_i_glide_gscore>  (99) 
-2.87165

>  <r_i_glide_lipo>  (99) 
-0.485568

>  <r_i_glide_hbond>  (99) 
-0.0249901

>  <r_i_glide_metal>  (99) 
-0

>  <r_i_glide_rewards>  (99) 
-1.71214

>  <r_i_glide_evdw>  (99) 
-14.738

>  <r_i_glide_ecoul>  (99) 
-1.26063

>  <r_i_glide_erotb>  (99) 
0

>  <r_i_glide_esite>  (99) 
-0.0481639

>  <r_i_glide_emodel>  (99) 
-12.36

>  <r_i_glide_energy>  (99) 
-15.9986

>  <r_i_glide_einternal>  (99) 
0

>  <r_i_glide_intrahb_reward>  (99) 
-0

>  <i_i_glide_confnum>  (99) 
1

>  <i_i_glide_posenum>  (99) 
1

>  <r_i_glide_eff_state_penalty>  (99) 
0

>  <ligand_id>  (99) 
30

>  <original_smiles>  (99) 
CC1(C)CCC(=O)C23OC(=O)C4CC=C5CC5(C12)C43C

>  <smiles>  (99) 
[H]C1=C2C([H])([H])C23C2([H])C4(OC(=O)C([H])(C1([H])[H])C43C([H])([H])[H])C(=O)C([H])([H])C([H])([H])C2(C([H])([H])[H])C([H])([H])[H]

$$$$
31:0:0
     RDKit          3D

 66 72  0  0  1  0  0  0  0  0999 V2000
    3.8387   -7.0413    5.1553 C   0  0  0  0  0  0  0  0  0  0  0  0
    2.7521   -6.3694    6.0364 C   0  0  2  0  0  0  0  0  0  0  0  0
    3.0187   -6.8598    7.4706 C   0  0  0  0  0  0  0  0  0  0  0  0
    2.1155   -7.4102    8.2964 C   0  0  0  0  0  0  0  0  0  0  0  0
    0.7385   -7.6220    7.8365 C   0  0  0  0  0  0  0  0  0  0  0  0
   -0.1546   -7.9458    8.6150 O   0  0  0  0  0  0  0  0  0  0  0  0
    0.4695   -7.4070    6.4037 C   0  0  0  0  0  0  0  0  0  0  0  0
    1.3570   -6.8407    5.5580 C   0  0  0  0  0  0  0  0  0  0  0  0
    0.9974   -6.7858    4.1330 C   0  0  0  0  0  0  0  0  0  0  0  0
    0.4003   -7.9403    3.5703 N   0  0  0  0  0  0  0  0  0  0  0  0
    0.5814   -9.2525    3.7964 C   0  0  0  0  0  0  0  0  0  0  0  0
   -0.1486  -10.0349    3.0195 N   0  0  0  0  0  0  0  0  0  0  0  0
   -0.8561   -9.0832    2.3421 C   0  0  0  0  0  0  0  0  0  0  0  0
   -0.5491   -7.8149    2.6034 N   0  0  0  0  0  0  0  0  0  0  0  0
    1.3199   -5.8103    3.2527 C   0  0  0  0  0  0  0  0  0  0  0  0
    1.9679   -4.5259    3.5715 C   0  0  0  0  0  0  0  0  0  0  0  0
    2.4205   -3.8344    2.6634 O   0  0  0  0  0  0  0  0  0  0  0  0
    1.9715   -4.0003    5.0197 C   0  0  1  0  0  0  0  0  0  0  0  0
    2.8367   -4.7980    6.0610 C   0  0  2  0  0  0  0  0  0  0  0  0
    4.2852   -4.2484    6.2408 C   0  0  0  0  0  0  0  0  0  0  0  0
    4.3493   -2.7187    6.4483 C   0  0  0  0  0  0  0  0  0  0  0  0
    3.6762   -1.9546    5.2936 C   0  0  1  0  0  0  0  0  0  0  0  0
    4.4816   -2.1930    3.9874 C   0  0  0  0  0  0  0  0  0  0  0  0
    2.2070   -2.4600    5.1975 C   0  0  1  0  0  0  0  0  0  0  0  0
    1.4253   -1.3818    4.3787 C   0  0  1  0  0  0  0  0  0  0  0  0
    0.0239   -1.1967    4.7414 N   0  0  0  0  0  0  0  0  0  0  0  0
   -0.8415   -0.2247    4.2878 C   0  0  0  0  0  0  0  0  0  0  0  0
   -2.0181   -0.5391    4.8940 C   0  0  0  0  0  0  0  0  0  0  0  0
   -1.8393   -1.6745    5.6777 N   0  0  0  0  0  0  0  0  0  0  0  0
   -0.6150   -2.0727    5.5592 N   0  0  0  0  0  0  0  0  0  0  0  0
    2.2761   -0.1481    4.6324 C   0  0  0  0  0  0  0  0  0  0  0  0
    2.3510    1.0410    4.0292 C   0  0  0  0  0  0  0  0  0  0  0  0
    3.5901    1.7730    4.4814 C   0  0  0  0  0  0  0  0  0  0  0  0
    4.4687    0.6331    5.0461 C   0  0  0  0  0  0  0  0  0  0  0  0
    3.4397   -0.4221    5.5366 C   0  0  2  0  0  0  0  0  0  0  0  0
    3.0390   -0.0309    6.9828 C   0  0  0  0  0  0  0  0  0  0  0  0
    3.6982   -8.1238    5.1204 H   0  0  0  0  0  0  0  0  0  0  0  0
    4.8479   -6.8837    5.5413 H   0  0  0  0  0  0  0  0  0  0  0  0
    3.8371   -6.6893    4.1248 H   0  0  0  0  0  0  0  0  0  0  0  0
    4.0341   -6.7426    7.8321 H   0  0  0  0  0  0  0  0  0  0  0  0
    2.3683   -7.7185    9.3057 H   0  0  0  0  0  0  0  0  0  0  0  0
   -0.4926   -7.7477    6.0466 H   0  0  0  0  0  0  0  0  0  0  0  0
    1.2853   -9.6580    4.5163 H   0  0  0  0  0  0  0  0  0  0  0  0
   -1.5752   -9.3419    1.5818 H   0  0  0  0  0  0  0  0  0  0  0  0
    1.0771   -5.9479    2.2083 H   0  0  0  0  0  0  0  0  0  0  0  0
    0.9382   -4.1692    5.3269 H   0  0  0  0  0  0  0  0  0  0  0  0
    2.3449   -4.5351    7.0000 H   0  0  0  0  0  0  0  0  0  0  0  0
    4.7441   -4.7118    7.1143 H   0  0  0  0  0  0  0  0  0  0  0  0
    4.9118   -4.5360    5.3988 H   0  0  0  0  0  0  0  0  0  0  0  0
    3.8612   -2.4912    7.3947 H   0  0  0  0  0  0  0  0  0  0  0  0
    5.3817   -2.3929    6.5599 H   0  0  0  0  0  0  0  0  0  0  0  0
    4.0503   -1.6724    3.1305 H   0  0  0  0  0  0  0  0  0  0  0  0
    4.5434   -3.2434    3.7158 H   0  0  0  0  0  0  0  0  0  0  0  0
    5.5146   -1.8667    4.0935 H   0  0  0  0  0  0  0  0  0  0  0  0
    1.8357   -2.3292    6.2087 H   0  0  0  0  0  0  0  0  0  0  0  0
    1.4614   -1.5959    3.3127 H   0  0  0  0  0  0  0  0  0  0  0  0
   -0.5684    0.5545    3.5940 H   0  0  0  0  0  0  0  0  0  0  0  0
   -2.9846   -0.0675    4.8197 H   0  0  0  0  0  0  0  0  0  0  0  0
    1.6984    1.4296    3.2607 H   0  0  0  0  0  0  0  0  0  0  0  0
    4.0893    2.3060    3.6771 H   0  0  0  0  0  0  0  0  0  0  0  0
    3.3304    2.5105    5.2397 H   0  0  0  0  0  0  0  0  0  0  0  0
    5.0762    0.2757    4.2172 H   0  0  0  0  0  0  0  0  0  0  0  0
    5.1631    0.9715    5.8148 H   0  0  0  0  0  0  0  0  0  0  0  0
    3.8821   -0.1464    7.6640 H   0  0  0  0  0  0  0  0  0  0  0  0
    2.1984   -0.6016    7.3746 H   0  0  0  0  0  0  0  0  0  0  0  0
    2.7353    1.0178    7.0345 H   0  0  0  0  0  0  0  0  0  0  0  0
  2  1  1  6
  1 37  1  0
  1 38  1  0
  1 39  1  0
  2  8  1  0
  2 19  1  0
  2  3  1  0
  3  4  2  0
  3 40  1  0
  4  5  1  0
  4 41  1  0
  5  6  2  0
  5  7  1  0
  7  8  2  0
  7 42  1  0
  8  9  1  0
  9 10  1  0
  9 15  2  0
 10 14  1  0
 10 11  1  0
 11 12  2  0
 11 43  1  0
 12 13  1  0
 13 14  2  0
 13 44  1  0
 15 16  1  0
 15 45  1  0
 16 17  2  0
 16 18  1  0
 18 24  1  0
 18 19  1  0
 18 46  1  1
 19 20  1  0
 19 47  1  1
 20 21  1  0
 20 48  1  0
 20 49  1  0
 21 22  1  0
 21 50  1  0
 21 51  1  0
 22 35  1  0
 22 23  1  6
 22 24  1  0
 23 52  1  0
 23 53  1  0
 23 54  1  0
 24 25  1  0
 24 55  1  1
 25 26  1  0
 25 31  1  0
 25 56  1  6
 26 30  1  0
 26 27  1  0
 27 28  2  0
 27 57  1  0
 28 29  1  0
 28 58  1  0
 29 30  2  0
 31 35  1  0
 31 32  2  0
 32 33  1  0
 32 59  1  0
 33 34  1  0
 33 60  1  0
 33 61  1  0
 34 35  1  0
 34 62  1  0
 34 63  1  0
 35 36  1  1
 36 64  1  0
 36 65  1  0
 36 66  1  0
M  END
>  <i_m_ct_stereo_status>  (100) 
1

>  <s_m_source_file>  (100) 
/var/tmp/pbs.5076255.sched01/tmpguyree9i/45_f3p7e6s.sdf

>  <i_m_source_file_index>  (100) 
2

>  <i_lp_mmshare_version>  (100) 
48012

>  <i_f3d_flags>  (100) 
0

>  <s_epik_input>  (100) 
W0NIXTE9W0NIXUMoPU8pW0NIXT1DKFtDQF0xMltDSDNdKUMobjNbY0hdbltjSF1uMyk9W0NIXUMoPU8pW0NASF00W0NAQEhdMltDSDJdW0NIMl1bQ0BAXTUoW0NIM10pW0NASF00W0NAQEhdKG42W2NIXVtjSF1ubjYpQz03W0NAXTUoW0NIM10pW0NIMl1bQ0gyXVtDSF03

>  <s_epik_cmdline>  (100) 
J2VwaWtfcHl0aG9uJywgJy1waHQnLCAnMi4wJywgJy1waCcsICc3LjAnLCAnLXRuJywgJzgnLCAnLW1hJywgJzIwMCcsICctaW1hZScsICc8aW5maWxlLm1hZT4nLCAnLW9tYWUnLCAnPG91dGZpbGUubWFlPic=

>  <r_lp_tautomer_probability>  (100) 
1

>  <r_epik_Ionization_Penalty>  (100) 
5.17253e-06

>  <r_epik_Ionization_Penalty_Charging>  (100) 
0

>  <r_epik_Ionization_Penalty_Neutral>  (100) 
5.17253e-06

>  <r_epik_State_Penalty>  (100) 
-0

>  <r_epik_Charging_Adjusted_Penalty>  (100) 
0

>  <i_epik_Tot_Q>  (100) 
0

>  <i_epik_Tot_abs_Q>  (100) 
0

>  <s_lp_Force_Field>  (100) 
OPLS3e

>  <r_lp_Energy>  (100) 
63.4998

>  <b_lp_Chiralities_Consistent>  (100) 
1

>  <s_lp_Variant>  (100) 
31:0-1

>  <s_i_glide_gridfile>  (100) 
pfpi4k_grid

>  <i_i_glide_lignum>  (100) 
2

>  <i_i_glide_rotatable_bonds>  (100) 
2

>  <r_i_docking_score>  (100) 
-2.57524

>  <r_i_glide_ligand_efficiency>  (100) 
-0.0715343

>  <r_i_glide_ligand_efficiency_sa>  (100) 
-0.236201

>  <r_i_glide_ligand_efficiency_ln>  (100) 
-0.561847

>  <r_i_glide_gscore>  (100) 
-2.57524

>  <r_i_glide_lipo>  (100) 
-0.0472967

>  <r_i_glide_hbond>  (100) 
-0.146614

>  <r_i_glide_metal>  (100) 
-0

>  <r_i_glide_rewards>  (100) 
-0.30084

>  <r_i_glide_evdw>  (100) 
-26.36

>  <r_i_glide_ecoul>  (100) 
-5.01061

>  <r_i_glide_erotb>  (100) 
0.174292

>  <r_i_glide_esite>  (100) 
-0.185186

>  <r_i_glide_emodel>  (100) 
-35.2343

>  <r_i_glide_energy>  (100) 
-31.3706

>  <r_i_glide_einternal>  (100) 
2.30401

>  <r_i_glide_intrahb_reward>  (100) 
-0

>  <i_i_glide_confnum>  (100) 
3

>  <i_i_glide_posenum>  (100) 
29

>  <r_i_glide_eff_state_penalty>  (100) 
0

>  <ligand_id>  (100) 
31

>  <original_smiles>  (100) 
CC12C=CC(=O)C=C1C(n1cncn1)=CC(=O)C1C2CCC2(C)C1C(n1ccnn1)C1=CCCC12C

>  <smiles>  (100) 
[H]C1=C(n2nc([H])nc2[H])C2=C([H])C(=O)C([H])=C([H])C2(C([H])([H])[H])C2([H])C([H])([H])C([H])([H])C3(C([H])([H])[H])C([H])(C([H])(n4nnc([H])c4[H])C4=C([H])C([H])([H])C([H])([H])C43C([H])([H])[H])C2([H])C1=O

$$$$
31:0:1
     RDKit          3D

 66 72  0  0  1  0  0  0  0  0999 V2000
    3.9578   -3.9172    6.1046 C   0  0  0  0  0  0  0  0  0  0  0  0
    2.5352   -3.3038    6.2277 C   0  0  2  0  0  0  0  0  0  0  0  0
    2.0094   -3.7635    7.5977 C   0  0  0  0  0  0  0  0  0  0  0  0
    0.8235   -4.3568    7.8305 C   0  0  0  0  0  0  0  0  0  0  0  0
   -0.0802   -4.6287    6.7118 C   0  0  0  0  0  0  0  0  0  0  0  0
   -1.2305   -5.0228    6.8984 O   0  0  0  0  0  0  0  0  0  0  0  0
    0.4368   -4.4195    5.3541 C   0  0  0  0  0  0  0  0  0  0  0  0
    1.6413   -3.8536    5.0872 C   0  0  0  0  0  0  0  0  0  0  0  0
    2.1355   -3.8557    3.6901 C   0  0  0  0  0  0  0  0  0  0  0  0
    1.9952   -5.0327    2.8822 N   0  0  0  0  0  0  0  0  0  0  0  0
    2.2156   -5.2528    1.5738 C   0  0  0  0  0  0  0  0  0  0  0  0
    1.8945   -6.4639    1.1489 N   0  0  0  0  0  0  0  0  0  0  0  0
    1.5427   -7.0324    2.3366 C   0  0  0  0  0  0  0  0  0  0  0  0
    1.5925   -6.2309    3.3996 N   0  0  0  0  0  0  0  0  0  0  0  0
    2.8412   -2.8492    3.1122 C   0  0  0  0  0  0  0  0  0  0  0  0
    3.1437   -1.5249    3.6785 C   0  0  0  0  0  0  0  0  0  0  0  0
    3.9880   -0.8170    3.1376 O   0  0  0  0  0  0  0  0  0  0  0  0
    2.3214   -0.9861    4.8590 C   0  0  1  0  0  0  0  0  0  0  0  0
    2.5212   -1.7273    6.2331 C   0  0  2  0  0  0  0  0  0  0  0  0
    3.6148   -1.0928    7.1471 C   0  0  0  0  0  0  0  0  0  0  0  0
    3.4839    0.4392    7.2960 C   0  0  0  0  0  0  0  0  0  0  0  0
    3.5124    1.1554    5.9340 C   0  0  1  0  0  0  0  0  0  0  0  0
    4.9110    0.9446    5.2880 C   0  0  0  0  0  0  0  0  0  0  0  0
    2.3507    0.5678    5.0702 C   0  0  1  0  0  0  0  0  0  0  0  0
    2.1127    1.5927    3.9183 C   0  0  1  0  0  0  0  0  0  0  0  0
    0.7323    1.6517    3.4538 N   0  0  0  0  0  0  0  0  0  0  0  0
    0.2181    1.1959    2.2570 C   0  0  0  0  0  0  0  0  0  0  0  0
   -1.1046    1.4991    2.3440 C   0  0  0  0  0  0  0  0  0  0  0  0
   -1.3509    2.1110    3.5692 N   0  0  0  0  0  0  0  0  0  0  0  0
   -0.2368    2.1996    4.2257 N   0  0  0  0  0  0  0  0  0  0  0  0
    2.6222    2.8793    4.5472 C   0  0  0  0  0  0  0  0  0  0  0  0
    2.9656    4.0630    4.0308 C   0  0  0  0  0  0  0  0  0  0  0  0
    3.7468    4.8713    5.0399 C   0  0  0  0  0  0  0  0  0  0  0  0
    4.2054    3.7870    6.0487 C   0  0  0  0  0  0  0  0  0  0  0  0
    3.1214    2.6765    5.9490 C   0  0  2  0  0  0  0  0  0  0  0  0
    1.9795    3.0490    6.9317 C   0  0  0  0  0  0  0  0  0  0  0  0
    3.9087   -5.0073    6.0404 H   0  0  0  0  0  0  0  0  0  0  0  0
    4.5876   -3.6985    6.9697 H   0  0  0  0  0  0  0  0  0  0  0  0
    4.5040   -3.5748    5.2271 H   0  0  0  0  0  0  0  0  0  0  0  0
    2.6606   -3.5894    8.4477 H   0  0  0  0  0  0  0  0  0  0  0  0
    0.5087   -4.6509    8.8248 H   0  0  0  0  0  0  0  0  0  0  0  0
   -0.1821   -4.8064    4.5611 H   0  0  0  0  0  0  0  0  0  0  0  0
    2.5617   -4.4940    0.8842 H   0  0  0  0  0  0  0  0  0  0  0  0
    1.2118   -8.0600    2.3959 H   0  0  0  0  0  0  0  0  0  0  0  0
    3.2256   -2.9554    2.1130 H   0  0  0  0  0  0  0  0  0  0  0  0
    1.2951   -1.2041    4.5523 H   0  0  0  0  0  0  0  0  0  0  0  0
    1.5882   -1.4867    6.7466 H   0  0  0  0  0  0  0  0  0  0  0  0
    3.5476   -1.5227    8.1463 H   0  0  0  0  0  0  0  0  0  0  0  0
    4.6118   -1.3520    6.7931 H   0  0  0  0  0  0  0  0  0  0  0  0
    2.5510    0.6424    7.8181 H   0  0  0  0  0  0  0  0  0  0  0  0
    4.2750    0.8240    7.9356 H   0  0  0  0  0  0  0  0  0  0  0  0
    4.9903    1.4223    4.3110 H   0  0  0  0  0  0  0  0  0  0  0  0
    5.1617   -0.1000    5.1384 H   0  0  0  0  0  0  0  0  0  0  0  0
    5.7058    1.3373    5.9223 H   0  0  0  0  0  0  0  0  0  0  0  0
    1.4632    0.6789    5.6867 H   0  0  0  0  0  0  0  0  0  0  0  0
    2.7503    1.3802    3.0633 H   0  0  0  0  0  0  0  0  0  0  0  0
    0.8016    0.7362    1.4688 H   0  0  0  0  0  0  0  0  0  0  0  0
   -1.8914    1.3414    1.6248 H   0  0  0  0  0  0  0  0  0  0  0  0
    2.8049    4.3939    3.0149 H   0  0  0  0  0  0  0  0  0  0  0  0
    4.5861    5.4133    4.6030 H   0  0  0  0  0  0  0  0  0  0  0  0
    3.0792    5.5928    5.5115 H   0  0  0  0  0  0  0  0  0  0  0  0
    5.1786    3.4465    5.7069 H   0  0  0  0  0  0  0  0  0  0  0  0
    4.3475    4.1667    7.0602 H   0  0  0  0  0  0  0  0  0  0  0  0
    2.3197    2.9875    7.9644 H   0  0  0  0  0  0  0  0  0  0  0  0
    1.0898    2.4279    6.8276 H   0  0  0  0  0  0  0  0  0  0  0  0
    1.6461    4.0766    6.7674 H   0  0  0  0  0  0  0  0  0  0  0  0
  2  1  1  6
  1 37  1  0
  1 38  1  0
  1 39  1  0
  2  8  1  0
  2 19  1  0
  2  3  1  0
  3  4  2  0
  3 40  1  0
  4  5  1  0
  4 41  1  0
  5  6  2  0
  5  7  1  0
  7  8  2  0
  7 42  1  0
  8  9  1  0
  9 10  1  0
  9 15  2  0
 10 14  1  0
 10 11  1  0
 11 12  2  0
 11 43  1  0
 12 13  1  0
 13 14  2  0
 13 44  1  0
 15 16  1  0
 15 45  1  0
 16 17  2  0
 16 18  1  0
 18 24  1  0
 18 19  1  0
 18 46  1  6
 19 20  1  0
 19 47  1  1
 20 21  1  0
 20 48  1  0
 20 49  1  0
 21 22  1  0
 21 50  1  0
 21 51  1  0
 22 35  1  0
 22 23  1  6
 22 24  1  0
 23 52  1  0
 23 53  1  0
 23 54  1  0
 24 25  1  0
 24 55  1  1
 25 26  1  0
 25 31  1  0
 25 56  1  6
 26 30  1  0
 26 27  1  0
 27 28  2  0
 27 57  1  0
 28 29  1  0
 28 58  1  0
 29 30  2  0
 31 35  1  0
 31 32  2  0
 32 33  1  0
 32 59  1  0
 33 34  1  0
 33 60  1  0
 33 61  1  0
 34 35  1  0
 34 62  1  0
 34 63  1  0
 35 36  1  1
 36 64  1  0
 36 65  1  0
 36 66  1  0
M  END
>  <i_m_ct_stereo_status>  (101) 
1

>  <s_m_source_file>  (101) 
/var/tmp/pbs.5076255.sched01/tmpguyree9i/45_f3p7e6s.sdf

>  <i_m_source_file_index>  (101) 
2

>  <i_lp_mmshare_version>  (101) 
48012

>  <i_f3d_flags>  (101) 
0

>  <s_epik_input>  (101) 
W0NIXTE9W0NIXUMoPU8pW0NIXT1DKFtDQF0xMltDSDNdKUMobjNbY0hdbltjSF1uMyk9W0NIXUMoPU8pW0NASF00W0NAQEhdMltDSDJdW0NIMl1bQ0BAXTUoW0NIM10pW0NASF00W0NAQEhdKG42W2NIXVtjSF1ubjYpQz03W0NAXTUoW0NIM10pW0NIMl1bQ0gyXVtDSF03

>  <s_epik_cmdline>  (101) 
J2VwaWtfcHl0aG9uJywgJy1waHQnLCAnMi4wJywgJy1waCcsICc3LjAnLCAnLXRuJywgJzgnLCAnLW1hJywgJzIwMCcsICctaW1hZScsICc8aW5maWxlLm1hZT4nLCAnLW9tYWUnLCAnPG91dGZpbGUubWFlPic=

>  <r_lp_tautomer_probability>  (101) 
1

>  <r_epik_Ionization_Penalty>  (101) 
5.17253e-06

>  <r_epik_Ionization_Penalty_Charging>  (101) 
0

>  <r_epik_Ionization_Penalty_Neutral>  (101) 
5.17253e-06

>  <r_epik_State_Penalty>  (101) 
-0

>  <r_epik_Charging_Adjusted_Penalty>  (101) 
0

>  <i_epik_Tot_Q>  (101) 
0

>  <i_epik_Tot_abs_Q>  (101) 
0

>  <s_lp_Force_Field>  (101) 
OPLS3e

>  <r_lp_Energy>  (101) 
63.4998

>  <b_lp_Chiralities_Consistent>  (101) 
1

>  <s_lp_Variant>  (101) 
31:0-1

>  <s_i_glide_gridfile>  (101) 
pfpi4k_grid

>  <i_i_glide_lignum>  (101) 
2

>  <i_i_glide_rotatable_bonds>  (101) 
2

>  <r_i_docking_score>  (101) 
-2.00867

>  <r_i_glide_ligand_efficiency>  (101) 
-0.0557964

>  <r_i_glide_ligand_efficiency_sa>  (101) 
-0.184236

>  <r_i_glide_ligand_efficiency_ln>  (101) 
-0.438238

>  <r_i_glide_gscore>  (101) 
-2.00867

>  <r_i_glide_lipo>  (101) 
-0.0345816

>  <r_i_glide_hbond>  (101) 
0

>  <r_i_glide_metal>  (101) 
-0

>  <r_i_glide_rewards>  (101) 
-0.118813

>  <r_i_glide_evdw>  (101) 
-28.3593

>  <r_i_glide_ecoul>  (101) 
-3.02254

>  <r_i_glide_erotb>  (101) 
0.174292

>  <r_i_glide_esite>  (101) 
-0.158223

>  <r_i_glide_emodel>  (101) 
-34.8354

>  <r_i_glide_energy>  (101) 
-31.3818

>  <r_i_glide_einternal>  (101) 
0.522686

>  <r_i_glide_intrahb_reward>  (101) 
-0

>  <i_i_glide_confnum>  (101) 
2

>  <i_i_glide_posenum>  (101) 
2

>  <r_i_glide_eff_state_penalty>  (101) 
0

>  <ligand_id>  (101) 
31

>  <original_smiles>  (101) 
CC12C=CC(=O)C=C1C(n1cncn1)=CC(=O)C1C2CCC2(C)C1C(n1ccnn1)C1=CCCC12C

>  <smiles>  (101) 
[H]C1=C(n2nc([H])nc2[H])C2=C([H])C(=O)C([H])=C([H])C2(C([H])([H])[H])C2([H])C([H])([H])C([H])([H])C3(C([H])([H])[H])C([H])(C([H])(n4nnc([H])c4[H])C4=C([H])C([H])([H])C([H])([H])C43C([H])([H])[H])C2([H])C1=O

$$$$
31:0:2
     RDKit          3D

 66 72  0  0  1  0  0  0  0  0999 V2000
    5.3849   -3.9463    4.0696 C   0  0  0  0  0  0  0  0  0  0  0  0
    5.5160   -5.4670    3.7660 C   0  0  2  0  0  0  0  0  0  0  0  0
    7.0098   -5.8167    3.8975 C   0  0  0  0  0  0  0  0  0  0  0  0
    7.7659   -6.4357    2.9800 C   0  0  0  0  0  0  0  0  0  0  0  0
    7.1697   -6.8539    1.7123 C   0  0  0  0  0  0  0  0  0  0  0  0
    7.8042   -7.5371    0.9141 O   0  0  0  0  0  0  0  0  0  0  0  0
    5.7975   -6.3924    1.4248 C   0  0  0  0  0  0  0  0  0  0  0  0
    5.0223   -5.7371    2.3221 C   0  0  0  0  0  0  0  0  0  0  0  0
    3.7336   -5.1792    1.8608 C   0  0  0  0  0  0  0  0  0  0  0  0
    3.7220   -4.5050    0.5994 N   0  0  0  0  0  0  0  0  0  0  0  0
    4.6959   -4.0196   -0.1954 C   0  0  0  0  0  0  0  0  0  0  0  0
    4.2665   -3.4227   -1.3015 N   0  0  0  0  0  0  0  0  0  0  0  0
    2.9198   -3.5788   -1.1226 C   0  0  0  0  0  0  0  0  0  0  0  0
    2.5446   -4.2309   -0.0256 N   0  0  0  0  0  0  0  0  0  0  0  0
    2.5914   -5.1068    2.6008 C   0  0  0  0  0  0  0  0  0  0  0  0
    2.3592   -5.6928    3.9332 C   0  0  0  0  0  0  0  0  0  0  0  0
    1.3664   -5.3574    4.5770 O   0  0  0  0  0  0  0  0  0  0  0  0
    3.2879   -6.7985    4.4616 C   0  0  1  0  0  0  0  0  0  0  0  0
    4.7625   -6.3735    4.8010 C   0  0  2  0  0  0  0  0  0  0  0  0
    4.9916   -5.9529    6.2872 C   0  0  0  0  0  0  0  0  0  0  0  0
    4.4100   -6.9555    7.3047 C   0  0  0  0  0  0  0  0  0  0  0  0
    2.9076   -7.1868    7.0814 C   0  0  1  0  0  0  0  0  0  0  0  0
    2.1417   -5.8656    7.3704 C   0  0  0  0  0  0  0  0  0  0  0  0
    2.7197   -7.6928    5.6140 C   0  0  1  0  0  0  0  0  0  0  0  0
    1.3079   -8.3493    5.5612 C   0  0  1  0  0  0  0  0  0  0  0  0
    1.1859   -9.4470    4.6071 N   0  0  0  0  0  0  0  0  0  0  0  0
    0.3568   -9.5229    3.5053 C   0  0  0  0  0  0  0  0  0  0  0  0
    0.6350  -10.7429    2.9762 C   0  0  0  0  0  0  0  0  0  0  0  0
    1.6060  -11.3568    3.7602 N   0  0  0  0  0  0  0  0  0  0  0  0
    1.9176  -10.5766    4.7464 N   0  0  0  0  0  0  0  0  0  0  0  0
    1.1130   -8.7444    7.0114 C   0  0  0  0  0  0  0  0  0  0  0  0
    0.0295   -9.0851    7.7075 C   0  0  0  0  0  0  0  0  0  0  0  0
    0.3242   -9.0240    9.1868 C   0  0  0  0  0  0  0  0  0  0  0  0
    1.5864   -8.1402    9.2513 C   0  0  0  0  0  0  0  0  0  0  0  0
    2.2803   -8.3763    7.8811 C   0  0  2  0  0  0  0  0  0  0  0  0
    3.1830   -9.6313    8.0207 C   0  0  0  0  0  0  0  0  0  0  0  0
    5.8330   -3.3418    3.2790 H   0  0  0  0  0  0  0  0  0  0  0  0
    5.8808   -3.6537    4.9985 H   0  0  0  0  0  0  0  0  0  0  0  0
    4.3562   -3.6007    4.1459 H   0  0  0  0  0  0  0  0  0  0  0  0
    7.5008   -5.4810    4.8063 H   0  0  0  0  0  0  0  0  0  0  0  0
    8.8262   -6.6228    3.1230 H   0  0  0  0  0  0  0  0  0  0  0  0
    5.4480   -6.5646    0.4187 H   0  0  0  0  0  0  0  0  0  0  0  0
    5.7528   -4.0868    0.0279 H   0  0  0  0  0  0  0  0  0  0  0  0
    2.1913   -3.2497   -1.8515 H   0  0  0  0  0  0  0  0  0  0  0  0
    1.7236   -4.6004    2.2121 H   0  0  0  0  0  0  0  0  0  0  0  0
    3.3718   -7.4706    3.6033 H   0  0  0  0  0  0  0  0  0  0  0  0
    5.2886   -7.3281    4.7243 H   0  0  0  0  0  0  0  0  0  0  0  0
    6.0605   -5.8756    6.4861 H   0  0  0  0  0  0  0  0  0  0  0  0
    4.5954   -4.9556    6.4744 H   0  0  0  0  0  0  0  0  0  0  0  0
    4.9610   -7.8884    7.2026 H   0  0  0  0  0  0  0  0  0  0  0  0
    4.5877   -6.6117    8.3205 H   0  0  0  0  0  0  0  0  0  0  0  0
    1.0640   -5.9686    7.2312 H   0  0  0  0  0  0  0  0  0  0  0  0
    2.4622   -5.0441    6.7365 H   0  0  0  0  0  0  0  0  0  0  0  0
    2.3190   -5.5204    8.3887 H   0  0  0  0  0  0  0  0  0  0  0  0
    3.3959   -8.5387    5.5310 H   0  0  0  0  0  0  0  0  0  0  0  0
    0.5427   -7.6119    5.3303 H   0  0  0  0  0  0  0  0  0  0  0  0
   -0.3380   -8.7505    3.2134 H   0  0  0  0  0  0  0  0  0  0  0  0
    0.2151  -11.2353    2.1135 H   0  0  0  0  0  0  0  0  0  0  0  0
   -0.9484   -9.3078    7.3065 H   0  0  0  0  0  0  0  0  0  0  0  0
   -0.5045   -8.6331    9.7787 H   0  0  0  0  0  0  0  0  0  0  0  0
    0.5860  -10.0213    9.5409 H   0  0  0  0  0  0  0  0  0  0  0  0
    1.2378   -7.1212    9.3845 H   0  0  0  0  0  0  0  0  0  0  0  0
    2.2197   -8.3742   10.1063 H   0  0  0  0  0  0  0  0  0  0  0  0
    4.0103   -9.4432    8.7027 H   0  0  0  0  0  0  0  0  0  0  0  0
    3.5870   -9.9891    7.0726 H   0  0  0  0  0  0  0  0  0  0  0  0
    2.6178  -10.4737    8.4307 H   0  0  0  0  0  0  0  0  0  0  0  0
  2  1  1  1
  1 37  1  0
  1 38  1  0
  1 39  1  0
  2  8  1  0
  2 19  1  0
  2  3  1  0
  3  4  2  0
  3 40  1  0
  4  5  1  0
  4 41  1  0
  5  6  2  0
  5  7  1  0
  7  8  2  0
  7 42  1  0
  8  9  1  0
  9 10  1  0
  9 15  2  0
 10 14  1  0
 10 11  1  0
 11 12  2  0
 11 43  1  0
 12 13  1  0
 13 14  2  0
 13 44  1  0
 15 16  1  0
 15 45  1  0
 16 17  2  0
 16 18  1  0
 18 24  1  0
 18 19  1  0
 18 46  1  6
 19 20  1  0
 19 47  1  1
 20 21  1  0
 20 48  1  0
 20 49  1  0
 21 22  1  0
 21 50  1  0
 21 51  1  0
 22 35  1  0
 22 23  1  6
 22 24  1  0
 23 52  1  0
 23 53  1  0
 23 54  1  0
 24 25  1  0
 24 55  1  1
 25 26  1  0
 25 31  1  0
 25 56  1  6
 26 30  1  0
 26 27  1  0
 27 28  2  0
 27 57  1  0
 28 29  1  0
 28 58  1  0
 29 30  2  0
 31 35  1  0
 31 32  2  0
 32 33  1  0
 32 59  1  0
 33 34  1  0
 33 60  1  0
 33 61  1  0
 34 35  1  0
 34 62  1  0
 34 63  1  0
 35 36  1  1
 36 64  1  0
 36 65  1  0
 36 66  1  0
M  END
>  <i_m_ct_stereo_status>  (102) 
1

>  <s_m_source_file>  (102) 
/var/tmp/pbs.5076255.sched01/tmpguyree9i/45_f3p7e6s.sdf

>  <i_m_source_file_index>  (102) 
2

>  <i_lp_mmshare_version>  (102) 
48012

>  <i_f3d_flags>  (102) 
0

>  <s_epik_input>  (102) 
W0NIXTE9W0NIXUMoPU8pW0NIXT1DKFtDQF0xMltDSDNdKUMobjNbY0hdbltjSF1uMyk9W0NIXUMoPU8pW0NASF00W0NAQEhdMltDSDJdW0NIMl1bQ0BAXTUoW0NIM10pW0NASF00W0NAQEhdKG42W2NIXVtjSF1ubjYpQz03W0NAXTUoW0NIM10pW0NIMl1bQ0gyXVtDSF03

>  <s_epik_cmdline>  (102) 
J2VwaWtfcHl0aG9uJywgJy1waHQnLCAnMi4wJywgJy1waCcsICc3LjAnLCAnLXRuJywgJzgnLCAnLW1hJywgJzIwMCcsICctaW1hZScsICc8aW5maWxlLm1hZT4nLCAnLW9tYWUnLCAnPG91dGZpbGUubWFlPic=

>  <r_lp_tautomer_probability>  (102) 
1

>  <r_epik_Ionization_Penalty>  (102) 
5.17253e-06

>  <r_epik_Ionization_Penalty_Charging>  (102) 
0

>  <r_epik_Ionization_Penalty_Neutral>  (102) 
5.17253e-06

>  <r_epik_State_Penalty>  (102) 
-0

>  <r_epik_Charging_Adjusted_Penalty>  (102) 
0

>  <i_epik_Tot_Q>  (102) 
0

>  <i_epik_Tot_abs_Q>  (102) 
0

>  <s_lp_Force_Field>  (102) 
OPLS3e

>  <r_lp_Energy>  (102) 
63.4998

>  <b_lp_Chiralities_Consistent>  (102) 
1

>  <s_lp_Variant>  (102) 
31:0-1

>  <s_i_glide_gridfile>  (102) 
pfpi4k_grid

>  <i_i_glide_lignum>  (102) 
2

>  <i_i_glide_rotatable_bonds>  (102) 
2

>  <r_i_docking_score>  (102) 
-1.81561

>  <r_i_glide_ligand_efficiency>  (102) 
-0.0504336

>  <r_i_glide_ligand_efficiency_sa>  (102) 
-0.166528

>  <r_i_glide_ligand_efficiency_ln>  (102) 
-0.396117

>  <r_i_glide_gscore>  (102) 
-1.81561

>  <r_i_glide_lipo>  (102) 
-0.212146

>  <r_i_glide_hbond>  (102) 
0

>  <r_i_glide_metal>  (102) 
-0

>  <r_i_glide_rewards>  (102) 
-0.275056

>  <r_i_glide_evdw>  (102) 
-28.7379

>  <r_i_glide_ecoul>  (102) 
0.014175

>  <r_i_glide_erotb>  (102) 
0.174292

>  <r_i_glide_esite>  (102) 
-0.0679324

>  <r_i_glide_emodel>  (102) 
-32.0345

>  <r_i_glide_energy>  (102) 
-28.7237

>  <r_i_glide_einternal>  (102) 
0.117131

>  <r_i_glide_intrahb_reward>  (102) 
-0

>  <i_i_glide_confnum>  (102) 
3

>  <i_i_glide_posenum>  (102) 
6

>  <r_i_glide_eff_state_penalty>  (102) 
0

>  <ligand_id>  (102) 
31

>  <original_smiles>  (102) 
CC12C=CC(=O)C=C1C(n1cncn1)=CC(=O)C1C2CCC2(C)C1C(n1ccnn1)C1=CCCC12C

>  <smiles>  (102) 
[H]C1=C(n2nc([H])nc2[H])C2=C([H])C(=O)C([H])=C([H])C2(C([H])([H])[H])C2([H])C([H])([H])C([H])([H])C3(C([H])([H])[H])C([H])(C([H])(n4nnc([H])c4[H])C4=C([H])C([H])([H])C([H])([H])C43C([H])([H])[H])C2([H])C1=O

$$$$
32:0:0
     RDKit          3D

 25 26  0  0  1  0  0  0  0  0999 V2000
    4.2296   -8.8972    2.8552 C   0  0  0  0  0  0  0  0  0  0  0  0
    3.9571   -7.7752    1.9626 N   0  0  0  0  0  0  0  0  0  0  0  0
    4.9833   -6.9565    1.5317 C   0  0  0  0  0  0  0  0  0  0  0  0
    4.6085   -5.8202    0.9431 C   0  0  0  0  0  0  0  0  0  0  0  0
    2.8721   -5.6593    0.8672 S   0  0  0  0  0  0  0  0  0  0  0  0
    2.6661   -7.2980    1.6870 C   0  0  0  0  0  0  0  0  0  0  0  0
    1.5844   -7.9566    1.9931 N   0  0  0  0  0  0  0  0  0  0  0  0
    0.3375   -7.4302    1.7011 C   0  0  0  0  0  0  0  0  0  0  0  0
    0.0421   -6.4079    1.0755 O   0  0  0  0  0  0  0  0  0  0  0  0
   -0.8066   -8.2432    2.3195 C   0  0  0  0  0  0  0  0  0  0  0  0
   -1.0855   -7.8559    4.0789 S   0  0  0  0  0  0  0  0  0  0  0  0
    0.1472   -8.7091    5.0188 C   0  0  0  0  0  0  0  0  0  0  0  0
    0.9511   -9.5900    4.3832 N   0  0  0  0  0  0  0  0  0  0  0  0
    1.9110  -10.1690    5.1121 N   0  0  0  0  0  0  0  0  0  0  0  0
    1.9813   -9.8513    6.4250 C   0  0  0  0  0  0  0  0  0  0  0  0
    1.1596   -8.9744    7.0592 N   0  0  0  0  0  0  0  0  0  0  0  0
    0.2172   -8.3707    6.3264 N   0  0  0  0  0  0  0  0  0  0  0  0
    5.2535   -9.2646    2.7521 H   0  0  0  0  0  0  0  0  0  0  0  0
    3.5665   -9.7464    2.6870 H   0  0  0  0  0  0  0  0  0  0  0  0
    4.1108   -8.5827    3.8926 H   0  0  0  0  0  0  0  0  0  0  0  0
    6.0000   -7.2856    1.7142 H   0  0  0  0  0  0  0  0  0  0  0  0
    5.2633   -5.0517    0.5553 H   0  0  0  0  0  0  0  0  0  0  0  0
   -1.7069   -7.9416    1.7939 H   0  0  0  0  0  0  0  0  0  0  0  0
   -0.6883   -9.3171    2.1407 H   0  0  0  0  0  0  0  0  0  0  0  0
    2.7338  -10.3477    7.0181 H   0  0  0  0  0  0  0  0  0  0  0  0
  1  2  1  0
  1 18  1  0
  1 19  1  0
  1 20  1  0
  2  6  1  0
  2  3  1  0
  3  4  2  0
  3 21  1  0
  4  5  1  0
  4 22  1  0
  5  6  1  0
  6  7  2  3
  7  8  1  0
  8  9  2  0
  8 10  1  0
 10 11  1  0
 10 23  1  0
 10 24  1  0
 11 12  1  0
 12 17  1  0
 12 13  2  0
 13 14  1  0
 14 15  2  0
 15 16  1  0
 15 25  1  0
 16 17  2  0
M  END
>  <i_m_ct_stereo_status>  (103) 
1

>  <s_m_source_file>  (103) 
/var/tmp/pbs.5076255.sched01/tmpguyree9i/45_f3p7e6s.sdf

>  <i_m_source_file_index>  (103) 
3

>  <i_lp_mmshare_version>  (103) 
48012

>  <i_f3d_flags>  (103) 
0

>  <s_epik_input>  (103) 
W0NIM11uMVtjSF1bY0hdc2NcMT1OL0MoPU8pW0NIMl1TYzJubltjSF1ubjI=

>  <s_epik_cmdline>  (103) 
J2VwaWtfcHl0aG9uJywgJy1waHQnLCAnMi4wJywgJy1waCcsICc3LjAnLCAnLXRuJywgJzgnLCAnLW1hJywgJzIwMCcsICctaW1hZScsICc8aW5maWxlLm1hZT4nLCAnLW9tYWUnLCAnPG91dGZpbGUubWFlPic=

>  <r_lp_tautomer_probability>  (103) 
0.5

>  <r_epik_Ionization_Penalty>  (103) 
8.93697e-06

>  <r_epik_Ionization_Penalty_Charging>  (103) 
8.79429e-06

>  <r_epik_Ionization_Penalty_Neutral>  (103) 
1.42676e-07

>  <r_epik_State_Penalty>  (103) 
0.41068

>  <r_epik_Charging_Adjusted_Penalty>  (103) 
0.410689

>  <i_epik_Tot_Q>  (103) 
0

>  <i_epik_Tot_abs_Q>  (103) 
0

>  <s_lp_Force_Field>  (103) 
OPLS3e

>  <r_lp_Energy>  (103) 
21.564

>  <b_lp_Chiralities_Consistent>  (103) 
1

>  <s_lp_Variant>  (103) 
32:0-1

>  <s_i_glide_gridfile>  (103) 
pfpi4k_grid

>  <i_i_glide_lignum>  (103) 
3

>  <i_i_glide_rotatable_bonds>  (103) 
4

>  <r_i_docking_score>  (103) 
-3.27053

>  <r_i_glide_ligand_efficiency>  (103) 
-0.192384

>  <r_i_glide_ligand_efficiency_sa>  (103) 
-0.494674

>  <r_i_glide_ligand_efficiency_ln>  (103) 
-0.853209

>  <r_i_glide_gscore>  (103) 
-3.27053

>  <r_i_glide_lipo>  (103) 
-0.156559

>  <r_i_glide_hbond>  (103) 
-0.192249

>  <r_i_glide_metal>  (103) 
-0

>  <r_i_glide_rewards>  (103) 
-1.5871

>  <r_i_glide_evdw>  (103) 
-22.8531

>  <r_i_glide_ecoul>  (103) 
-3.60146

>  <r_i_glide_erotb>  (103) 
0.743716

>  <r_i_glide_esite>  (103) 
-0.395466

>  <r_i_glide_emodel>  (103) 
-31.8095

>  <r_i_glide_energy>  (103) 
-26.4545

>  <r_i_glide_einternal>  (103) 
0.494703

>  <r_i_glide_intrahb_reward>  (103) 
-0

>  <i_i_glide_confnum>  (103) 
2

>  <i_i_glide_posenum>  (103) 
34

>  <r_i_glide_eff_state_penalty>  (103) 
0

>  <ligand_id>  (103) 
32

>  <original_smiles>  (103) 
Cn1ccsc1=NC(=O)CSc1nncnn1

>  <smiles>  (103) 
[H]c1nnc(SC([H])([H])C(=O)N=c2sc([H])c([H])n2C([H])([H])[H])nn1

$$$$
32:0:1
     RDKit          3D

 25 26  0  0  1  0  0  0  0  0999 V2000
    5.0022   -4.0003   -3.9386 C   0  0  0  0  0  0  0  0  0  0  0  0
    4.3667   -2.9877   -3.1050 N   0  0  0  0  0  0  0  0  0  0  0  0
    3.9763   -1.7843   -3.6468 C   0  0  0  0  0  0  0  0  0  0  0  0
    3.6633   -0.8298   -2.7753 C   0  0  0  0  0  0  0  0  0  0  0  0
    3.8185   -1.3767   -1.1198 S   0  0  0  0  0  0  0  0  0  0  0  0
    4.3529   -3.0434   -1.6971 C   0  0  0  0  0  0  0  0  0  0  0  0
    4.6730   -4.0986   -1.0204 N   0  0  0  0  0  0  0  0  0  0  0  0
    4.6777   -4.0756    0.3793 C   0  0  0  0  0  0  0  0  0  0  0  0
    4.5457   -3.1221    1.1553 O   0  0  0  0  0  0  0  0  0  0  0  0
    4.9187   -5.4505    1.0011 C   0  0  0  0  0  0  0  0  0  0  0  0
    4.0206   -5.6852    2.5699 S   0  0  0  0  0  0  0  0  0  0  0  0
    2.4868   -6.4664    2.2062 C   0  0  0  0  0  0  0  0  0  0  0  0
    1.8010   -6.0497    1.1156 N   0  0  0  0  0  0  0  0  0  0  0  0
    0.6256   -6.6530    0.8782 N   0  0  0  0  0  0  0  0  0  0  0  0
    0.2316   -7.6200    1.7405 C   0  0  0  0  0  0  0  0  0  0  0  0
    0.9147   -8.0115    2.8414 N   0  0  0  0  0  0  0  0  0  0  0  0
    2.0859   -7.4090    3.0872 N   0  0  0  0  0  0  0  0  0  0  0  0
    4.6870   -3.9191   -4.9784 H   0  0  0  0  0  0  0  0  0  0  0  0
    4.7689   -5.0108   -3.6069 H   0  0  0  0  0  0  0  0  0  0  0  0
    6.0800   -3.8547   -3.9045 H   0  0  0  0  0  0  0  0  0  0  0  0
    3.9433   -1.6821   -4.7168 H   0  0  0  0  0  0  0  0  0  0  0  0
    3.3362    0.1704   -3.0038 H   0  0  0  0  0  0  0  0  0  0  0  0
    4.7024   -6.2708    0.3118 H   0  0  0  0  0  0  0  0  0  0  0  0
    5.9803   -5.4774    1.2420 H   0  0  0  0  0  0  0  0  0  0  0  0
   -0.7010   -8.1214    1.5331 H   0  0  0  0  0  0  0  0  0  0  0  0
  1  2  1  0
  1 18  1  0
  1 19  1  0
  1 20  1  0
  2  6  1  0
  2  3  1  0
  3  4  2  0
  3 21  1  0
  4  5  1  0
  4 22  1  0
  5  6  1  0
  6  7  2  3
  7  8  1  0
  8  9  2  0
  8 10  1  0
 10 11  1  0
 10 23  1  0
 10 24  1  0
 11 12  1  0
 12 17  1  0
 12 13  2  0
 13 14  1  0
 14 15  2  0
 15 16  1  0
 15 25  1  0
 16 17  2  0
M  END
>  <i_m_ct_stereo_status>  (104) 
1

>  <s_m_source_file>  (104) 
/var/tmp/pbs.5076255.sched01/tmpguyree9i/45_f3p7e6s.sdf

>  <i_m_source_file_index>  (104) 
3

>  <i_lp_mmshare_version>  (104) 
48012

>  <i_f3d_flags>  (104) 
0

>  <s_epik_input>  (104) 
W0NIM11uMVtjSF1bY0hdc2NcMT1OL0MoPU8pW0NIMl1TYzJubltjSF1ubjI=

>  <s_epik_cmdline>  (104) 
J2VwaWtfcHl0aG9uJywgJy1waHQnLCAnMi4wJywgJy1waCcsICc3LjAnLCAnLXRuJywgJzgnLCAnLW1hJywgJzIwMCcsICctaW1hZScsICc8aW5maWxlLm1hZT4nLCAnLW9tYWUnLCAnPG91dGZpbGUubWFlPic=

>  <r_lp_tautomer_probability>  (104) 
0.5

>  <r_epik_Ionization_Penalty>  (104) 
8.93697e-06

>  <r_epik_Ionization_Penalty_Charging>  (104) 
8.79429e-06

>  <r_epik_Ionization_Penalty_Neutral>  (104) 
1.42676e-07

>  <r_epik_State_Penalty>  (104) 
0.41068

>  <r_epik_Charging_Adjusted_Penalty>  (104) 
0.410689

>  <i_epik_Tot_Q>  (104) 
0

>  <i_epik_Tot_abs_Q>  (104) 
0

>  <s_lp_Force_Field>  (104) 
OPLS3e

>  <r_lp_Energy>  (104) 
21.564

>  <b_lp_Chiralities_Consistent>  (104) 
1

>  <s_lp_Variant>  (104) 
32:0-1

>  <s_i_glide_gridfile>  (104) 
pfpi4k_grid

>  <i_i_glide_lignum>  (104) 
3

>  <i_i_glide_rotatable_bonds>  (104) 
4

>  <r_i_docking_score>  (104) 
-2.96686

>  <r_i_glide_ligand_efficiency>  (104) 
-0.174521

>  <r_i_glide_ligand_efficiency_sa>  (104) 
-0.448743

>  <r_i_glide_ligand_efficiency_ln>  (104) 
-0.773988

>  <r_i_glide_gscore>  (104) 
-2.96686

>  <r_i_glide_lipo>  (104) 
-0.2793

>  <r_i_glide_hbond>  (104) 
0

>  <r_i_glide_metal>  (104) 
-0

>  <r_i_glide_rewards>  (104) 
-1.77842

>  <r_i_glide_evdw>  (104) 
-27.0591

>  <r_i_glide_ecoul>  (104) 
-0.188555

>  <r_i_glide_erotb>  (104) 
0.743716

>  <r_i_glide_esite>  (104) 
-0.271613

>  <r_i_glide_emodel>  (104) 
-31.4612

>  <r_i_glide_energy>  (104) 
-27.2476

>  <r_i_glide_einternal>  (104) 
1.72788

>  <r_i_glide_intrahb_reward>  (104) 
-0

>  <i_i_glide_confnum>  (104) 
6

>  <i_i_glide_posenum>  (104) 
16

>  <r_i_glide_eff_state_penalty>  (104) 
0

>  <ligand_id>  (104) 
32

>  <original_smiles>  (104) 
Cn1ccsc1=NC(=O)CSc1nncnn1

>  <smiles>  (104) 
[H]c1nnc(SC([H])([H])C(=O)N=c2sc([H])c([H])n2C([H])([H])[H])nn1

$$$$
32:0:2
     RDKit          3D

 25 26  0  0  1  0  0  0  0  0999 V2000
   -1.1220    1.5383    3.6970 C   0  0  0  0  0  0  0  0  0  0  0  0
   -0.7726    0.1546    4.0362 N   0  0  0  0  0  0  0  0  0  0  0  0
   -1.5384   -0.5463    4.9472 C   0  0  0  0  0  0  0  0  0  0  0  0
   -1.0190   -1.6963    5.3750 C   0  0  0  0  0  0  0  0  0  0  0  0
    0.5243   -2.0444    4.6258 S   0  0  0  0  0  0  0  0  0  0  0  0
    0.4364   -0.4615    3.6681 C   0  0  0  0  0  0  0  0  0  0  0  0
    1.2692    0.0486    2.8027 N   0  0  0  0  0  0  0  0  0  0  0  0
    2.4613   -0.6128    2.4945 C   0  0  0  0  0  0  0  0  0  0  0  0
    2.9219   -1.6481    2.9894 O   0  0  0  0  0  0  0  0  0  0  0  0
    3.2949    0.1081    1.4261 C   0  0  0  0  0  0  0  0  0  0  0  0
    4.9709   -0.6000    1.2189 S   0  0  0  0  0  0  0  0  0  0  0  0
    4.9638   -1.6826   -0.1732 C   0  0  0  0  0  0  0  0  0  0  0  0
    3.7946   -2.2491   -0.5457 N   0  0  0  0  0  0  0  0  0  0  0  0
    3.8266   -3.0446   -1.6249 N   0  0  0  0  0  0  0  0  0  0  0  0
    5.0203   -3.2155   -2.2431 C   0  0  0  0  0  0  0  0  0  0  0  0
    6.1899   -2.6496   -1.8560 N   0  0  0  0  0  0  0  0  0  0  0  0
    6.1608   -1.8529   -0.7793 N   0  0  0  0  0  0  0  0  0  0  0  0
   -2.1836    1.7406    3.8488 H   0  0  0  0  0  0  0  0  0  0  0  0
   -0.8883    1.7939    2.6638 H   0  0  0  0  0  0  0  0  0  0  0  0
   -0.5735    2.2223    4.3429 H   0  0  0  0  0  0  0  0  0  0  0  0
   -2.4838   -0.1218    5.2398 H   0  0  0  0  0  0  0  0  0  0  0  0
   -1.4549   -2.3837    6.0866 H   0  0  0  0  0  0  0  0  0  0  0  0
    2.7479    0.0999    0.4853 H   0  0  0  0  0  0  0  0  0  0  0  0
    3.4277    1.1518    1.7309 H   0  0  0  0  0  0  0  0  0  0  0  0
    5.0429   -3.8525   -3.1142 H   0  0  0  0  0  0  0  0  0  0  0  0
  1  2  1  0
  1 18  1  0
  1 19  1  0
  1 20  1  0
  2  6  1  0
  2  3  1  0
  3  4  2  0
  3 21  1  0
  4  5  1  0
  4 22  1  0
  5  6  1  0
  6  7  2  3
  7  8  1  0
  8  9  2  0
  8 10  1  0
 10 11  1  0
 10 23  1  0
 10 24  1  0
 11 12  1  0
 12 17  1  0
 12 13  2  0
 13 14  1  0
 14 15  2  0
 15 16  1  0
 15 25  1  0
 16 17  2  0
M  END
>  <i_m_ct_stereo_status>  (105) 
1

>  <s_m_source_file>  (105) 
/var/tmp/pbs.5076255.sched01/tmpguyree9i/45_f3p7e6s.sdf

>  <i_m_source_file_index>  (105) 
3

>  <i_lp_mmshare_version>  (105) 
48012

>  <i_f3d_flags>  (105) 
0

>  <s_epik_input>  (105) 
W0NIM11uMVtjSF1bY0hdc2NcMT1OL0MoPU8pW0NIMl1TYzJubltjSF1ubjI=

>  <s_epik_cmdline>  (105) 
J2VwaWtfcHl0aG9uJywgJy1waHQnLCAnMi4wJywgJy1waCcsICc3LjAnLCAnLXRuJywgJzgnLCAnLW1hJywgJzIwMCcsICctaW1hZScsICc8aW5maWxlLm1hZT4nLCAnLW9tYWUnLCAnPG91dGZpbGUubWFlPic=

>  <r_lp_tautomer_probability>  (105) 
0.5

>  <r_epik_Ionization_Penalty>  (105) 
8.93697e-06

>  <r_epik_Ionization_Penalty_Charging>  (105) 
8.79429e-06

>  <r_epik_Ionization_Penalty_Neutral>  (105) 
1.42676e-07

>  <r_epik_State_Penalty>  (105) 
0.41068

>  <r_epik_Charging_Adjusted_Penalty>  (105) 
0.410689

>  <i_epik_Tot_Q>  (105) 
0

>  <i_epik_Tot_abs_Q>  (105) 
0

>  <s_lp_Force_Field>  (105) 
OPLS3e

>  <r_lp_Energy>  (105) 
21.564

>  <b_lp_Chiralities_Consistent>  (105) 
1

>  <s_lp_Variant>  (105) 
32:0-1

>  <s_i_glide_gridfile>  (105) 
pfpi4k_grid

>  <i_i_glide_lignum>  (105) 
3

>  <i_i_glide_rotatable_bonds>  (105) 
4

>  <r_i_docking_score>  (105) 
-2.69591

>  <r_i_glide_ligand_efficiency>  (105) 
-0.158583

>  <r_i_glide_ligand_efficiency_sa>  (105) 
-0.407761

>  <r_i_glide_ligand_efficiency_ln>  (105) 
-0.703302

>  <r_i_glide_gscore>  (105) 
-2.69591

>  <r_i_glide_lipo>  (105) 
-0.198192

>  <r_i_glide_hbond>  (105) 
0

>  <r_i_glide_metal>  (105) 
-0

>  <r_i_glide_rewards>  (105) 
-1.76032

>  <r_i_glide_evdw>  (105) 
-26.4518

>  <r_i_glide_ecoul>  (105) 
0.120718

>  <r_i_glide_erotb>  (105) 
0.743716

>  <r_i_glide_esite>  (105) 
-0.176628

>  <r_i_glide_emodel>  (105) 
-30.1385

>  <r_i_glide_energy>  (105) 
-26.3311

>  <r_i_glide_einternal>  (105) 
1.53675

>  <r_i_glide_intrahb_reward>  (105) 
-0

>  <i_i_glide_confnum>  (105) 
5

>  <i_i_glide_posenum>  (105) 
26

>  <r_i_glide_eff_state_penalty>  (105) 
0

>  <ligand_id>  (105) 
32

>  <original_smiles>  (105) 
Cn1ccsc1=NC(=O)CSc1nncnn1

>  <smiles>  (105) 
[H]c1nnc(SC([H])([H])C(=O)N=c2sc([H])c([H])n2C([H])([H])[H])nn1

$$$$
33:0:0
     RDKit          3D

 39 41  0  0  1  0  0  0  0  0999 V2000
    3.2713    0.3930   -5.3579 C   0  0  0  0  0  0  0  0  0  0  0  0
    3.1317   -0.8335   -4.4510 C   0  0  1  0  0  0  0  0  0  0  0  0
    4.2015   -1.6050   -4.6427 F   0  0  0  0  0  0  0  0  0  0  0  0
    3.1116   -0.4660   -2.9734 C   0  0  0  0  0  0  0  0  0  0  0  0
    3.0407   -1.6899   -2.1407 N   0  0  0  0  0  0  0  0  0  0  0  0
    3.5065   -1.5506   -0.7391 C   0  0  2  0  0  0  0  0  0  0  0  0
    5.0549   -1.4037   -0.6587 C   0  0  2  0  0  0  0  0  0  0  0  0
    5.7301   -2.6887   -1.2032 C   0  0  0  0  0  0  0  0  0  0  0  0
    5.2950   -3.8984   -0.3510 C   0  0  2  0  0  0  0  0  0  0  0  0
    3.7592   -4.0585   -0.4097 C   0  0  0  0  0  0  0  0  0  0  0  0
    3.0786   -2.7757    0.1164 C   0  0  1  0  0  0  0  0  0  0  0  0
    3.5002   -2.5599    1.5846 C   0  0  0  0  0  0  0  0  0  0  0  0
    5.0327   -2.3994    1.6541 C   0  0  1  0  0  0  0  0  0  0  0  0
    5.4022   -2.2044    3.0019 O   0  0  0  0  0  0  0  0  0  0  0  0
    5.7257   -3.6696    1.1126 C   0  0  0  0  0  0  0  0  0  0  0  0
    5.4640   -1.1827    0.8126 C   0  0  0  0  0  0  0  0  0  0  0  0
    2.4313    1.0764   -5.2157 H   0  0  0  0  0  0  0  0  0  0  0  0
    3.2976    0.0863   -6.4022 H   0  0  0  0  0  0  0  0  0  0  0  0
    4.1968    0.9366   -5.1513 H   0  0  0  0  0  0  0  0  0  0  0  0
    2.2452   -1.4219   -4.7068 H   0  0  0  0  0  0  0  0  0  0  0  0
    4.0159    0.1155   -2.7714 H   0  0  0  0  0  0  0  0  0  0  0  0
    2.2349    0.1357   -2.7519 H   0  0  0  0  0  0  0  0  0  0  0  0
    2.0680   -1.9742   -2.1015 H   0  0  0  0  0  0  0  0  0  0  0  0
    3.0224   -0.6690   -0.3167 H   0  0  0  0  0  0  0  0  0  0  0  0
    5.4114   -0.5404   -1.2213 H   0  0  0  0  0  0  0  0  0  0  0  0
    5.4653   -2.8625   -2.2477 H   0  0  0  0  0  0  0  0  0  0  0  0
    6.8159   -2.5801   -1.1870 H   0  0  0  0  0  0  0  0  0  0  0  0
    5.7673   -4.8060   -0.7299 H   0  0  0  0  0  0  0  0  0  0  0  0
    3.4452   -4.2392   -1.4359 H   0  0  0  0  0  0  0  0  0  0  0  0
    3.4475   -4.9260    0.1765 H   0  0  0  0  0  0  0  0  0  0  0  0
    1.9945   -2.8956    0.0780 H   0  0  0  0  0  0  0  0  0  0  0  0
    2.9954   -1.6821    1.9939 H   0  0  0  0  0  0  0  0  0  0  0  0
    3.1855   -3.4081    2.1916 H   0  0  0  0  0  0  0  0  0  0  0  0
    4.9615   -1.4310    3.3299 H   0  0  0  0  0  0  0  0  0  0  0  0
    5.4609   -4.5360    1.7179 H   0  0  0  0  0  0  0  0  0  0  0  0
    6.8105   -3.5676    1.1685 H   0  0  0  0  0  0  0  0  0  0  0  0
    6.5422   -1.0346    0.8832 H   0  0  0  0  0  0  0  0  0  0  0  0
    4.9969   -0.2696    1.1873 H   0  0  0  0  0  0  0  0  0  0  0  0
    3.5683   -2.4410   -2.5673 H   0  0  0  0  0  0  0  0  0  0  0  0
  1  2  1  0
  1 17  1  0
  1 18  1  0
  1 19  1  0
  2  3  1  0
  2  4  1  0
  2 20  1  6
  4  5  1  0
  4 21  1  0
  4 22  1  0
  5  6  1  0
  5 23  1  0
  5 39  1  0
  6 11  1  0
  6  7  1  0
  6 24  1  1
  7 16  1  0
  7  8  1  0
  7 25  1  6
  8  9  1  0
  8 26  1  0
  8 27  1  0
  9 15  1  0
  9 10  1  0
  9 28  1  6
 10 11  1  0
 10 29  1  0
 10 30  1  0
 11 12  1  0
 11 31  1  1
 12 13  1  0
 12 32  1  0
 12 33  1  0
 13 14  1  1
 13 15  1  0
 13 16  1  0
 14 34  1  0
 15 35  1  0
 15 36  1  0
 16 37  1  0
 16 38  1  0
M  CHG  1   5   1
M  END
>  <i_m_ct_stereo_status>  (106) 
1

>  <s_m_source_file>  (106) 
/var/tmp/pbs.5076255.sched01/tmpguyree9i/45_f3p7e6s.sdf

>  <i_m_source_file_index>  (106) 
5

>  <i_lp_mmshare_version>  (106) 
48012

>  <i_f3d_flags>  (106) 
0

>  <s_epik_input>  (106) 
W0NIM11bQ0BASF0oRilbQ0gyXVtOSF1bQ0BIXShbQ0BASF0oW0NIMl0xKVtDSDJdW0NASF0oW0NIMl0yKVtDSDJdMylbQ0BASF0yW0NIMl1bQ0BdMTNbT0hd

>  <s_epik_cmdline>  (106) 
J2VwaWtfcHl0aG9uJywgJy1waHQnLCAnMi4wJywgJy1waCcsICc3LjAnLCAnLXRuJywgJzgnLCAnLW1hJywgJzIwMCcsICctaW1hZScsICc8aW5maWxlLm1hZT4nLCAnLW9tYWUnLCAnPG91dGZpbGUubWFlPic=

>  <r_epik_Ionization_Penalty>  (106) 
0.00229042

>  <r_epik_Ionization_Penalty_Charging>  (106) 
0.00228993

>  <r_epik_Ionization_Penalty_Neutral>  (106) 
4.90003e-07

>  <r_epik_State_Penalty>  (106) 
0.00157865

>  <r_epik_Charging_Adjusted_Penalty>  (106) 
0.00386858

>  <i_epik_Tot_Q>  (106) 
1

>  <i_epik_Tot_abs_Q>  (106) 
1

>  <s_lp_Force_Field>  (106) 
OPLS3e

>  <r_lp_Energy>  (106) 
-4.62491

>  <b_lp_Chiralities_Consistent>  (106) 
1

>  <s_lp_Variant>  (106) 
33:0-1

>  <s_i_glide_gridfile>  (106) 
pfpi4k_grid

>  <i_i_glide_lignum>  (106) 
5

>  <i_i_glide_rotatable_bonds>  (106) 
4

>  <r_i_docking_score>  (106) 
-3.94328

>  <r_i_glide_ligand_efficiency>  (106) 
-0.246455

>  <r_i_glide_ligand_efficiency_sa>  (106) 
-0.621028

>  <r_i_glide_ligand_efficiency_ln>  (106) 
-1.04525

>  <r_i_glide_gscore>  (106) 
-3.94328

>  <r_i_glide_lipo>  (106) 
-0.606778

>  <r_i_glide_hbond>  (106) 
-0.0762454

>  <r_i_glide_metal>  (106) 
-0

>  <r_i_glide_rewards>  (106) 
-1.90232

>  <r_i_glide_evdw>  (106) 
-15.0037

>  <r_i_glide_ecoul>  (106) 
-7.29448

>  <r_i_glide_erotb>  (106) 
0.653634

>  <r_i_glide_esite>  (106) 
-0.167217

>  <r_i_glide_emodel>  (106) 
-28.3427

>  <r_i_glide_energy>  (106) 
-22.2982

>  <r_i_glide_einternal>  (106) 
0.963092

>  <r_i_glide_intrahb_reward>  (106) 
-0

>  <i_i_glide_confnum>  (106) 
4

>  <i_i_glide_posenum>  (106) 
1

>  <r_i_glide_eff_state_penalty>  (106) 
0

>  <ligand_id>  (106) 
33

>  <original_smiles>  (106) 
CC(F)CNC1C2CC3CC1CC(O)(C3)C2

>  <smiles>  (106) 
[H]OC12C([H])([H])C3([H])C([H])([H])C([H])(C1([H])[H])C([H])([N+]([H])([H])C([H])([H])C([H])(F)C([H])([H])[H])C([H])(C3([H])[H])C2([H])[H]

$$$$
33:0:1
     RDKit          3D

 39 41  0  0  1  0  0  0  0  0999 V2000
    2.2515    0.5741   -5.1512 C   0  0  0  0  0  0  0  0  0  0  0  0
    3.4526    0.0679   -4.3424 C   0  0  1  0  0  0  0  0  0  0  0  0
    4.2002    1.1069   -3.9704 F   0  0  0  0  0  0  0  0  0  0  0  0
    3.0357   -0.7366   -3.1030 C   0  0  0  0  0  0  0  0  0  0  0  0
    4.1783   -0.9174   -2.1956 N   0  0  0  0  0  0  0  0  0  0  0  0
    3.9165   -1.7278   -0.9839 C   0  0  2  0  0  0  0  0  0  0  0  0
    5.0280   -1.5263    0.0748 C   0  0  2  0  0  0  0  0  0  0  0  0
    6.3790   -2.0225   -0.4842 C   0  0  0  0  0  0  0  0  0  0  0  0
    6.2761   -3.5201   -0.8279 C   0  0  2  0  0  0  0  0  0  0  0  0
    5.1711   -3.7412   -1.8868 C   0  0  0  0  0  0  0  0  0  0  0  0
    3.8171   -3.2403   -1.3272 C   0  0  1  0  0  0  0  0  0  0  0  0
    3.4741   -4.0407   -0.0537 C   0  0  0  0  0  0  0  0  0  0  0  0
    4.5800   -3.8288    1.0016 C   0  0  1  0  0  0  0  0  0  0  0  0
    4.2433   -4.5613    2.1604 O   0  0  0  0  0  0  0  0  0  0  0  0
    5.9355   -4.3186    0.4479 C   0  0  0  0  0  0  0  0  0  0  0  0
    4.6711   -2.3262    1.3500 C   0  0  0  0  0  0  0  0  0  0  0  0
    1.6440   -0.2498   -5.5147 H   0  0  0  0  0  0  0  0  0  0  0  0
    2.6125    1.1457   -6.0091 H   0  0  0  0  0  0  0  0  0  0  0  0
    1.5862    1.2216   -4.5787 H   0  0  0  0  0  0  0  0  0  0  0  0
    4.0918   -0.5429   -4.9815 H   0  0  0  0  0  0  0  0  0  0  0  0
    2.2308   -0.2432   -2.5599 H   0  0  0  0  0  0  0  0  0  0  0  0
    2.6303   -1.6946   -3.4357 H   0  0  0  0  0  0  0  0  0  0  0  0
    4.9333   -1.3569   -2.6976 H   0  0  0  0  0  0  0  0  0  0  0  0
    2.9884   -1.3828   -0.5361 H   0  0  0  0  0  0  0  0  0  0  0  0
    5.0999   -0.4672    0.3309 H   0  0  0  0  0  0  0  0  0  0  0  0
    6.6300   -1.4706   -1.3864 H   0  0  0  0  0  0  0  0  0  0  0  0
    7.1752   -1.8412    0.2390 H   0  0  0  0  0  0  0  0  0  0  0  0
    7.2375   -3.8517   -1.2215 H   0  0  0  0  0  0  0  0  0  0  0  0
    5.4302   -3.2314   -2.8146 H   0  0  0  0  0  0  0  0  0  0  0  0
    5.0848   -4.7971   -2.1426 H   0  0  0  0  0  0  0  0  0  0  0  0
    3.0292   -3.4326   -2.0550 H   0  0  0  0  0  0  0  0  0  0  0  0
    2.5058   -3.7259    0.3363 H   0  0  0  0  0  0  0  0  0  0  0  0
    3.3819   -5.0989   -0.2963 H   0  0  0  0  0  0  0  0  0  0  0  0
    4.9345   -4.4646    2.7952 H   0  0  0  0  0  0  0  0  0  0  0  0
    5.8874   -5.3842    0.2137 H   0  0  0  0  0  0  0  0  0  0  0  0
    6.7261   -4.1931    1.1887 H   0  0  0  0  0  0  0  0  0  0  0  0
    5.4227   -2.1551    2.1214 H   0  0  0  0  0  0  0  0  0  0  0  0
    3.7198   -1.9740    1.7561 H   0  0  0  0  0  0  0  0  0  0  0  0
    4.4853    0.0026   -1.9103 H   0  0  0  0  0  0  0  0  0  0  0  0
  1  2  1  0
  1 17  1  0
  1 18  1  0
  1 19  1  0
  2  3  1  0
  2  4  1  0
  2 20  1  6
  4  5  1  0
  4 21  1  0
  4 22  1  0
  5  6  1  0
  5 23  1  0
  5 39  1  0
  6 11  1  0
  6  7  1  0
  6 24  1  1
  7 16  1  0
  7  8  1  0
  7 25  1  1
  8  9  1  0
  8 26  1  0
  8 27  1  0
  9 15  1  0
  9 10  1  0
  9 28  1  6
 10 11  1  0
 10 29  1  0
 10 30  1  0
 11 12  1  0
 11 31  1  6
 12 13  1  0
 12 32  1  0
 12 33  1  0
 13 14  1  1
 13 15  1  0
 13 16  1  0
 14 34  1  0
 15 35  1  0
 15 36  1  0
 16 37  1  0
 16 38  1  0
M  CHG  1   5   1
M  END
>  <i_m_ct_stereo_status>  (107) 
1

>  <s_m_source_file>  (107) 
/var/tmp/pbs.5076255.sched01/tmpguyree9i/45_f3p7e6s.sdf

>  <i_m_source_file_index>  (107) 
5

>  <i_lp_mmshare_version>  (107) 
48012

>  <i_f3d_flags>  (107) 
0

>  <s_epik_input>  (107) 
W0NIM11bQ0BASF0oRilbQ0gyXVtOSF1bQ0BIXShbQ0BASF0oW0NIMl0xKVtDSDJdW0NASF0oW0NIMl0yKVtDSDJdMylbQ0BASF0yW0NIMl1bQ0BdMTNbT0hd

>  <s_epik_cmdline>  (107) 
J2VwaWtfcHl0aG9uJywgJy1waHQnLCAnMi4wJywgJy1waCcsICc3LjAnLCAnLXRuJywgJzgnLCAnLW1hJywgJzIwMCcsICctaW1hZScsICc8aW5maWxlLm1hZT4nLCAnLW9tYWUnLCAnPG91dGZpbGUubWFlPic=

>  <r_epik_Ionization_Penalty>  (107) 
0.00229042

>  <r_epik_Ionization_Penalty_Charging>  (107) 
0.00228993

>  <r_epik_Ionization_Penalty_Neutral>  (107) 
4.90003e-07

>  <r_epik_State_Penalty>  (107) 
0.00157865

>  <r_epik_Charging_Adjusted_Penalty>  (107) 
0.00386858

>  <i_epik_Tot_Q>  (107) 
1

>  <i_epik_Tot_abs_Q>  (107) 
1

>  <s_lp_Force_Field>  (107) 
OPLS3e

>  <r_lp_Energy>  (107) 
-4.62491

>  <b_lp_Chiralities_Consistent>  (107) 
1

>  <s_lp_Variant>  (107) 
33:0-1

>  <s_i_glide_gridfile>  (107) 
pfpi4k_grid

>  <i_i_glide_lignum>  (107) 
5

>  <i_i_glide_rotatable_bonds>  (107) 
4

>  <r_i_docking_score>  (107) 
-2.7607

>  <r_i_glide_ligand_efficiency>  (107) 
-0.172544

>  <r_i_glide_ligand_efficiency_sa>  (107) 
-0.434783

>  <r_i_glide_ligand_efficiency_ln>  (107) 
-0.731779

>  <r_i_glide_gscore>  (107) 
-2.7607

>  <r_i_glide_lipo>  (107) 
-0.423848

>  <r_i_glide_hbond>  (107) 
0

>  <r_i_glide_metal>  (107) 
-0

>  <r_i_glide_rewards>  (107) 
-1.85232

>  <r_i_glide_evdw>  (107) 
-15.46

>  <r_i_glide_ecoul>  (107) 
-2.08783

>  <r_i_glide_erotb>  (107) 
0.653634

>  <r_i_glide_esite>  (107) 
-0.0519927

>  <r_i_glide_emodel>  (107) 
-21.4792

>  <r_i_glide_energy>  (107) 
-17.5478

>  <r_i_glide_einternal>  (107) 
0.866512

>  <r_i_glide_intrahb_reward>  (107) 
-0

>  <i_i_glide_confnum>  (107) 
2

>  <i_i_glide_posenum>  (107) 
38

>  <r_i_glide_eff_state_penalty>  (107) 
0

>  <ligand_id>  (107) 
33

>  <original_smiles>  (107) 
CC(F)CNC1C2CC3CC1CC(O)(C3)C2

>  <smiles>  (107) 
[H]OC12C([H])([H])C3([H])C([H])([H])C([H])(C1([H])[H])C([H])([N+]([H])([H])C([H])([H])C([H])(F)C([H])([H])[H])C([H])(C3([H])[H])C2([H])[H]

$$$$
33:0:2
     RDKit          3D

 39 41  0  0  1  0  0  0  0  0999 V2000
    2.3403    0.6188   -5.1931 C   0  0  0  0  0  0  0  0  0  0  0  0
    3.5403    0.1885   -4.3427 C   0  0  1  0  0  0  0  0  0  0  0  0
    4.2096    1.2693   -3.9438 F   0  0  0  0  0  0  0  0  0  0  0  0
    3.1094   -0.6389   -3.1247 C   0  0  0  0  0  0  0  0  0  0  0  0
    4.1973   -0.7070   -2.1337 N   0  0  0  0  0  0  0  0  0  0  0  0
    3.8591   -1.3598   -0.8473 C   0  0  2  0  0  0  0  0  0  0  0  0
    4.9986   -1.1924    0.1845 C   0  0  2  0  0  0  0  0  0  0  0  0
    6.2727   -1.9047   -0.3251 C   0  0  0  0  0  0  0  0  0  0  0  0
    5.9736   -3.4026   -0.5227 C   0  0  2  0  0  0  0  0  0  0  0  0
    4.8343   -3.5950   -1.5463 C   0  0  0  0  0  0  0  0  0  0  0  0
    3.5577   -2.8759   -1.0327 C   0  0  1  0  0  0  0  0  0  0  0  0
    3.1384   -3.4934    0.3149 C   0  0  0  0  0  0  0  0  0  0  0  0
    4.2835   -3.3193    1.3333 C   0  0  1  0  0  0  0  0  0  0  0  0
    3.9033   -3.8840    2.5690 O   0  0  0  0  0  0  0  0  0  0  0  0
    5.5586   -4.0229    0.8288 C   0  0  0  0  0  0  0  0  0  0  0  0
    4.5647   -1.8133    1.5324 C   0  0  0  0  0  0  0  0  0  0  0  0
    1.7903   -0.2533   -5.5162 H   0  0  0  0  0  0  0  0  0  0  0  0
    2.6768    1.1801   -6.0653 H   0  0  0  0  0  0  0  0  0  0  0  0
    1.6288    1.2496   -4.6644 H   0  0  0  0  0  0  0  0  0  0  0  0
    4.2311   -0.3948   -4.9515 H   0  0  0  0  0  0  0  0  0  0  0  0
    2.2209   -0.2070   -2.6544 H   0  0  0  0  0  0  0  0  0  0  0  0
    2.8275   -1.6363   -3.4747 H   0  0  0  0  0  0  0  0  0  0  0  0
    4.9793   -1.2020   -2.5381 H   0  0  0  0  0  0  0  0  0  0  0  0
    2.9925   -0.8545   -0.4295 H   0  0  0  0  0  0  0  0  0  0  0  0
    5.2022   -0.1305    0.3376 H   0  0  0  0  0  0  0  0  0  0  0  0
    6.6038   -1.4796   -1.2712 H   0  0  0  0  0  0  0  0  0  0  0  0
    7.0864   -1.7570    0.3844 H   0  0  0  0  0  0  0  0  0  0  0  0
    6.8817   -3.8840   -0.8842 H   0  0  0  0  0  0  0  0  0  0  0  0
    5.1345   -3.2141   -2.5216 H   0  0  0  0  0  0  0  0  0  0  0  0
    4.6317   -4.6576   -1.6941 H   0  0  0  0  0  0  0  0  0  0  0  0
    2.7342   -3.0399   -1.7257 H   0  0  0  0  0  0  0  0  0  0  0  0
    2.2234   -3.0168    0.6724 H   0  0  0  0  0  0  0  0  0  0  0  0
    2.9053   -4.5481    0.1769 H   0  0  0  0  0  0  0  0  0  0  0  0
    3.7777   -4.8112    2.4454 H   0  0  0  0  0  0  0  0  0  0  0  0
    5.3781   -5.0924    0.7011 H   0  0  0  0  0  0  0  0  0  0  0  0
    6.3644   -3.9220    1.5539 H   0  0  0  0  0  0  0  0  0  0  0  0
    5.3434   -1.6705    2.2803 H   0  0  0  0  0  0  0  0  0  0  0  0
    3.6709   -1.3067    1.9073 H   0  0  0  0  0  0  0  0  0  0  0  0
    4.5003    0.2430   -1.9437 H   0  0  0  0  0  0  0  0  0  0  0  0
  1  2  1  0
  1 17  1  0
  1 18  1  0
  1 19  1  0
  2  3  1  0
  2  4  1  0
  2 20  1  6
  4  5  1  0
  4 21  1  0
  4 22  1  0
  5  6  1  0
  5 23  1  0
  5 39  1  0
  6 11  1  0
  6  7  1  0
  6 24  1  1
  7 16  1  0
  7  8  1  0
  7 25  1  1
  8  9  1  0
  8 26  1  0
  8 27  1  0
  9 15  1  0
  9 10  1  0
  9 28  1  6
 10 11  1  0
 10 29  1  0
 10 30  1  0
 11 12  1  0
 11 31  1  6
 12 13  1  0
 12 32  1  0
 12 33  1  0
 13 14  1  1
 13 15  1  0
 13 16  1  0
 14 34  1  0
 15 35  1  0
 15 36  1  0
 16 37  1  0
 16 38  1  0
M  CHG  1   5   1
M  END
>  <i_m_ct_stereo_status>  (108) 
1

>  <s_m_source_file>  (108) 
/var/tmp/pbs.5076255.sched01/tmpguyree9i/45_f3p7e6s.sdf

>  <i_m_source_file_index>  (108) 
5

>  <i_lp_mmshare_version>  (108) 
48012

>  <i_f3d_flags>  (108) 
0

>  <s_epik_input>  (108) 
W0NIM11bQ0BASF0oRilbQ0gyXVtOSF1bQ0BIXShbQ0BASF0oW0NIMl0xKVtDSDJdW0NASF0oW0NIMl0yKVtDSDJdMylbQ0BASF0yW0NIMl1bQ0BdMTNbT0hd

>  <s_epik_cmdline>  (108) 
J2VwaWtfcHl0aG9uJywgJy1waHQnLCAnMi4wJywgJy1waCcsICc3LjAnLCAnLXRuJywgJzgnLCAnLW1hJywgJzIwMCcsICctaW1hZScsICc8aW5maWxlLm1hZT4nLCAnLW9tYWUnLCAnPG91dGZpbGUubWFlPic=

>  <r_epik_Ionization_Penalty>  (108) 
0.00229042

>  <r_epik_Ionization_Penalty_Charging>  (108) 
0.00228993

>  <r_epik_Ionization_Penalty_Neutral>  (108) 
4.90003e-07

>  <r_epik_State_Penalty>  (108) 
0.00157865

>  <r_epik_Charging_Adjusted_Penalty>  (108) 
0.00386858

>  <i_epik_Tot_Q>  (108) 
1

>  <i_epik_Tot_abs_Q>  (108) 
1

>  <s_lp_Force_Field>  (108) 
OPLS3e

>  <r_lp_Energy>  (108) 
-4.62491

>  <b_lp_Chiralities_Consistent>  (108) 
1

>  <s_lp_Variant>  (108) 
33:0-1

>  <s_i_glide_gridfile>  (108) 
pfpi4k_grid

>  <i_i_glide_lignum>  (108) 
5

>  <i_i_glide_rotatable_bonds>  (108) 
4

>  <r_i_docking_score>  (108) 
-2.70882

>  <r_i_glide_ligand_efficiency>  (108) 
-0.169301

>  <r_i_glide_ligand_efficiency_sa>  (108) 
-0.426612

>  <r_i_glide_ligand_efficiency_ln>  (108) 
-0.718027

>  <r_i_glide_gscore>  (108) 
-2.70882

>  <r_i_glide_lipo>  (108) 
-0.352272

>  <r_i_glide_hbond>  (108) 
0

>  <r_i_glide_metal>  (108) 
-0

>  <r_i_glide_rewards>  (108) 
-1.85232

>  <r_i_glide_evdw>  (108) 
-14.9376

>  <r_i_glide_ecoul>  (108) 
-2.40331

>  <r_i_glide_erotb>  (108) 
0.653634

>  <r_i_glide_esite>  (108) 
-0.0504847

>  <r_i_glide_emodel>  (108) 
-20.6656

>  <r_i_glide_energy>  (108) 
-17.3409

>  <r_i_glide_einternal>  (108) 
1.53127

>  <r_i_glide_intrahb_reward>  (108) 
-0

>  <i_i_glide_confnum>  (108) 
2

>  <i_i_glide_posenum>  (108) 
13

>  <r_i_glide_eff_state_penalty>  (108) 
0

>  <ligand_id>  (108) 
33

>  <original_smiles>  (108) 
CC(F)CNC1C2CC3CC1CC(O)(C3)C2

>  <smiles>  (108) 
[H]OC12C([H])([H])C3([H])C([H])([H])C([H])(C1([H])[H])C([H])([N+]([H])([H])C([H])([H])C([H])(F)C([H])([H])[H])C([H])(C3([H])[H])C2([H])[H]

$$$$
34:0:0
     RDKit          3D

 79 83  0  0  1  0  0  0  0  0999 V2000
    3.2711   -0.6239   -3.1771 C   0  0  0  0  0  0  0  0  0  0  0  0
    4.5540   -0.7285   -2.6219 O   0  0  0  0  0  0  0  0  0  0  0  0
    4.8870   -1.7598   -1.8372 C   0  0  0  0  0  0  0  0  0  0  0  0
    6.0525   -1.9205   -1.4695 O   0  0  0  0  0  0  0  0  0  0  0  0
    3.7127   -2.7174   -1.4342 C   0  0  0  0  0  0  0  0  0  0  0  0
    4.0007   -4.0217   -0.6255 C   0  0  0  0  0  0  0  0  0  0  0  0
    4.4810   -3.8044    0.8511 C   0  0  2  0  0  0  0  0  0  0  0  0
    6.0296   -4.0056    0.8627 C   0  0  0  0  0  0  0  0  0  0  0  0
    3.7706   -4.7366    1.9244 C   0  0  2  0  0  0  0  0  0  0  0  0
    2.2203   -4.8603    1.8030 C   0  0  0  0  0  0  0  0  0  0  0  0
    1.6212   -3.9856    2.8803 C   0  0  0  0  0  0  0  0  0  0  0  0
    2.5663   -4.1220    4.0687 C   0  0  2  0  0  0  0  0  0  0  0  0
    2.5405   -2.9102    5.0539 C   0  0  2  0  0  0  0  0  0  0  0  0
    1.1737   -2.5904    5.6830 C   0  0  0  0  0  0  0  0  0  0  0  0
    0.3829   -1.5327    4.9170 C   0  0  0  0  0  0  0  0  0  0  0  0
    1.1840   -0.2266    4.7410 C   0  0  1  0  0  0  0  0  0  0  0  0
    2.4953   -0.5204    3.9460 C   0  0  1  0  0  0  0  0  0  0  0  0
    3.3382    0.7669    3.7943 C   0  0  0  0  0  0  0  0  0  0  0  0
    2.5465    1.9438    3.2242 C   0  0  0  0  0  0  0  0  0  0  0  0
    1.3008    2.2150    4.0794 C   0  0  1  0  0  0  0  0  0  0  0  0
    0.5913    3.5105    3.6322 C   0  0  0  0  0  0  0  0  0  0  0  0
   -0.6863    3.7736    4.4266 C   0  0  0  0  0  0  0  0  0  0  0  0
   -0.9747    4.9024    4.8316 O   0  0  0  0  0  0  0  0  0  0  0  0
   -1.6068    2.5843    4.6672 C   0  0  0  0  0  0  0  0  0  0  0  0
   -0.8061    1.3478    5.1137 C   0  0  0  0  0  0  0  0  0  0  0  0
    0.3598    0.9741    4.1546 C   0  0  2  0  0  0  0  0  0  0  0  0
   -0.2253    0.6129    2.7675 C   0  0  0  0  0  0  0  0  0  0  0  0
    3.3448   -1.6429    4.6351 C   0  0  2  0  0  0  0  0  0  0  0  0
    4.6047   -2.0213    3.8197 C   0  0  0  0  0  0  0  0  0  0  0  0
    5.0343   -3.4902    3.9932 C   0  0  1  0  0  0  0  0  0  0  0  0
    5.4801   -3.6131    5.3359 O   0  0  0  0  0  0  0  0  0  0  0  0
    3.9777   -4.5258    3.5045 C   0  0  2  0  0  0  0  0  0  0  0  0
    4.3576   -5.9213    4.0664 C   0  0  0  0  0  0  0  0  0  0  0  0
    3.2485    0.2947   -3.7769 H   0  0  0  0  0  0  0  0  0  0  0  0
    2.5237   -0.5716   -2.3781 H   0  0  0  0  0  0  0  0  0  0  0  0
    3.0846   -1.4897   -3.8222 H   0  0  0  0  0  0  0  0  0  0  0  0
    2.9426   -2.1593   -0.9054 H   0  0  0  0  0  0  0  0  0  0  0  0
    3.2575   -3.0858   -2.3507 H   0  0  0  0  0  0  0  0  0  0  0  0
    3.0694   -4.6086   -0.7146 H   0  0  0  0  0  0  0  0  0  0  0  0
    4.7096   -4.6475   -1.1678 H   0  0  0  0  0  0  0  0  0  0  0  0
    4.1452   -2.7879    1.0541 H   0  0  0  0  0  0  0  0  0  0  0  0
    6.2828   -5.0042    0.5147 H   0  0  0  0  0  0  0  0  0  0  0  0
    6.5450   -3.8064    1.7864 H   0  0  0  0  0  0  0  0  0  0  0  0
    6.5322   -3.2843    0.2237 H   0  0  0  0  0  0  0  0  0  0  0  0
    4.1393   -5.7294    1.6410 H   0  0  0  0  0  0  0  0  0  0  0  0
    1.8030   -4.5685    0.8420 H   0  0  0  0  0  0  0  0  0  0  0  0
    1.9255   -5.9017    1.9736 H   0  0  0  0  0  0  0  0  0  0  0  0
    1.5864   -2.9591    2.5199 H   0  0  0  0  0  0  0  0  0  0  0  0
    0.6124   -4.3035    3.1427 H   0  0  0  0  0  0  0  0  0  0  0  0
    2.1859   -4.9834    4.6247 H   0  0  0  0  0  0  0  0  0  0  0  0
    3.0997   -3.3200    5.8820 H   0  0  0  0  0  0  0  0  0  0  0  0
    0.5991   -3.5084    5.7771 H   0  0  0  0  0  0  0  0  0  0  0  0
    1.3567   -2.2370    6.6974 H   0  0  0  0  0  0  0  0  0  0  0  0
    0.0775   -1.9286    3.9505 H   0  0  0  0  0  0  0  0  0  0  0  0
   -0.5260   -1.3574    5.4863 H   0  0  0  0  0  0  0  0  0  0  0  0
    1.5044    0.0704    5.7358 H   0  0  0  0  0  0  0  0  0  0  0  0
    2.2314   -0.8653    2.9458 H   0  0  0  0  0  0  0  0  0  0  0  0
    3.7327    1.0470    4.7705 H   0  0  0  0  0  0  0  0  0  0  0  0
    4.1993    0.5869    3.1515 H   0  0  0  0  0  0  0  0  0  0  0  0
    3.1833    2.8293    3.2101 H   0  0  0  0  0  0  0  0  0  0  0  0
    2.2723    1.7474    2.1883 H   0  0  0  0  0  0  0  0  0  0  0  0
    1.6598    2.4223    5.0894 H   0  0  0  0  0  0  0  0  0  0  0  0
    1.2506    4.3736    3.7336 H   0  0  0  0  0  0  0  0  0  0  0  0
    0.3236    3.4329    2.5813 H   0  0  0  0  0  0  0  0  0  0  0  0
   -2.3622    2.8510    5.4083 H   0  0  0  0  0  0  0  0  0  0  0  0
   -2.1460    2.3794    3.7430 H   0  0  0  0  0  0  0  0  0  0  0  0
   -0.4102    1.5489    6.1110 H   0  0  0  0  0  0  0  0  0  0  0  0
   -1.5155    0.5290    5.2246 H   0  0  0  0  0  0  0  0  0  0  0  0
   -0.7092    1.4606    2.2848 H   0  0  0  0  0  0  0  0  0  0  0  0
   -0.9815   -0.1586    2.8895 H   0  0  0  0  0  0  0  0  0  0  0  0
    0.5232    0.2520    2.0651 H   0  0  0  0  0  0  0  0  0  0  0  0
    3.7123   -1.2128    5.5805 H   0  0  0  0  0  0  0  0  0  0  0  0
    4.4252   -1.7613    2.7782 H   0  0  0  0  0  0  0  0  0  0  0  0
    5.4160   -1.3621    4.0939 H   0  0  0  0  0  0  0  0  0  0  0  0
    5.9850   -3.6731    3.5494 H   0  0  0  0  0  0  0  0  0  0  0  0
    6.3024   -3.1752    5.3800 H   0  0  0  0  0  0  0  0  0  0  0  0
    4.3645   -5.9289    5.1574 H   0  0  0  0  0  0  0  0  0  0  0  0
    5.3508   -6.2179    3.7248 H   0  0  0  0  0  0  0  0  0  0  0  0
    3.6560   -6.6952    3.7482 H   0  0  0  0  0  0  0  0  0  0  0  0
  1  2  1  0
  1 34  1  0
  1 35  1  0
  1 36  1  0
  2  3  1  0
  3  4  2  0
  3  5  1  0
  5  6  1  0
  5 37  1  0
  5 38  1  0
  6  7  1  0
  6 39  1  0
  6 40  1  0
  7  8  1  0
  7  9  1  0
  7 41  1  1
  8 42  1  0
  8 43  1  0
  8 44  1  0
  9 32  1  0
  9 10  1  0
  9 45  1  6
 10 11  1  0
 10 46  1  0
 10 47  1  0
 11 12  1  0
 11 48  1  0
 11 49  1  0
 12 32  1  0
 12 13  1  0
 12 50  1  1
 13 28  1  0
 13 14  1  0
 13 51  1  1
 14 15  1  0
 14 52  1  0
 14 53  1  0
 15 16  1  0
 15 54  1  0
 15 55  1  0
 16 26  1  0
 16 17  1  0
 16 56  1  1
 17 18  1  0
 17 28  1  0
 17 57  1  6
 18 19  1  0
 18 58  1  0
 18 59  1  0
 19 20  1  0
 19 60  1  0
 19 61  1  0
 20 26  1  0
 20 21  1  0
 20 62  1  1
 21 22  1  0
 21 63  1  0
 21 64  1  0
 22 23  2  0
 22 24  1  0
 24 25  1  0
 24 65  1  0
 24 66  1  0
 25 26  1  0
 25 67  1  0
 25 68  1  0
 26 27  1  6
 27 69  1  0
 27 70  1  0
 27 71  1  0
 28 29  1  0
 28 72  1  1
 29 30  1  0
 29 73  1  0
 29 74  1  0
 30 31  1  0
 30 32  1  0
 30 75  1  6
 31 76  1  0
 32 33  1  1
 33 77  1  0
 33 78  1  0
 33 79  1  0
M  END
>  <i_m_ct_stereo_status>  (109) 
1

>  <s_m_source_file>  (109) 
/var/tmp/pbs.5076255.sched01/tmpguyree9i/45_f3p7e6s.sdf

>  <i_m_source_file_index>  (109) 
6

>  <i_lp_mmshare_version>  (109) 
48012

>  <i_f3d_flags>  (109) 
0

>  <s_epik_input>  (109) 
W0NIM11PQyg9TylbQ0gyXVtDSDJdW0NASF0oW0NIM10pW0NASF0oW0NIMl1bQ0gyXTEpW0NAQF0oW0NIM10pKFtDQEBIXShbQ0gyXTIpW09IXSlbQ0BIXTFbQ0BIXShbQ0gyXVtDSDJdMylbQ0BASF0yW0NAQEhdKFtDQEhdM1tDQF00NVtDSDNdKVtDSDJdW0NIMl1bQ0BIXTRbQ0gyXUMoPU8pW0NIMl1bQ0gyXTU=

>  <s_epik_cmdline>  (109) 
J2VwaWtfcHl0aG9uJywgJy1waHQnLCAnMi4wJywgJy1waCcsICc3LjAnLCAnLXRuJywgJzgnLCAnLW1hJywgJzIwMCcsICctaW1hZScsICc8aW5maWxlLm1hZT4nLCAnLW9tYWUnLCAnPG91dGZpbGUubWFlPic=

>  <r_lp_tautomer_probability>  (109) 
1

>  <r_epik_Ionization_Penalty>  (109) 
3.18381e-06

>  <r_epik_Ionization_Penalty_Charging>  (109) 
0

>  <r_epik_Ionization_Penalty_Neutral>  (109) 
3.18381e-06

>  <r_epik_State_Penalty>  (109) 
-0

>  <r_epik_Charging_Adjusted_Penalty>  (109) 
0

>  <i_epik_Tot_Q>  (109) 
0

>  <i_epik_Tot_abs_Q>  (109) 
0

>  <s_epik_Chemistry_Notes>  (109) 
This compound has an ester and may undergo hydrolysis at high or low pH.

>  <s_lp_Force_Field>  (109) 
OPLS3e

>  <r_lp_Energy>  (109) 
60.3396

>  <b_lp_Chiralities_Consistent>  (109) 
1

>  <s_lp_Variant>  (109) 
34:0-1

>  <s_i_glide_gridfile>  (109) 
pfpi4k_grid

>  <i_i_glide_lignum>  (109) 
6

>  <i_i_glide_rotatable_bonds>  (109) 
6

>  <r_i_docking_score>  (109) 
-2.2945

>  <r_i_glide_ligand_efficiency>  (109) 
-0.0695303

>  <r_i_glide_ligand_efficiency_sa>  (109) 
-0.223021

>  <r_i_glide_ligand_efficiency_ln>  (109) 
-0.510285

>  <r_i_glide_gscore>  (109) 
-2.2945

>  <r_i_glide_lipo>  (109) 
-0.25472

>  <r_i_glide_hbond>  (109) 
-0.125424

>  <r_i_glide_metal>  (109) 
-0

>  <r_i_glide_rewards>  (109) 
-0.281774

>  <r_i_glide_evdw>  (109) 
-24.092

>  <r_i_glide_ecoul>  (109) 
-4.91858

>  <r_i_glide_erotb>  (109) 
0.382441

>  <r_i_glide_esite>  (109) 
-0.0726371

>  <r_i_glide_emodel>  (109) 
-24.991

>  <r_i_glide_energy>  (109) 
-29.0105

>  <r_i_glide_einternal>  (109) 
12.8222

>  <r_i_glide_intrahb_reward>  (109) 
-0

>  <i_i_glide_confnum>  (109) 
4

>  <i_i_glide_posenum>  (109) 
1

>  <r_i_glide_eff_state_penalty>  (109) 
0

>  <ligand_id>  (109) 
34

>  <original_smiles>  (109) 
COC(=O)CCC(C)C1CCC2C3CCC4C(CCC5CC(=O)CCC54C)C3CC(O)C12C

>  <smiles>  (109) 
[H]OC1([H])C([H])([H])C2([H])C3([H])C([H])([H])C([H])([H])C4([H])C([H])([H])C(=O)C([H])([H])C([H])([H])C4(C([H])([H])[H])C3([H])C([H])([H])C([H])([H])C2([H])C2([H])C([H])([H])C([H])([H])C([H])(C([H])(C([H])([H])[H])C([H])([H])C([H])([H])C(=O)OC([H])([H])[H])C12C([H])([H])[H]

$$$$
34:0:1
     RDKit          3D

 79 83  0  0  1  0  0  0  0  0999 V2000
    1.6782   -3.4437   -1.6994 C   0  0  0  0  0  0  0  0  0  0  0  0
    2.5095   -2.9677   -2.7383 O   0  0  0  0  0  0  0  0  0  0  0  0
    3.8283   -2.6840   -2.5561 C   0  0  0  0  0  0  0  0  0  0  0  0
    4.5685   -2.2396   -3.4460 O   0  0  0  0  0  0  0  0  0  0  0  0
    4.3955   -2.9022   -1.1517 C   0  0  0  0  0  0  0  0  0  0  0  0
    4.6141   -4.4001   -0.7532 C   0  0  0  0  0  0  0  0  0  0  0  0
    5.4099   -4.6230    0.5529 C   0  0  2  0  0  0  0  0  0  0  0  0
    6.7203   -3.7994    0.4183 C   0  0  0  0  0  0  0  0  0  0  0  0
    5.6271   -6.1524    0.9080 C   0  0  2  0  0  0  0  0  0  0  0  0
    4.3820   -7.0765    0.7614 C   0  0  0  0  0  0  0  0  0  0  0  0
    3.9062   -7.3619    2.1712 C   0  0  0  0  0  0  0  0  0  0  0  0
    5.1829   -7.4641    3.0037 C   0  0  2  0  0  0  0  0  0  0  0  0
    5.0076   -7.1299    4.5177 C   0  0  2  0  0  0  0  0  0  0  0  0
    3.9997   -8.0010    5.2848 C   0  0  0  0  0  0  0  0  0  0  0  0
    2.5998   -7.3975    5.3453 C   0  0  0  0  0  0  0  0  0  0  0  0
    2.6116   -5.9782    5.9484 C   0  0  1  0  0  0  0  0  0  0  0  0
    3.4949   -5.0432    5.0713 C   0  0  1  0  0  0  0  0  0  0  0  0
    3.5513   -3.6213    5.6809 C   0  0  0  0  0  0  0  0  0  0  0  0
    2.1710   -3.0283    5.9650 C   0  0  0  0  0  0  0  0  0  0  0  0
    1.3623   -3.9685    6.8657 C   0  0  1  0  0  0  0  0  0  0  0  0
    0.0388   -3.3059    7.3198 C   0  0  0  0  0  0  0  0  0  0  0  0
   -0.7913   -4.2449    8.1761 C   0  0  0  0  0  0  0  0  0  0  0  0
   -1.3816   -3.8525    9.1871 O   0  0  0  0  0  0  0  0  0  0  0  0
   -0.9217   -5.6739    7.6913 C   0  0  0  0  0  0  0  0  0  0  0  0
    0.4393   -6.2542    7.2778 C   0  0  0  0  0  0  0  0  0  0  0  0
    1.1874   -5.3869    6.2308 C   0  0  2  0  0  0  0  0  0  0  0  0
    0.3468   -5.3239    4.9266 C   0  0  0  0  0  0  0  0  0  0  0  0
    4.9281   -5.6248    4.9060 C   0  0  2  0  0  0  0  0  0  0  0  0
    5.8012   -4.7581    3.9706 C   0  0  0  0  0  0  0  0  0  0  0  0
    6.8938   -5.5701    3.2119 C   0  0  1  0  0  0  0  0  0  0  0  0
    7.8457   -6.1058    4.1230 O   0  0  0  0  0  0  0  0  0  0  0  0
    6.3011   -6.6489    2.2619 C   0  0  2  0  0  0  0  0  0  0  0  0
    7.4445   -7.6211    1.8450 C   0  0  0  0  0  0  0  0  0  0  0  0
    0.6263   -3.4657   -1.9936 H   0  0  0  0  0  0  0  0  0  0  0  0
    1.7921   -2.8187   -0.8275 H   0  0  0  0  0  0  0  0  0  0  0  0
    1.9424   -4.4519   -1.4426 H   0  0  0  0  0  0  0  0  0  0  0  0
    5.3146   -2.3261   -1.1814 H   0  0  0  0  0  0  0  0  0  0  0  0
    3.7874   -2.3888   -0.4099 H   0  0  0  0  0  0  0  0  0  0  0  0
    3.6413   -4.8110   -0.5141 H   0  0  0  0  0  0  0  0  0  0  0  0
    5.0250   -4.9789   -1.5867 H   0  0  0  0  0  0  0  0  0  0  0  0
    4.7333   -4.2114    1.2912 H   0  0  0  0  0  0  0  0  0  0  0  0
    7.2754   -4.1417   -0.4688 H   0  0  0  0  0  0  0  0  0  0  0  0
    7.3721   -3.7481    1.2556 H   0  0  0  0  0  0  0  0  0  0  0  0
    6.4782   -2.7395    0.3031 H   0  0  0  0  0  0  0  0  0  0  0  0
    6.2960   -6.4555    0.1025 H   0  0  0  0  0  0  0  0  0  0  0  0
    3.5462   -6.7215    0.1608 H   0  0  0  0  0  0  0  0  0  0  0  0
    4.6628   -8.0237    0.2922 H   0  0  0  0  0  0  0  0  0  0  0  0
    3.2850   -6.5345    2.5102 H   0  0  0  0  0  0  0  0  0  0  0  0
    3.3149   -8.2827    2.2309 H   0  0  0  0  0  0  0  0  0  0  0  0
    5.4714   -8.5166    2.9546 H   0  0  0  0  0  0  0  0  0  0  0  0
    5.9596   -7.4563    4.9165 H   0  0  0  0  0  0  0  0  0  0  0  0
    3.9737   -8.9925    4.8415 H   0  0  0  0  0  0  0  0  0  0  0  0
    4.3757   -8.1289    6.3009 H   0  0  0  0  0  0  0  0  0  0  0  0
    2.1571   -7.3896    4.3514 H   0  0  0  0  0  0  0  0  0  0  0  0
    2.0012   -8.0735    5.9488 H   0  0  0  0  0  0  0  0  0  0  0  0
    3.1143   -6.0533    6.9094 H   0  0  0  0  0  0  0  0  0  0  0  0
    3.0492   -4.9605    4.0797 H   0  0  0  0  0  0  0  0  0  0  0  0
    4.1189   -3.6577    6.6106 H   0  0  0  0  0  0  0  0  0  0  0  0
    4.0860   -2.9392    5.0208 H   0  0  0  0  0  0  0  0  0  0  0  0
    2.2909   -2.0600    6.4547 H   0  0  0  0  0  0  0  0  0  0  0  0
    1.6425   -2.8392    5.0323 H   0  0  0  0  0  0  0  0  0  0  0  0
    1.9429   -4.0912    7.7816 H   0  0  0  0  0  0  0  0  0  0  0  0
    0.2419   -2.4021    7.8955 H   0  0  0  0  0  0  0  0  0  0  0  0
   -0.5670   -3.0065    6.4634 H   0  0  0  0  0  0  0  0  0  0  0  0
   -1.3725   -6.2687    8.4808 H   0  0  0  0  0  0  0  0  0  0  0  0
   -1.6216   -5.6898    6.8617 H   0  0  0  0  0  0  0  0  0  0  0  0
    1.0468   -6.3553    8.1791 H   0  0  0  0  0  0  0  0  0  0  0  0
    0.2648   -7.2683    6.9153 H   0  0  0  0  0  0  0  0  0  0  0  0
   -0.5846   -4.7992    5.0946 H   0  0  0  0  0  0  0  0  0  0  0  0
    0.1011   -6.3266    4.5661 H   0  0  0  0  0  0  0  0  0  0  0  0
    0.8589   -4.7983    4.1189 H   0  0  0  0  0  0  0  0  0  0  0  0
    5.4077   -5.5563    5.8915 H   0  0  0  0  0  0  0  0  0  0  0  0
    5.1492   -4.2224    3.2721 H   0  0  0  0  0  0  0  0  0  0  0  0
    6.2254   -3.9624    4.5693 H   0  0  0  0  0  0  0  0  0  0  0  0
    7.5989   -5.0039    2.6686 H   0  0  0  0  0  0  0  0  0  0  0  0
    8.5907   -6.3334    3.5835 H   0  0  0  0  0  0  0  0  0  0  0  0
    7.8719   -8.1383    2.7066 H   0  0  0  0  0  0  0  0  0  0  0  0
    8.2564   -7.0860    1.3445 H   0  0  0  0  0  0  0  0  0  0  0  0
    7.0988   -8.3977    1.1618 H   0  0  0  0  0  0  0  0  0  0  0  0
  1  2  1  0
  1 34  1  0
  1 35  1  0
  1 36  1  0
  2  3  1  0
  3  4  2  0
  3  5  1  0
  5  6  1  0
  5 37  1  0
  5 38  1  0
  6  7  1  0
  6 39  1  0
  6 40  1  0
  7  8  1  0
  7  9  1  0
  7 41  1  1
  8 42  1  0
  8 43  1  0
  8 44  1  0
  9 32  1  0
  9 10  1  0
  9 45  1  6
 10 11  1  0
 10 46  1  0
 10 47  1  0
 11 12  1  0
 11 48  1  0
 11 49  1  0
 12 32  1  0
 12 13  1  0
 12 50  1  1
 13 28  1  0
 13 14  1  0
 13 51  1  1
 14 15  1  0
 14 52  1  0
 14 53  1  0
 15 16  1  0
 15 54  1  0
 15 55  1  0
 16 26  1  0
 16 17  1  0
 16 56  1  1
 17 18  1  0
 17 28  1  0
 17 57  1  6
 18 19  1  0
 18 58  1  0
 18 59  1  0
 19 20  1  0
 19 60  1  0
 19 61  1  0
 20 26  1  0
 20 21  1  0
 20 62  1  1
 21 22  1  0
 21 63  1  0
 21 64  1  0
 22 23  2  0
 22 24  1  0
 24 25  1  0
 24 65  1  0
 24 66  1  0
 25 26  1  0
 25 67  1  0
 25 68  1  0
 26 27  1  6
 27 69  1  0
 27 70  1  0
 27 71  1  0
 28 29  1  0
 28 72  1  1
 29 30  1  0
 29 73  1  0
 29 74  1  0
 30 31  1  0
 30 32  1  0
 30 75  1  6
 31 76  1  0
 32 33  1  6
 33 77  1  0
 33 78  1  0
 33 79  1  0
M  END
>  <i_m_ct_stereo_status>  (110) 
1

>  <s_m_source_file>  (110) 
/var/tmp/pbs.5076255.sched01/tmpguyree9i/45_f3p7e6s.sdf

>  <i_m_source_file_index>  (110) 
6

>  <i_lp_mmshare_version>  (110) 
48012

>  <i_f3d_flags>  (110) 
0

>  <s_epik_input>  (110) 
W0NIM11PQyg9TylbQ0gyXVtDSDJdW0NASF0oW0NIM10pW0NASF0oW0NIMl1bQ0gyXTEpW0NAQF0oW0NIM10pKFtDQEBIXShbQ0gyXTIpW09IXSlbQ0BIXTFbQ0BIXShbQ0gyXVtDSDJdMylbQ0BASF0yW0NAQEhdKFtDQEhdM1tDQF00NVtDSDNdKVtDSDJdW0NIMl1bQ0BIXTRbQ0gyXUMoPU8pW0NIMl1bQ0gyXTU=

>  <s_epik_cmdline>  (110) 
J2VwaWtfcHl0aG9uJywgJy1waHQnLCAnMi4wJywgJy1waCcsICc3LjAnLCAnLXRuJywgJzgnLCAnLW1hJywgJzIwMCcsICctaW1hZScsICc8aW5maWxlLm1hZT4nLCAnLW9tYWUnLCAnPG91dGZpbGUubWFlPic=

>  <r_lp_tautomer_probability>  (110) 
1

>  <r_epik_Ionization_Penalty>  (110) 
3.18381e-06

>  <r_epik_Ionization_Penalty_Charging>  (110) 
0

>  <r_epik_Ionization_Penalty_Neutral>  (110) 
3.18381e-06

>  <r_epik_State_Penalty>  (110) 
-0

>  <r_epik_Charging_Adjusted_Penalty>  (110) 
0

>  <i_epik_Tot_Q>  (110) 
0

>  <i_epik_Tot_abs_Q>  (110) 
0

>  <s_epik_Chemistry_Notes>  (110) 
This compound has an ester and may undergo hydrolysis at high or low pH.

>  <s_lp_Force_Field>  (110) 
OPLS3e

>  <r_lp_Energy>  (110) 
60.3396

>  <b_lp_Chiralities_Consistent>  (110) 
1

>  <s_lp_Variant>  (110) 
34:0-1

>  <s_i_glide_gridfile>  (110) 
pfpi4k_grid

>  <i_i_glide_lignum>  (110) 
6

>  <i_i_glide_rotatable_bonds>  (110) 
6

>  <r_i_docking_score>  (110) 
-2.16214

>  <r_i_glide_ligand_efficiency>  (110) 
-0.0655195

>  <r_i_glide_ligand_efficiency_sa>  (110) 
-0.210156

>  <r_i_glide_ligand_efficiency_ln>  (110) 
-0.480849

>  <r_i_glide_gscore>  (110) 
-2.16214

>  <r_i_glide_lipo>  (110) 
-0.52853

>  <r_i_glide_hbond>  (110) 
-0.087706

>  <r_i_glide_metal>  (110) 
-0

>  <r_i_glide_rewards>  (110) 
-0.281774

>  <r_i_glide_evdw>  (110) 
-21.9785

>  <r_i_glide_ecoul>  (110) 
-3.42123

>  <r_i_glide_erotb>  (110) 
0.382441

>  <r_i_glide_esite>  (110) 
-0.0344626

>  <r_i_glide_emodel>  (110) 
-21.159

>  <r_i_glide_energy>  (110) 
-25.3998

>  <r_i_glide_einternal>  (110) 
13.5933

>  <r_i_glide_intrahb_reward>  (110) 
-0

>  <i_i_glide_confnum>  (110) 
4

>  <i_i_glide_posenum>  (110) 
28

>  <r_i_glide_eff_state_penalty>  (110) 
0

>  <ligand_id>  (110) 
34

>  <original_smiles>  (110) 
COC(=O)CCC(C)C1CCC2C3CCC4C(CCC5CC(=O)CCC54C)C3CC(O)C12C

>  <smiles>  (110) 
[H]OC1([H])C([H])([H])C2([H])C3([H])C([H])([H])C([H])([H])C4([H])C([H])([H])C(=O)C([H])([H])C([H])([H])C4(C([H])([H])[H])C3([H])C([H])([H])C([H])([H])C2([H])C2([H])C([H])([H])C([H])([H])C([H])(C([H])(C([H])([H])[H])C([H])([H])C([H])([H])C(=O)OC([H])([H])[H])C12C([H])([H])[H]

$$$$
34:0:2
     RDKit          3D

 79 83  0  0  1  0  0  0  0  0999 V2000
   -0.9289    3.3496    3.1979 C   0  0  0  0  0  0  0  0  0  0  0  0
   -1.3870    2.6770    4.3500 O   0  0  0  0  0  0  0  0  0  0  0  0
   -1.4881    1.3097    4.4138 C   0  0  0  0  0  0  0  0  0  0  0  0
   -1.9705    0.7077    5.3989 O   0  0  0  0  0  0  0  0  0  0  0  0
   -1.0040    0.5163    3.1910 C   0  0  0  0  0  0  0  0  0  0  0  0
    0.5189    0.5292    2.8177 C   0  0  0  0  0  0  0  0  0  0  0  0
    1.5149   -0.0177    3.8934 C   0  0  2  0  0  0  0  0  0  0  0  0
    1.4225    0.8059    5.2148 C   0  0  0  0  0  0  0  0  0  0  0  0
    3.0137   -0.0305    3.3841 C   0  0  2  0  0  0  0  0  0  0  0  0
    3.2429   -0.5486    1.9330 C   0  0  0  0  0  0  0  0  0  0  0  0
    3.7487   -1.9709    2.0695 C   0  0  0  0  0  0  0  0  0  0  0  0
    4.6449   -1.9585    3.3065 C   0  0  2  0  0  0  0  0  0  0  0  0
    4.7997   -3.3384    4.0173 C   0  0  2  0  0  0  0  0  0  0  0  0
    5.3672   -4.4766    3.1400 C   0  0  0  0  0  0  0  0  0  0  0  0
    4.2913   -5.3289    2.4710 C   0  0  0  0  0  0  0  0  0  0  0  0
    3.3007   -5.9204    3.4941 C   0  0  1  0  0  0  0  0  0  0  0  0
    2.5947   -4.7576    4.2662 C   0  0  1  0  0  0  0  0  0  0  0  0
    1.6243   -5.3301    5.3267 C   0  0  0  0  0  0  0  0  0  0  0  0
    0.6426   -6.3592    4.7611 C   0  0  0  0  0  0  0  0  0  0  0  0
    1.3964   -7.4976    4.0574 C   0  0  1  0  0  0  0  0  0  0  0  0
    0.4355   -8.6398    3.6464 C   0  0  0  0  0  0  0  0  0  0  0  0
    1.1637   -9.7635    2.9067 C   0  0  0  0  0  0  0  0  0  0  0  0
    0.9307  -10.9459    3.1428 O   0  0  0  0  0  0  0  0  0  0  0  0
    2.1702   -9.3404    1.8413 C   0  0  0  0  0  0  0  0  0  0  0  0
    3.0776   -8.2045    2.3452 C   0  0  0  0  0  0  0  0  0  0  0  0
    2.3000   -6.9750    2.8944 C   0  0  2  0  0  0  0  0  0  0  0  0
    1.4563   -6.3501    1.7540 C   0  0  0  0  0  0  0  0  0  0  0  0
    3.6288   -3.7970    4.9364 C   0  0  2  0  0  0  0  0  0  0  0  0
    2.9580   -2.5889    5.6426 C   0  0  0  0  0  0  0  0  0  0  0  0
    3.8195   -1.3052    5.6689 C   0  0  1  0  0  0  0  0  0  0  0  0
    4.9546   -1.5422    6.5021 O   0  0  0  0  0  0  0  0  0  0  0  0
    4.1634   -0.7693    4.2320 C   0  0  2  0  0  0  0  0  0  0  0  0
    5.3320    0.2455    4.3587 C   0  0  0  0  0  0  0  0  0  0  0  0
   -1.0698    4.4250    3.3061 H   0  0  0  0  0  0  0  0  0  0  0  0
   -1.5089    3.0169    2.3612 H   0  0  0  0  0  0  0  0  0  0  0  0
    0.1048    3.1830    3.0291 H   0  0  0  0  0  0  0  0  0  0  0  0
   -1.3240   -0.5100    3.3443 H   0  0  0  0  0  0  0  0  0  0  0  0
   -1.5978    0.8518    2.3340 H   0  0  0  0  0  0  0  0  0  0  0  0
    0.5119   -0.0906    1.9098 H   0  0  0  0  0  0  0  0  0  0  0  0
    0.9076    1.4751    2.4713 H   0  0  0  0  0  0  0  0  0  0  0  0
    1.1782   -1.0413    3.9965 H   0  0  0  0  0  0  0  0  0  0  0  0
    1.5690    1.8692    5.0297 H   0  0  0  0  0  0  0  0  0  0  0  0
    1.9823    0.5524    6.0576 H   0  0  0  0  0  0  0  0  0  0  0  0
    0.4664    0.6442    5.6760 H   0  0  0  0  0  0  0  0  0  0  0  0
    3.2678    1.0369    3.3244 H   0  0  0  0  0  0  0  0  0  0  0  0
    2.3855   -0.5258    1.2593 H   0  0  0  0  0  0  0  0  0  0  0  0
    4.0085    0.0638    1.4435 H   0  0  0  0  0  0  0  0  0  0  0  0
    2.8974   -2.6356    2.2057 H   0  0  0  0  0  0  0  0  0  0  0  0
    4.2915   -2.2857    1.1721 H   0  0  0  0  0  0  0  0  0  0  0  0
    5.6342   -1.6956    2.9268 H   0  0  0  0  0  0  0  0  0  0  0  0
    5.6187   -3.1370    4.6929 H   0  0  0  0  0  0  0  0  0  0  0  0
    6.0439   -4.0572    2.3989 H   0  0  0  0  0  0  0  0  0  0  0  0
    5.9775   -5.1137    3.7819 H   0  0  0  0  0  0  0  0  0  0  0  0
    3.7673   -4.7382    1.7224 H   0  0  0  0  0  0  0  0  0  0  0  0
    4.8145   -6.1162    1.9356 H   0  0  0  0  0  0  0  0  0  0  0  0
    3.9011   -6.4428    4.2341 H   0  0  0  0  0  0  0  0  0  0  0  0
    2.0053   -4.1751    3.5571 H   0  0  0  0  0  0  0  0  0  0  0  0
    2.2076   -5.7975    6.1207 H   0  0  0  0  0  0  0  0  0  0  0  0
    1.0534   -4.5277    5.7950 H   0  0  0  0  0  0  0  0  0  0  0  0
    0.0427   -6.7642    5.5790 H   0  0  0  0  0  0  0  0  0  0  0  0
   -0.0554   -5.8767    4.0796 H   0  0  0  0  0  0  0  0  0  0  0  0
    2.0539   -7.9361    4.8117 H   0  0  0  0  0  0  0  0  0  0  0  0
   -0.0477   -9.0685    4.5261 H   0  0  0  0  0  0  0  0  0  0  0  0
   -0.3621   -8.2725    3.0010 H   0  0  0  0  0  0  0  0  0  0  0  0
    2.7596  -10.2047    1.5289 H   0  0  0  0  0  0  0  0  0  0  0  0
    1.6207   -9.0130    0.9624 H   0  0  0  0  0  0  0  0  0  0  0  0
    3.7227   -8.6127    3.1253 H   0  0  0  0  0  0  0  0  0  0  0  0
    3.7353   -7.9250    1.5208 H   0  0  0  0  0  0  0  0  0  0  0  0
    0.6792   -7.0287    1.4029 H   0  0  0  0  0  0  0  0  0  0  0  0
    2.0780   -6.1077    0.8917 H   0  0  0  0  0  0  0  0  0  0  0  0
    0.9595   -5.4367    2.0707 H   0  0  0  0  0  0  0  0  0  0  0  0
    4.1061   -4.3799    5.7352 H   0  0  0  0  0  0  0  0  0  0  0  0
    1.9886   -2.4293    5.1640 H   0  0  0  0  0  0  0  0  0  0  0  0
    2.6898   -2.8611    6.6511 H   0  0  0  0  0  0  0  0  0  0  0  0
    3.4281   -0.5730    6.3133 H   0  0  0  0  0  0  0  0  0  0  0  0
    5.4745   -2.2641    6.1831 H   0  0  0  0  0  0  0  0  0  0  0  0
    6.2326   -0.2120    4.7758 H   0  0  0  0  0  0  0  0  0  0  0  0
    5.0509    1.0765    5.0156 H   0  0  0  0  0  0  0  0  0  0  0  0
    5.6176    0.6659    3.3947 H   0  0  0  0  0  0  0  0  0  0  0  0
  1  2  1  0
  1 34  1  0
  1 35  1  0
  1 36  1  0
  2  3  1  0
  3  4  2  0
  3  5  1  0
  5  6  1  0
  5 37  1  0
  5 38  1  0
  6  7  1  0
  6 39  1  0
  6 40  1  0
  7  8  1  0
  7  9  1  0
  7 41  1  1
  8 42  1  0
  8 43  1  0
  8 44  1  0
  9 32  1  0
  9 10  1  0
  9 45  1  6
 10 11  1  0
 10 46  1  0
 10 47  1  0
 11 12  1  0
 11 48  1  0
 11 49  1  0
 12 32  1  0
 12 13  1  0
 12 50  1  6
 13 28  1  0
 13 14  1  0
 13 51  1  1
 14 15  1  0
 14 52  1  0
 14 53  1  0
 15 16  1  0
 15 54  1  0
 15 55  1  0
 16 26  1  0
 16 17  1  0
 16 56  1  1
 17 18  1  0
 17 28  1  0
 17 57  1  6
 18 19  1  0
 18 58  1  0
 18 59  1  0
 19 20  1  0
 19 60  1  0
 19 61  1  0
 20 26  1  0
 20 21  1  0
 20 62  1  1
 21 22  1  0
 21 63  1  0
 21 64  1  0
 22 23  2  0
 22 24  1  0
 24 25  1  0
 24 65  1  0
 24 66  1  0
 25 26  1  0
 25 67  1  0
 25 68  1  0
 26 27  1  6
 27 69  1  0
 27 70  1  0
 27 71  1  0
 28 29  1  0
 28 72  1  1
 29 30  1  0
 29 73  1  0
 29 74  1  0
 30 31  1  0
 30 32  1  0
 30 75  1  1
 31 76  1  0
 32 33  1  1
 33 77  1  0
 33 78  1  0
 33 79  1  0
M  END
>  <i_m_ct_stereo_status>  (111) 
1

>  <s_m_source_file>  (111) 
/var/tmp/pbs.5076255.sched01/tmpguyree9i/45_f3p7e6s.sdf

>  <i_m_source_file_index>  (111) 
6

>  <i_lp_mmshare_version>  (111) 
48012

>  <i_f3d_flags>  (111) 
0

>  <s_epik_input>  (111) 
W0NIM11PQyg9TylbQ0gyXVtDSDJdW0NASF0oW0NIM10pW0NASF0oW0NIMl1bQ0gyXTEpW0NAQF0oW0NIM10pKFtDQEBIXShbQ0gyXTIpW09IXSlbQ0BIXTFbQ0BIXShbQ0gyXVtDSDJdMylbQ0BASF0yW0NAQEhdKFtDQEhdM1tDQF00NVtDSDNdKVtDSDJdW0NIMl1bQ0BIXTRbQ0gyXUMoPU8pW0NIMl1bQ0gyXTU=

>  <s_epik_cmdline>  (111) 
J2VwaWtfcHl0aG9uJywgJy1waHQnLCAnMi4wJywgJy1waCcsICc3LjAnLCAnLXRuJywgJzgnLCAnLW1hJywgJzIwMCcsICctaW1hZScsICc8aW5maWxlLm1hZT4nLCAnLW9tYWUnLCAnPG91dGZpbGUubWFlPic=

>  <r_lp_tautomer_probability>  (111) 
1

>  <r_epik_Ionization_Penalty>  (111) 
3.18381e-06

>  <r_epik_Ionization_Penalty_Charging>  (111) 
0

>  <r_epik_Ionization_Penalty_Neutral>  (111) 
3.18381e-06

>  <r_epik_State_Penalty>  (111) 
-0

>  <r_epik_Charging_Adjusted_Penalty>  (111) 
0

>  <i_epik_Tot_Q>  (111) 
0

>  <i_epik_Tot_abs_Q>  (111) 
0

>  <s_epik_Chemistry_Notes>  (111) 
This compound has an ester and may undergo hydrolysis at high or low pH.

>  <s_lp_Force_Field>  (111) 
OPLS3e

>  <r_lp_Energy>  (111) 
60.3396

>  <b_lp_Chiralities_Consistent>  (111) 
1

>  <s_lp_Variant>  (111) 
34:0-1

>  <s_i_glide_gridfile>  (111) 
pfpi4k_grid

>  <i_i_glide_lignum>  (111) 
6

>  <i_i_glide_rotatable_bonds>  (111) 
6

>  <r_i_docking_score>  (111) 
-1.90148

>  <r_i_glide_ligand_efficiency>  (111) 
-0.0576206

>  <r_i_glide_ligand_efficiency_sa>  (111) 
-0.18482

>  <r_i_glide_ligand_efficiency_ln>  (111) 
-0.422879

>  <r_i_glide_gscore>  (111) 
-1.90148

>  <r_i_glide_lipo>  (111) 
-0.284581

>  <r_i_glide_hbond>  (111) 
0

>  <r_i_glide_metal>  (111) 
-0

>  <r_i_glide_rewards>  (111) 
-0.389332

>  <r_i_glide_evdw>  (111) 
-23.5508

>  <r_i_glide_ecoul>  (111) 
-2.71056

>  <r_i_glide_erotb>  (111) 
0.382441

>  <r_i_glide_esite>  (111) 
-0.0258844

>  <r_i_glide_emodel>  (111) 
-20.7264

>  <r_i_glide_energy>  (111) 
-26.2613

>  <r_i_glide_einternal>  (111) 
10.8259

>  <r_i_glide_intrahb_reward>  (111) 
-0

>  <i_i_glide_confnum>  (111) 
4

>  <i_i_glide_posenum>  (111) 
2

>  <r_i_glide_eff_state_penalty>  (111) 
0

>  <ligand_id>  (111) 
34

>  <original_smiles>  (111) 
COC(=O)CCC(C)C1CCC2C3CCC4C(CCC5CC(=O)CCC54C)C3CC(O)C12C

>  <smiles>  (111) 
[H]OC1([H])C([H])([H])C2([H])C3([H])C([H])([H])C([H])([H])C4([H])C([H])([H])C(=O)C([H])([H])C([H])([H])C4(C([H])([H])[H])C3([H])C([H])([H])C([H])([H])C2([H])C2([H])C([H])([H])C([H])([H])C([H])(C([H])(C([H])([H])[H])C([H])([H])C([H])([H])C(=O)OC([H])([H])[H])C12C([H])([H])[H]

$$$$
35:0:0
     RDKit          3D

 22 25  0  0  1  0  0  0  0  0999 V2000
    4.0620   -0.8761   -3.2954 C   0  0  0  0  0  0  0  0  0  0  0  0
    3.0252   -1.7109   -3.7331 C   0  0  0  0  0  0  0  0  0  0  0  0
    2.5286   -2.7126   -2.8799 C   0  0  0  0  0  0  0  0  0  0  0  0
    3.0351   -2.8952   -1.5755 C   0  0  0  0  0  0  0  0  0  0  0  0
    2.5125   -3.8535   -0.7694 N   0  0  0  0  0  0  0  0  0  0  0  0
    3.0769   -3.9986    0.4732 C   0  0  0  0  0  0  0  0  0  0  0  0
    4.1299   -3.1555    0.9000 C   0  0  0  0  0  0  0  0  0  0  0  0
    4.6225   -3.3790    2.2091 C   0  0  0  0  0  0  0  0  0  0  0  0
    4.1673   -4.3296    3.0683 N   0  0  0  0  0  0  0  0  0  0  0  0
    3.1615   -5.0939    2.5584 C   0  0  0  0  0  0  0  0  0  0  0  0
    2.5084   -6.0866    3.1567 N   0  0  0  0  0  0  0  0  0  0  0  0
    1.5721   -6.5269    2.2002 N   0  0  0  0  0  0  0  0  0  0  0  0
    1.6426   -5.8551    1.0840 N   0  0  0  0  0  0  0  0  0  0  0  0
    2.6216   -4.9788    1.3442 N   0  0  0  0  0  0  0  0  0  0  0  0
    4.6243   -2.1923    0.0955 N   0  0  0  0  0  0  0  0  0  0  0  0
    4.0969   -2.0504   -1.1375 C   0  0  0  0  0  0  0  0  0  0  0  0
    4.5946   -1.0540   -2.0069 C   0  0  0  0  0  0  0  0  0  0  0  0
    4.4342   -0.0971   -3.9492 H   0  0  0  0  0  0  0  0  0  0  0  0
    2.5999   -1.5690   -4.7152 H   0  0  0  0  0  0  0  0  0  0  0  0
    1.7232   -3.3390   -3.2248 H   0  0  0  0  0  0  0  0  0  0  0  0
    5.4224   -2.7585    2.5863 H   0  0  0  0  0  0  0  0  0  0  0  0
    5.3832   -0.3964   -1.6780 H   0  0  0  0  0  0  0  0  0  0  0  0
  1 17  2  0
  1  2  1  0
  1 18  1  0
  2  3  2  0
  2 19  1  0
  3  4  1  0
  3 20  1  0
  4 16  2  0
  4  5  1  0
  5  6  2  0
  6 14  1  0
  6  7  1  0
  7  8  1  0
  7 15  2  0
  8  9  2  0
  8 21  1  0
  9 10  1  0
 10 14  1  0
 10 11  2  0
 11 12  1  0
 12 13  2  0
 13 14  1  0
 15 16  1  0
 16 17  1  0
 17 22  1  0
M  END
>  <i_m_ct_stereo_status>  (112) 
1

>  <s_m_source_file>  (112) 
/var/tmp/pbs.5076255.sched01/tmpguyree9i/45_f3p7e6s.sdf

>  <i_m_source_file_index>  (112) 
7

>  <i_lp_mmshare_version>  (112) 
48012

>  <i_f3d_flags>  (112) 
0

>  <s_epik_input>  (112) 
W2NIXTFbY0hdW2NIXVtjSF1jKGMxMiluYzNjKG4yKW40YyhuW2NIXTMpbm5uNA==

>  <s_epik_cmdline>  (112) 
J2VwaWtfcHl0aG9uJywgJy1waHQnLCAnMi4wJywgJy1waCcsICc3LjAnLCAnLXRuJywgJzgnLCAnLW1hJywgJzIwMCcsICctaW1hZScsICc8aW5maWxlLm1hZT4nLCAnLW9tYWUnLCAnPG91dGZpbGUubWFlPic=

>  <r_lp_tautomer_probability>  (112) 
1

>  <r_epik_Ionization_Penalty>  (112) 
1.42083e-14

>  <r_epik_Ionization_Penalty_Charging>  (112) 
0

>  <r_epik_Ionization_Penalty_Neutral>  (112) 
1.42083e-14

>  <r_epik_State_Penalty>  (112) 
-0

>  <r_epik_Charging_Adjusted_Penalty>  (112) 
0

>  <i_epik_Tot_Q>  (112) 
0

>  <i_epik_Tot_abs_Q>  (112) 
0

>  <s_lp_Force_Field>  (112) 
OPLS3e

>  <r_lp_Energy>  (112) 
34.1752

>  <b_lp_Chiralities_Consistent>  (112) 
1

>  <s_lp_Variant>  (112) 
35:0-1

>  <s_i_glide_gridfile>  (112) 
pfpi4k_grid

>  <i_i_glide_lignum>  (112) 
7

>  <i_i_glide_rotatable_bonds>  (112) 
0

>  <r_i_docking_score>  (112) 
-3.78368

>  <r_i_glide_ligand_efficiency>  (112) 
-0.222569

>  <r_i_glide_ligand_efficiency_sa>  (112) 
-0.572289

>  <r_i_glide_ligand_efficiency_ln>  (112) 
-0.987078

>  <r_i_glide_gscore>  (112) 
-3.78368

>  <r_i_glide_lipo>  (112) 
-0.40405

>  <r_i_glide_hbond>  (112) 
0

>  <r_i_glide_metal>  (112) 
-0

>  <r_i_glide_rewards>  (112) 
-1.88732

>  <r_i_glide_evdw>  (112) 
-21.2952

>  <r_i_glide_ecoul>  (112) 
-1.87575

>  <r_i_glide_erotb>  (112) 
0

>  <r_i_glide_esite>  (112) 
-0.14619

>  <r_i_glide_emodel>  (112) 
-28.5655

>  <r_i_glide_energy>  (112) 
-23.171

>  <r_i_glide_einternal>  (112) 
0

>  <r_i_glide_intrahb_reward>  (112) 
-0

>  <i_i_glide_confnum>  (112) 
1

>  <i_i_glide_posenum>  (112) 
1

>  <r_i_glide_eff_state_penalty>  (112) 
0

>  <ligand_id>  (112) 
35

>  <original_smiles>  (112) 
c1ccc2nc3c(cnc4nnnn43)nc2c1

>  <smiles>  (112) 
[H]c1c([H])c([H])c2nc3c(nc2c1[H])c([H])nc1nnnn13

$$$$
35:0:1
     RDKit          3D

 22 25  0  0  1  0  0  0  0  0999 V2000
    3.5512   -1.2400   -3.8750 C   0  0  0  0  0  0  0  0  0  0  0  0
    2.7225   -2.3727   -3.8164 C   0  0  0  0  0  0  0  0  0  0  0  0
    2.5519   -3.0575   -2.6048 C   0  0  0  0  0  0  0  0  0  0  0  0
    3.2093   -2.6524   -1.4277 C   0  0  0  0  0  0  0  0  0  0  0  0
    3.0197   -3.3385   -0.2736 N   0  0  0  0  0  0  0  0  0  0  0  0
    3.6834   -2.8795    0.8389 C   0  0  0  0  0  0  0  0  0  0  0  0
    4.5266   -1.7425    0.7709 C   0  0  0  0  0  0  0  0  0  0  0  0
    5.1667   -1.3620    1.9769 C   0  0  0  0  0  0  0  0  0  0  0  0
    5.0320   -1.9962    3.1728 N   0  0  0  0  0  0  0  0  0  0  0  0
    4.2034   -3.0769    3.1311 C   0  0  0  0  0  0  0  0  0  0  0  0
    3.8832   -3.8923    4.1323 N   0  0  0  0  0  0  0  0  0  0  0  0
    3.0001   -4.8259    3.5554 N   0  0  0  0  0  0  0  0  0  0  0  0
    2.7943   -4.6026    2.2853 N   0  0  0  0  0  0  0  0  0  0  0  0
    3.5495   -3.5245    2.0601 N   0  0  0  0  0  0  0  0  0  0  0  0
    4.7075   -1.0729   -0.3859 N   0  0  0  0  0  0  0  0  0  0  0  0
    4.0552   -1.5064   -1.4856 C   0  0  0  0  0  0  0  0  0  0  0  0
    4.2111   -0.8155   -2.7078 C   0  0  0  0  0  0  0  0  0  0  0  0
    3.6681   -0.6973   -4.8057 H   0  0  0  0  0  0  0  0  0  0  0  0
    2.1948   -2.7145   -4.6925 H   0  0  0  0  0  0  0  0  0  0  0  0
    1.8901   -3.9101   -2.5783 H   0  0  0  0  0  0  0  0  0  0  0  0
    5.8265   -0.5052    1.9808 H   0  0  0  0  0  0  0  0  0  0  0  0
    4.8360    0.0623   -2.7464 H   0  0  0  0  0  0  0  0  0  0  0  0
  1 17  2  0
  1  2  1  0
  1 18  1  0
  2  3  2  0
  2 19  1  0
  3  4  1  0
  3 20  1  0
  4 16  2  0
  4  5  1  0
  5  6  2  0
  6 14  1  0
  6  7  1  0
  7  8  1  0
  7 15  2  0
  8  9  2  0
  8 21  1  0
  9 10  1  0
 10 14  1  0
 10 11  2  0
 11 12  1  0
 12 13  2  0
 13 14  1  0
 15 16  1  0
 16 17  1  0
 17 22  1  0
M  END
>  <i_m_ct_stereo_status>  (113) 
1

>  <s_m_source_file>  (113) 
/var/tmp/pbs.5076255.sched01/tmpguyree9i/45_f3p7e6s.sdf

>  <i_m_source_file_index>  (113) 
7

>  <i_lp_mmshare_version>  (113) 
48012

>  <i_f3d_flags>  (113) 
0

>  <s_epik_input>  (113) 
W2NIXTFbY0hdW2NIXVtjSF1jKGMxMiluYzNjKG4yKW40YyhuW2NIXTMpbm5uNA==

>  <s_epik_cmdline>  (113) 
J2VwaWtfcHl0aG9uJywgJy1waHQnLCAnMi4wJywgJy1waCcsICc3LjAnLCAnLXRuJywgJzgnLCAnLW1hJywgJzIwMCcsICctaW1hZScsICc8aW5maWxlLm1hZT4nLCAnLW9tYWUnLCAnPG91dGZpbGUubWFlPic=

>  <r_lp_tautomer_probability>  (113) 
1

>  <r_epik_Ionization_Penalty>  (113) 
1.42083e-14

>  <r_epik_Ionization_Penalty_Charging>  (113) 
0

>  <r_epik_Ionization_Penalty_Neutral>  (113) 
1.42083e-14

>  <r_epik_State_Penalty>  (113) 
-0

>  <r_epik_Charging_Adjusted_Penalty>  (113) 
0

>  <i_epik_Tot_Q>  (113) 
0

>  <i_epik_Tot_abs_Q>  (113) 
0

>  <s_lp_Force_Field>  (113) 
OPLS3e

>  <r_lp_Energy>  (113) 
34.1752

>  <b_lp_Chiralities_Consistent>  (113) 
1

>  <s_lp_Variant>  (113) 
35:0-1

>  <s_i_glide_gridfile>  (113) 
pfpi4k_grid

>  <i_i_glide_lignum>  (113) 
7

>  <i_i_glide_rotatable_bonds>  (113) 
0

>  <r_i_docking_score>  (113) 
-3.6596

>  <r_i_glide_ligand_efficiency>  (113) 
-0.215271

>  <r_i_glide_ligand_efficiency_sa>  (113) 
-0.553522

>  <r_i_glide_ligand_efficiency_ln>  (113) 
-0.954709

>  <r_i_glide_gscore>  (113) 
-3.6596

>  <r_i_glide_lipo>  (113) 
-0.51056

>  <r_i_glide_hbond>  (113) 
0

>  <r_i_glide_metal>  (113) 
-0

>  <r_i_glide_rewards>  (113) 
-1.89752

>  <r_i_glide_evdw>  (113) 
-21.2875

>  <r_i_glide_ecoul>  (113) 
-1.16107

>  <r_i_glide_erotb>  (113) 
0

>  <r_i_glide_esite>  (113) 
-0.012984

>  <r_i_glide_emodel>  (113) 
-27.6644

>  <r_i_glide_energy>  (113) 
-22.4486

>  <r_i_glide_einternal>  (113) 
0

>  <r_i_glide_intrahb_reward>  (113) 
-0

>  <i_i_glide_confnum>  (113) 
2

>  <i_i_glide_posenum>  (113) 
20

>  <r_i_glide_eff_state_penalty>  (113) 
0

>  <ligand_id>  (113) 
35

>  <original_smiles>  (113) 
c1ccc2nc3c(cnc4nnnn43)nc2c1

>  <smiles>  (113) 
[H]c1c([H])c([H])c2nc3c(nc2c1[H])c([H])nc1nnnn13

$$$$
35:0:2
     RDKit          3D

 22 25  0  0  1  0  0  0  0  0999 V2000
    4.2973   -1.3910   -2.9777 C   0  0  0  0  0  0  0  0  0  0  0  0
    3.0141   -1.8104   -3.3602 C   0  0  0  0  0  0  0  0  0  0  0  0
    2.3458   -2.7762   -2.5934 C   0  0  0  0  0  0  0  0  0  0  0  0
    2.9183   -3.3331   -1.4305 C   0  0  0  0  0  0  0  0  0  0  0  0
    2.2249   -4.2420   -0.7005 N   0  0  0  0  0  0  0  0  0  0  0  0
    2.8669   -4.7836    0.3887 C   0  0  0  0  0  0  0  0  0  0  0  0
    4.1718   -4.3713    0.7529 C   0  0  0  0  0  0  0  0  0  0  0  0
    4.7276   -4.9783    1.9069 C   0  0  0  0  0  0  0  0  0  0  0  0
    4.1096   -5.9137    2.6778 N   0  0  0  0  0  0  0  0  0  0  0  0
    2.8670   -6.2525    2.2398 C   0  0  0  0  0  0  0  0  0  0  0  0
    2.0192   -7.1232    2.7824 N   0  0  0  0  0  0  0  0  0  0  0  0
    0.8861   -7.0883    1.9467 N   0  0  0  0  0  0  0  0  0  0  0  0
    1.0241   -6.2576    0.9536 N   0  0  0  0  0  0  0  0  0  0  0  0
    2.2462   -5.7528    1.1686 N   0  0  0  0  0  0  0  0  0  0  0  0
    4.8335   -3.4454    0.0308 N   0  0  0  0  0  0  0  0  0  0  0  0
    4.2293   -2.9208   -1.0568 C   0  0  0  0  0  0  0  0  0  0  0  0
    4.8982   -1.9520   -1.8371 C   0  0  0  0  0  0  0  0  0  0  0  0
    4.8092   -0.6402   -3.5609 H   0  0  0  0  0  0  0  0  0  0  0  0
    2.5385   -1.3730   -4.2258 H   0  0  0  0  0  0  0  0  0  0  0  0
    1.3509   -3.0672   -2.8823 H   0  0  0  0  0  0  0  0  0  0  0  0
    5.7170   -4.6894    2.2327 H   0  0  0  0  0  0  0  0  0  0  0  0
    5.8892   -1.6262   -1.5568 H   0  0  0  0  0  0  0  0  0  0  0  0
  1 17  2  0
  1  2  1  0
  1 18  1  0
  2  3  2  0
  2 19  1  0
  3  4  1  0
  3 20  1  0
  4 16  2  0
  4  5  1  0
  5  6  2  0
  6 14  1  0
  6  7  1  0
  7  8  1  0
  7 15  2  0
  8  9  2  0
  8 21  1  0
  9 10  1  0
 10 14  1  0
 10 11  2  0
 11 12  1  0
 12 13  2  0
 13 14  1  0
 15 16  1  0
 16 17  1  0
 17 22  1  0
M  END
>  <i_m_ct_stereo_status>  (114) 
1

>  <s_m_source_file>  (114) 
/var/tmp/pbs.5076255.sched01/tmpguyree9i/45_f3p7e6s.sdf

>  <i_m_source_file_index>  (114) 
7

>  <i_lp_mmshare_version>  (114) 
48012

>  <i_f3d_flags>  (114) 
0

>  <s_epik_input>  (114) 
W2NIXTFbY0hdW2NIXVtjSF1jKGMxMiluYzNjKG4yKW40YyhuW2NIXTMpbm5uNA==

>  <s_epik_cmdline>  (114) 
J2VwaWtfcHl0aG9uJywgJy1waHQnLCAnMi4wJywgJy1waCcsICc3LjAnLCAnLXRuJywgJzgnLCAnLW1hJywgJzIwMCcsICctaW1hZScsICc8aW5maWxlLm1hZT4nLCAnLW9tYWUnLCAnPG91dGZpbGUubWFlPic=

>  <r_lp_tautomer_probability>  (114) 
1

>  <r_epik_Ionization_Penalty>  (114) 
1.42083e-14

>  <r_epik_Ionization_Penalty_Charging>  (114) 
0

>  <r_epik_Ionization_Penalty_Neutral>  (114) 
1.42083e-14

>  <r_epik_State_Penalty>  (114) 
-0

>  <r_epik_Charging_Adjusted_Penalty>  (114) 
0

>  <i_epik_Tot_Q>  (114) 
0

>  <i_epik_Tot_abs_Q>  (114) 
0

>  <s_lp_Force_Field>  (114) 
OPLS3e

>  <r_lp_Energy>  (114) 
34.1752

>  <b_lp_Chiralities_Consistent>  (114) 
1

>  <s_lp_Variant>  (114) 
35:0-1

>  <s_i_glide_gridfile>  (114) 
pfpi4k_grid

>  <i_i_glide_lignum>  (114) 
7

>  <i_i_glide_rotatable_bonds>  (114) 
0

>  <r_i_docking_score>  (114) 
-3.65779

>  <r_i_glide_ligand_efficiency>  (114) 
-0.215164

>  <r_i_glide_ligand_efficiency_sa>  (114) 
-0.553248

>  <r_i_glide_ligand_efficiency_ln>  (114) 
-0.954237

>  <r_i_glide_gscore>  (114) 
-3.65779

>  <r_i_glide_lipo>  (114) 
-0.278236

>  <r_i_glide_hbond>  (114) 
0

>  <r_i_glide_metal>  (114) 
-0

>  <r_i_glide_rewards>  (114) 
-1.88732

>  <r_i_glide_evdw>  (114) 
-20.7385

>  <r_i_glide_ecoul>  (114) 
-1.50445

>  <r_i_glide_erotb>  (114) 
0

>  <r_i_glide_esite>  (114) 
-0.229651

>  <r_i_glide_emodel>  (114) 
-27.4551

>  <r_i_glide_energy>  (114) 
-22.2429

>  <r_i_glide_einternal>  (114) 
0

>  <r_i_glide_intrahb_reward>  (114) 
-0

>  <i_i_glide_confnum>  (114) 
1

>  <i_i_glide_posenum>  (114) 
26

>  <r_i_glide_eff_state_penalty>  (114) 
0

>  <ligand_id>  (114) 
35

>  <original_smiles>  (114) 
c1ccc2nc3c(cnc4nnnn43)nc2c1

>  <smiles>  (114) 
[H]c1c([H])c([H])c2nc3c(nc2c1[H])c([H])nc1nnnn13

$$$$
36:0:0
     RDKit          3D

 65 69  0  0  1  0  0  0  0  0999 V2000
    6.2145   -5.0096    5.6361 C   0  0  0  0  0  0  0  0  0  0  0  0
    6.0313   -5.6686    4.3904 O   0  0  0  0  0  0  0  0  0  0  0  0
    4.7677   -5.4294    3.7793 C   0  0  2  0  0  0  0  0  0  0  0  0
    3.6744   -6.3119    4.3814 C   0  0  0  0  0  0  0  0  0  0  0  0
    2.2518   -6.0410    3.8263 C   0  0  2  0  0  0  0  0  0  0  0  0
    1.6953   -4.8930    4.6757 C   0  0  0  0  0  0  0  0  0  0  0  0
    0.5637   -4.9427    5.3937 C   0  0  0  0  0  0  0  0  0  0  0  0
   -0.3408   -6.1524    5.4825 C   0  0  0  0  0  0  0  0  0  0  0  0
   -0.1010   -7.0741    4.2901 C   0  0  0  0  0  0  0  0  0  0  0  0
   -1.0637   -7.5698    3.7056 O   0  0  0  0  0  0  0  0  0  0  0  0
    1.3826   -7.3704    3.8929 C   0  0  2  0  0  0  0  0  0  0  0  0
    1.7802   -8.4553    4.9353 C   0  0  0  0  0  0  0  0  0  0  0  0
    1.4439   -7.8345    2.4011 C   0  0  1  0  0  0  0  0  0  0  0  0
    1.1620   -6.5141    1.6706 C   0  0  0  0  0  0  0  0  0  0  0  0
    2.2279   -5.6031    2.2962 C   0  0  2  0  0  0  0  0  0  0  0  0
    3.5461   -5.8221    1.5006 C   0  0  1  0  0  0  0  0  0  0  0  0
    3.5153   -4.9808    0.1841 C   0  0  0  0  0  0  0  0  0  0  0  0
    3.7445   -3.4469    0.3096 C   0  0  0  0  0  0  0  0  0  0  0  0
    3.5770   -2.7005   -0.9695 N   0  0  0  0  0  0  0  0  0  0  0  0
    4.4510   -3.1838   -2.0749 C   0  0  0  0  0  0  0  0  0  0  0  0
    3.7242   -1.2404   -0.7794 C   0  0  0  0  0  0  0  0  0  0  0  0
    4.8796   -5.7239    2.2887 C   0  0  2  0  0  0  0  0  0  0  0  0
    5.2753   -7.1173    1.7583 C   0  0  1  0  0  0  0  0  0  0  0  0
    6.0951   -8.1175    2.5750 C   0  0  0  0  0  0  0  0  0  0  0  0
    3.8252   -7.3399    1.2866 C   0  0  1  0  0  0  0  0  0  0  0  0
    2.7843   -8.4025    1.7985 C   0  0  1  0  0  0  0  0  0  0  0  0
    3.3455   -9.7223    2.3574 C   0  0  0  0  0  0  0  0  0  0  0  0
    7.1512   -5.3425    6.0862 H   0  0  0  0  0  0  0  0  0  0  0  0
    5.4168   -5.2253    6.3480 H   0  0  0  0  0  0  0  0  0  0  0  0
    6.2705   -3.9283    5.5001 H   0  0  0  0  0  0  0  0  0  0  0  0
    4.5105   -4.3784    3.9035 H   0  0  0  0  0  0  0  0  0  0  0  0
    3.9569   -7.3268    4.1525 H   0  0  0  0  0  0  0  0  0  0  0  0
    3.6666   -6.2634    5.4692 H   0  0  0  0  0  0  0  0  0  0  0  0
    2.2884   -3.9903    4.6992 H   0  0  0  0  0  0  0  0  0  0  0  0
    0.2768   -4.0905    5.9951 H   0  0  0  0  0  0  0  0  0  0  0  0
   -0.1955   -6.6741    6.4277 H   0  0  0  0  0  0  0  0  0  0  0  0
   -1.3800   -5.8228    5.4574 H   0  0  0  0  0  0  0  0  0  0  0  0
    2.7671   -8.8822    4.8255 H   0  0  0  0  0  0  0  0  0  0  0  0
    1.0955   -9.3033    4.8925 H   0  0  0  0  0  0  0  0  0  0  0  0
    1.7385   -8.0673    5.9534 H   0  0  0  0  0  0  0  0  0  0  0  0
    0.6604   -8.5623    2.1892 H   0  0  0  0  0  0  0  0  0  0  0  0
    1.2347   -6.6164    0.5883 H   0  0  0  0  0  0  0  0  0  0  0  0
    0.1649   -6.1307    1.8672 H   0  0  0  0  0  0  0  0  0  0  0  0
    1.9145   -4.5619    2.2079 H   0  0  0  0  0  0  0  0  0  0  0  0
    4.2899   -5.3726   -0.4767 H   0  0  0  0  0  0  0  0  0  0  0  0
    2.5811   -5.1491   -0.3491 H   0  0  0  0  0  0  0  0  0  0  0  0
    3.0389   -3.0353    1.0354 H   0  0  0  0  0  0  0  0  0  0  0  0
    4.7427   -3.2486    0.7062 H   0  0  0  0  0  0  0  0  0  0  0  0
    5.5052   -3.1282   -1.7971 H   0  0  0  0  0  0  0  0  0  0  0  0
    4.3043   -2.5754   -2.9692 H   0  0  0  0  0  0  0  0  0  0  0  0
    4.2201   -4.2134   -2.3580 H   0  0  0  0  0  0  0  0  0  0  0  0
    4.7352   -0.9807   -0.4592 H   0  0  0  0  0  0  0  0  0  0  0  0
    3.0195   -0.8688   -0.0302 H   0  0  0  0  0  0  0  0  0  0  0  0
    3.5221   -0.7098   -1.7106 H   0  0  0  0  0  0  0  0  0  0  0  0
    5.5602   -5.0093    1.8237 H   0  0  0  0  0  0  0  0  0  0  0  0
    5.8436   -6.9228    0.8457 H   0  0  0  0  0  0  0  0  0  0  0  0
    5.6834   -8.3077    3.5598 H   0  0  0  0  0  0  0  0  0  0  0  0
    7.1053   -7.7479    2.7432 H   0  0  0  0  0  0  0  0  0  0  0  0
    6.1813   -9.0762    2.0671 H   0  0  0  0  0  0  0  0  0  0  0  0
    3.9295   -7.4955    0.2116 H   0  0  0  0  0  0  0  0  0  0  0  0
    2.3790   -8.8044    0.8763 H   0  0  0  0  0  0  0  0  0  0  0  0
    3.9344   -9.6068    3.2613 H   0  0  0  0  0  0  0  0  0  0  0  0
    3.9957  -10.2057    1.6267 H   0  0  0  0  0  0  0  0  0  0  0  0
    2.5370  -10.4225    2.5695 H   0  0  0  0  0  0  0  0  0  0  0  0
    2.6208   -2.8395   -1.2726 H   0  0  0  0  0  0  0  0  0  0  0  0
  1  2  1  0
  1 28  1  0
  1 29  1  0
  1 30  1  0
  2  3  1  0
  3 22  1  0
  3  4  1  0
  3 31  1  6
  5  4  1  1
  4 32  1  0
  4 33  1  0
  5 11  1  0
  5 15  1  0
  5  6  1  0
  6  7  2  0
  6 34  1  0
  7  8  1  0
  7 35  1  0
  8  9  1  0
  8 36  1  0
  8 37  1  0
  9 10  2  0
  9 11  1  0
 11 12  1  1
 11 13  1  0
 12 38  1  0
 12 39  1  0
 12 40  1  0
 13 26  1  0
 13 14  1  0
 13 41  1  1
 14 15  1  0
 14 42  1  0
 14 43  1  0
 15 16  1  0
 15 44  1  1
 16 25  1  0
 16 17  1  6
 16 22  1  0
 17 18  1  0
 17 45  1  0
 17 46  1  0
 18 19  1  0
 18 47  1  0
 18 48  1  0
 19 20  1  0
 19 21  1  0
 19 65  1  0
 20 49  1  0
 20 50  1  0
 20 51  1  0
 21 52  1  0
 21 53  1  0
 21 54  1  0
 22 23  1  0
 22 55  1  6
 23 24  1  0
 23 25  1  0
 23 56  1  6
 24 57  1  0
 24 58  1  0
 24 59  1  0
 25 26  1  0
 25 60  1  6
 26 27  1  0
 26 61  1  6
 27 62  1  0
 27 63  1  0
 27 64  1  0
M  CHG  1  19   1
M  END
>  <i_m_ct_stereo_status>  (115) 
1

>  <s_m_source_file>  (115) 
/var/tmp/pbs.5076255.sched01/tmpguyree9i/45_f3p7e6s.sdf

>  <i_m_source_file_index>  (115) 
8

>  <i_lp_mmshare_version>  (115) 
48012

>  <i_f3d_flags>  (115) 
2

>  <s_epik_input>  (115) 
W0NIM11bQ0BASF0xW0NIXTJbQ0BIXShbQ0gzXSlbQ0BIXShbQ0BASF0oW0NIMl0zKU9bQ0gzXSlbQ0BdMihbQ0gyXVtDSDJdTihbQ0gzXSlbQ0gzXSlbQ0BASF00W0NIMl1bQ0BASF0xW0NAXShbQ0BdMzQ1KShbQ0gzXSlDKD1PKVtDSDJdW0NIXT1bQ0hdNQ==

>  <s_epik_cmdline>  (115) 
J2VwaWtfcHl0aG9uJywgJy1waHQnLCAnMi4wJywgJy1waCcsICc3LjAnLCAnLXRuJywgJzgnLCAnLW1hJywgJzIwMCcsICctaW1hZScsICc8aW5maWxlLm1hZT4nLCAnLW9tYWUnLCAnPG91dGZpbGUubWFlPic=

>  <r_epik_Ionization_Penalty>  (115) 
0.00146276

>  <r_epik_Ionization_Penalty_Charging>  (115) 
0.00146276

>  <r_epik_Ionization_Penalty_Neutral>  (115) 
2.38234e-11

>  <r_epik_State_Penalty>  (115) 
0.000978304

>  <r_epik_Charging_Adjusted_Penalty>  (115) 
0.00244106

>  <i_epik_Tot_Q>  (115) 
1

>  <i_epik_Tot_abs_Q>  (115) 
1

>  <s_lp_Force_Field>  (115) 
OPLS3e

>  <r_lp_Energy>  (115) 
99.1337

>  <b_lp_Chiralities_Consistent>  (115) 
0

>  <s_lp_Variant>  (115) 
36:0-1

>  <s_i_glide_gridfile>  (115) 
pfpi4k_grid

>  <i_i_glide_lignum>  (115) 
8

>  <i_i_glide_rotatable_bonds>  (115) 
4

>  <r_i_docking_score>  (115) 
-2.44374

>  <r_i_glide_ligand_efficiency>  (115) 
-0.090509

>  <r_i_glide_ligand_efficiency_sa>  (115) 
-0.271527

>  <r_i_glide_ligand_efficiency_ln>  (115) 
-0.568863

>  <r_i_glide_gscore>  (115) 
-2.44374

>  <r_i_glide_lipo>  (115) 
-0.213526

>  <r_i_glide_hbond>  (115) 
0

>  <r_i_glide_metal>  (115) 
-0

>  <r_i_glide_rewards>  (115) 
-0.868882

>  <r_i_glide_evdw>  (115) 
-20.7739

>  <r_i_glide_ecoul>  (115) 
-3.59591

>  <r_i_glide_erotb>  (115) 
0.278314

>  <r_i_glide_esite>  (115) 
-0.0615674

>  <r_i_glide_emodel>  (115) 
-29.0188

>  <r_i_glide_energy>  (115) 
-24.3698

>  <r_i_glide_einternal>  (115) 
0.695446

>  <r_i_glide_intrahb_reward>  (115) 
-0

>  <i_i_glide_confnum>  (115) 
6

>  <i_i_glide_posenum>  (115) 
2

>  <r_i_glide_eff_state_penalty>  (115) 
0

>  <ligand_id>  (115) 
36

>  <original_smiles>  (115) 
COC1CC23C=CCC(=O)C2(C)C2CC3C3(CCN(C)C)C1C(C)C3C2C

>  <smiles>  (115) 
[H]C1=C([H])C23C([H])([H])C([H])(OC([H])([H])[H])C4([H])C([H])(C([H])([H])[H])C5([H])C([H])(C([H])([H])[H])C([H])(C([H])([H])C2([H])C45C([H])([H])C([H])([H])[N+]([H])(C([H])([H])[H])C([H])([H])[H])C3(C([H])([H])[H])C(=O)C1([H])[H]

$$$$
36:0:1
     RDKit          3D

 65 69  0  0  1  0  0  0  0  0999 V2000
    6.0734   -4.7338    4.8511 C   0  0  0  0  0  0  0  0  0  0  0  0
    5.1074   -5.7562    5.0443 O   0  0  0  0  0  0  0  0  0  0  0  0
    3.9799   -5.6924    4.1756 C   0  0  2  0  0  0  0  0  0  0  0  0
    3.0300   -6.8384    4.5138 C   0  0  0  0  0  0  0  0  0  0  0  0
    1.6835   -6.8218    3.7387 C   0  0  2  0  0  0  0  0  0  0  0  0
    0.7465   -5.9330    4.5593 C   0  0  0  0  0  0  0  0  0  0  0  0
   -0.4425   -6.3157    5.0481 C   0  0  0  0  0  0  0  0  0  0  0  0
   -1.0497   -7.6884    4.8518 C   0  0  0  0  0  0  0  0  0  0  0  0
   -0.4083   -8.3904    3.6644 C   0  0  0  0  0  0  0  0  0  0  0  0
   -1.1119   -9.0162    2.8740 O   0  0  0  0  0  0  0  0  0  0  0  0
    1.1499   -8.3079    3.5393 C   0  0  2  0  0  0  0  0  0  0  0  0
    1.6143   -9.3989    4.5466 C   0  0  0  0  0  0  0  0  0  0  0  0
    1.5504   -8.5697    2.0537 C   0  0  1  0  0  0  0  0  0  0  0  0
    1.0730   -7.2574    1.4029 C   0  0  0  0  0  0  0  0  0  0  0  0
    1.7959   -6.2207    2.2704 C   0  0  2  0  0  0  0  0  0  0  0  0
    3.2352   -6.0693    1.6967 C   0  0  1  0  0  0  0  0  0  0  0  0
    3.2175   -5.1014    0.4700 C   0  0  0  0  0  0  0  0  0  0  0  0
    3.2696   -3.5695    0.7544 C   0  0  0  0  0  0  0  0  0  0  0  0
    3.2307   -2.7141   -0.4678 N   0  0  0  0  0  0  0  0  0  0  0  0
    4.1748   -3.1273   -1.5426 C   0  0  0  0  0  0  0  0  0  0  0  0
    3.4114   -1.2825   -0.1398 C   0  0  0  0  0  0  0  0  0  0  0  0
    4.3727   -5.7876    2.7072 C   0  0  2  0  0  0  0  0  0  0  0  0
    5.1589   -6.9880    2.1534 C   0  0  1  0  0  0  0  0  0  0  0  0
    6.0475   -7.8688    3.0334 C   0  0  0  0  0  0  0  0  0  0  0  0
    3.8907   -7.4565    1.4141 C   0  0  1  0  0  0  0  0  0  0  0  0
    3.0598   -8.7657    1.6405 C   0  0  1  0  0  0  0  0  0  0  0  0
    3.8199   -9.9811    2.2006 C   0  0  0  0  0  0  0  0  0  0  0  0
    6.8458   -4.8069    5.6149 H   0  0  0  0  0  0  0  0  0  0  0  0
    5.6346   -3.7362    4.9023 H   0  0  0  0  0  0  0  0  0  0  0  0
    6.5731   -4.8497    3.8895 H   0  0  0  0  0  0  0  0  0  0  0  0
    3.4674   -4.7478    4.3548 H   0  0  0  0  0  0  0  0  0  0  0  0
    3.5633   -7.7432    4.2654 H   0  0  0  0  0  0  0  0  0  0  0  0
    2.8579   -6.8947    5.5891 H   0  0  0  0  0  0  0  0  0  0  0  0
    1.1027   -4.9327    4.7651 H   0  0  0  0  0  0  0  0  0  0  0  0
   -1.0082   -5.6278    5.6618 H   0  0  0  0  0  0  0  0  0  0  0  0
   -0.9360   -8.3036    5.7390 H   0  0  0  0  0  0  0  0  0  0  0  0
   -2.1192   -7.5726    4.6638 H   0  0  0  0  0  0  0  0  0  0  0  0
    2.6781   -9.5897    4.5820 H   0  0  0  0  0  0  0  0  0  0  0  0
    1.1586  -10.3617    4.3112 H   0  0  0  0  0  0  0  0  0  0  0  0
    1.3221   -9.1553    5.5682 H   0  0  0  0  0  0  0  0  0  0  0  0
    1.0106   -9.4356    1.6784 H   0  0  0  0  0  0  0  0  0  0  0  0
    1.3269   -7.1784    0.3540 H   0  0  0  0  0  0  0  0  0  0  0  0
   -0.0059   -7.1256    1.4415 H   0  0  0  0  0  0  0  0  0  0  0  0
    1.2810   -5.2598    2.2054 H   0  0  0  0  0  0  0  0  0  0  0  0
    4.0874   -5.3468   -0.1386 H   0  0  0  0  0  0  0  0  0  0  0  0
    2.3602   -5.3070   -0.1721 H   0  0  0  0  0  0  0  0  0  0  0  0
    2.4373   -3.2927    1.4080 H   0  0  0  0  0  0  0  0  0  0  0  0
    4.1809   -3.3099    1.2930 H   0  0  0  0  0  0  0  0  0  0  0  0
    5.2048   -3.1298   -1.1800 H   0  0  0  0  0  0  0  0  0  0  0  0
    4.1106   -2.4382   -2.3873 H   0  0  0  0  0  0  0  0  0  0  0  0
    3.9383   -4.1175   -1.9352 H   0  0  0  0  0  0  0  0  0  0  0  0
    4.3998   -1.0798    0.2785 H   0  0  0  0  0  0  0  0  0  0  0  0
    2.6560   -0.9511    0.5799 H   0  0  0  0  0  0  0  0  0  0  0  0
    3.2925   -0.6758   -1.0365 H   0  0  0  0  0  0  0  0  0  0  0  0
    4.9316   -4.9034    2.4136 H   0  0  0  0  0  0  0  0  0  0  0  0
    5.8039   -6.5683    1.3772 H   0  0  0  0  0  0  0  0  0  0  0  0
    5.5391   -8.2519    3.9113 H   0  0  0  0  0  0  0  0  0  0  0  0
    6.9024   -7.3103    3.4112 H   0  0  0  0  0  0  0  0  0  0  0  0
    6.4394   -8.7223    2.4831 H   0  0  0  0  0  0  0  0  0  0  0  0
    4.1979   -7.4712    0.3663 H   0  0  0  0  0  0  0  0  0  0  0  0
    2.9189   -9.1281    0.6211 H   0  0  0  0  0  0  0  0  0  0  0  0
    4.2152   -9.8479    3.2022 H   0  0  0  0  0  0  0  0  0  0  0  0
    4.6704  -10.2277    1.5624 H   0  0  0  0  0  0  0  0  0  0  0  0
    3.1717  -10.8584    2.2131 H   0  0  0  0  0  0  0  0  0  0  0  0
    2.2987   -2.7846   -0.8571 H   0  0  0  0  0  0  0  0  0  0  0  0
  1  2  1  0
  1 28  1  0
  1 29  1  0
  1 30  1  0
  2  3  1  0
  3 22  1  0
  3  4  1  0
  3 31  1  6
  5  4  1  1
  4 32  1  0
  4 33  1  0
  5 11  1  0
  5 15  1  0
  5  6  1  0
  6  7  2  0
  6 34  1  0
  7  8  1  0
  7 35  1  0
  8  9  1  0
  8 36  1  0
  8 37  1  0
  9 10  2  0
  9 11  1  0
 11 12  1  1
 11 13  1  0
 12 38  1  0
 12 39  1  0
 12 40  1  0
 13 26  1  0
 13 14  1  0
 13 41  1  6
 14 15  1  0
 14 42  1  0
 14 43  1  0
 15 16  1  0
 15 44  1  1
 16 25  1  0
 16 17  1  6
 16 22  1  0
 17 18  1  0
 17 45  1  0
 17 46  1  0
 18 19  1  0
 18 47  1  0
 18 48  1  0
 19 20  1  0
 19 21  1  0
 19 65  1  0
 20 49  1  0
 20 50  1  0
 20 51  1  0
 21 52  1  0
 21 53  1  0
 21 54  1  0
 22 23  1  0
 22 55  1  6
 23 24  1  0
 23 25  1  0
 23 56  1  6
 24 57  1  0
 24 58  1  0
 24 59  1  0
 25 26  1  0
 25 60  1  6
 26 27  1  0
 26 61  1  6
 27 62  1  0
 27 63  1  0
 27 64  1  0
M  CHG  1  19   1
M  END
>  <i_m_ct_stereo_status>  (116) 
1

>  <s_m_source_file>  (116) 
/var/tmp/pbs.5076255.sched01/tmpguyree9i/45_f3p7e6s.sdf

>  <i_m_source_file_index>  (116) 
8

>  <i_lp_mmshare_version>  (116) 
48012

>  <i_f3d_flags>  (116) 
2

>  <s_epik_input>  (116) 
W0NIM11bQ0BASF0xW0NIXTJbQ0BIXShbQ0gzXSlbQ0BIXShbQ0BASF0oW0NIMl0zKU9bQ0gzXSlbQ0BdMihbQ0gyXVtDSDJdTihbQ0gzXSlbQ0gzXSlbQ0BASF00W0NIMl1bQ0BASF0xW0NAXShbQ0BdMzQ1KShbQ0gzXSlDKD1PKVtDSDJdW0NIXT1bQ0hdNQ==

>  <s_epik_cmdline>  (116) 
J2VwaWtfcHl0aG9uJywgJy1waHQnLCAnMi4wJywgJy1waCcsICc3LjAnLCAnLXRuJywgJzgnLCAnLW1hJywgJzIwMCcsICctaW1hZScsICc8aW5maWxlLm1hZT4nLCAnLW9tYWUnLCAnPG91dGZpbGUubWFlPic=

>  <r_epik_Ionization_Penalty>  (116) 
0.00146276

>  <r_epik_Ionization_Penalty_Charging>  (116) 
0.00146276

>  <r_epik_Ionization_Penalty_Neutral>  (116) 
2.38234e-11

>  <r_epik_State_Penalty>  (116) 
0.000978304

>  <r_epik_Charging_Adjusted_Penalty>  (116) 
0.00244106

>  <i_epik_Tot_Q>  (116) 
1

>  <i_epik_Tot_abs_Q>  (116) 
1

>  <s_lp_Force_Field>  (116) 
OPLS3e

>  <r_lp_Energy>  (116) 
99.1337

>  <b_lp_Chiralities_Consistent>  (116) 
0

>  <s_lp_Variant>  (116) 
36:0-1

>  <s_i_glide_gridfile>  (116) 
pfpi4k_grid

>  <i_i_glide_lignum>  (116) 
8

>  <i_i_glide_rotatable_bonds>  (116) 
4

>  <r_i_docking_score>  (116) 
-2.35897

>  <r_i_glide_ligand_efficiency>  (116) 
-0.0873692

>  <r_i_glide_ligand_efficiency_sa>  (116) 
-0.262108

>  <r_i_glide_ligand_efficiency_ln>  (116) 
-0.549129

>  <r_i_glide_gscore>  (116) 
-2.35897

>  <r_i_glide_lipo>  (116) 
-0.127707

>  <r_i_glide_hbond>  (116) 
-0.0150726

>  <r_i_glide_metal>  (116) 
-0

>  <r_i_glide_rewards>  (116) 
-0.868882

>  <r_i_glide_evdw>  (116) 
-20.4818

>  <r_i_glide_ecoul>  (116) 
-3.42441

>  <r_i_glide_erotb>  (116) 
0.278314

>  <r_i_glide_esite>  (116) 
-0.0878693

>  <r_i_glide_emodel>  (116) 
-27.6091

>  <r_i_glide_energy>  (116) 
-23.9062

>  <r_i_glide_einternal>  (116) 
1.71996

>  <r_i_glide_intrahb_reward>  (116) 
-0

>  <i_i_glide_confnum>  (116) 
1

>  <i_i_glide_posenum>  (116) 
7

>  <r_i_glide_eff_state_penalty>  (116) 
0

>  <ligand_id>  (116) 
36

>  <original_smiles>  (116) 
COC1CC23C=CCC(=O)C2(C)C2CC3C3(CCN(C)C)C1C(C)C3C2C

>  <smiles>  (116) 
[H]C1=C([H])C23C([H])([H])C([H])(OC([H])([H])[H])C4([H])C([H])(C([H])([H])[H])C5([H])C([H])(C([H])([H])[H])C([H])(C([H])([H])C2([H])C45C([H])([H])C([H])([H])[N+]([H])(C([H])([H])[H])C([H])([H])[H])C3(C([H])([H])[H])C(=O)C1([H])[H]

$$$$
36:0:2
     RDKit          3D

 65 69  0  0  1  0  0  0  0  0999 V2000
    5.2687   -4.8842    6.0711 C   0  0  0  0  0  0  0  0  0  0  0  0
    4.4828   -6.0486    5.8593 O   0  0  0  0  0  0  0  0  0  0  0  0
    3.5247   -5.9443    4.8112 C   0  0  2  0  0  0  0  0  0  0  0  0
    2.5571   -7.1223    4.9038 C   0  0  0  0  0  0  0  0  0  0  0  0
    1.3691   -7.0705    3.9057 C   0  0  2  0  0  0  0  0  0  0  0  0
    0.2856   -6.2393    4.5966 C   0  0  0  0  0  0  0  0  0  0  0  0
   -0.9632   -6.6594    4.8457 C   0  0  0  0  0  0  0  0  0  0  0  0
   -1.5119   -8.0122    4.4667 C   0  0  0  0  0  0  0  0  0  0  0  0
   -0.6497   -8.6459    3.3856 C   0  0  0  0  0  0  0  0  0  0  0  0
   -1.2004   -9.2555    2.4683 O   0  0  0  0  0  0  0  0  0  0  0  0
    0.9028   -8.5438    3.5311 C   0  0  2  0  0  0  0  0  0  0  0  0
    1.2003   -9.6903    4.5412 C   0  0  0  0  0  0  0  0  0  0  0  0
    1.5712   -8.7116    2.1307 C   0  0  1  0  0  0  0  0  0  0  0  0
    1.1960   -7.3698    1.4732 C   0  0  0  0  0  0  0  0  0  0  0  0
    1.7314   -6.3820    2.5195 C   0  0  2  0  0  0  0  0  0  0  0  0
    3.2461   -6.1795    2.2246 C   0  0  1  0  0  0  0  0  0  0  0  0
    3.4294   -5.1443    1.0708 C   0  0  0  0  0  0  0  0  0  0  0  0
    3.2158   -3.6422    1.4175 C   0  0  0  0  0  0  0  0  0  0  0  0
    3.3219   -2.7267    0.2437 N   0  0  0  0  0  0  0  0  0  0  0  0
    4.5646   -2.8938   -0.5557 C   0  0  0  0  0  0  0  0  0  0  0  0
    3.1298   -1.3094    0.6296 C   0  0  0  0  0  0  0  0  0  0  0  0
    4.1812   -5.9420    3.4366 C   0  0  2  0  0  0  0  0  0  0  0  0
    5.0762   -7.1060    2.9651 C   0  0  1  0  0  0  0  0  0  0  0  0
    5.8024   -8.0355    3.9385 C   0  0  0  0  0  0  0  0  0  0  0  0
    3.9661   -7.5404    1.9853 C   0  0  1  0  0  0  0  0  0  0  0  0
    3.1315   -8.8704    1.9795 C   0  0  1  0  0  0  0  0  0  0  0  0
    3.7977  -10.1183    2.5909 C   0  0  0  0  0  0  0  0  0  0  0  0
    5.9061   -5.0390    6.9414 H   0  0  0  0  0  0  0  0  0  0  0  0
    4.6465   -4.0100    6.2662 H   0  0  0  0  0  0  0  0  0  0  0  0
    5.9219   -4.6680    5.2253 H   0  0  0  0  0  0  0  0  0  0  0  0
    2.9578   -5.0238    4.9514 H   0  0  0  0  0  0  0  0  0  0  0  0
    3.1429   -8.0062    4.7041 H   0  0  0  0  0  0  0  0  0  0  0  0
    2.2015   -7.2463    5.9274 H   0  0  0  0  0  0  0  0  0  0  0  0
    0.5800   -5.2520    4.9243 H   0  0  0  0  0  0  0  0  0  0  0  0
   -1.6380   -6.0144    5.3924 H   0  0  0  0  0  0  0  0  0  0  0  0
   -1.5702   -8.6652    5.3350 H   0  0  0  0  0  0  0  0  0  0  0  0
   -2.5240   -7.8924    4.0788 H   0  0  0  0  0  0  0  0  0  0  0  0
    2.2440   -9.8752    4.7544 H   0  0  0  0  0  0  0  0  0  0  0  0
    0.8090  -10.6425    4.1776 H   0  0  0  0  0  0  0  0  0  0  0  0
    0.7265   -9.5117    5.5073 H   0  0  0  0  0  0  0  0  0  0  0  0
    1.1174   -9.5577    1.6231 H   0  0  0  0  0  0  0  0  0  0  0  0
    1.6293   -7.2373    0.4837 H   0  0  0  0  0  0  0  0  0  0  0  0
    0.1233   -7.2484    1.3292 H   0  0  0  0  0  0  0  0  0  0  0  0
    1.2075   -5.4315    2.4220 H   0  0  0  0  0  0  0  0  0  0  0  0
    4.4528   -5.2479    0.7070 H   0  0  0  0  0  0  0  0  0  0  0  0
    2.8029   -5.4015    0.2172 H   0  0  0  0  0  0  0  0  0  0  0  0
    2.2286   -3.5057    1.8629 H   0  0  0  0  0  0  0  0  0  0  0  0
    3.9351   -3.3216    2.1715 H   0  0  0  0  0  0  0  0  0  0  0  0
    5.4510   -2.7386    0.0611 H   0  0  0  0  0  0  0  0  0  0  0  0
    4.5886   -2.1745   -1.3765 H   0  0  0  0  0  0  0  0  0  0  0  0
    4.6213   -3.8835   -1.0133 H   0  0  0  0  0  0  0  0  0  0  0  0
    3.9275   -0.9656    1.2905 H   0  0  0  0  0  0  0  0  0  0  0  0
    2.1771   -1.1648    1.1440 H   0  0  0  0  0  0  0  0  0  0  0  0
    3.1246   -0.6671   -0.2524 H   0  0  0  0  0  0  0  0  0  0  0  0
    4.7557   -5.0273    3.2972 H   0  0  0  0  0  0  0  0  0  0  0  0
    5.8462   -6.6437    2.3420 H   0  0  0  0  0  0  0  0  0  0  0  0
    5.1490   -8.4766    4.6832 H   0  0  0  0  0  0  0  0  0  0  0  0
    6.5649   -7.4966    4.4988 H   0  0  0  0  0  0  0  0  0  0  0  0
    6.2986   -8.8531    3.4176 H   0  0  0  0  0  0  0  0  0  0  0  0
    4.4454   -7.4830    1.0065 H   0  0  0  0  0  0  0  0  0  0  0  0
    3.1751   -9.1656    0.9289 H   0  0  0  0  0  0  0  0  0  0  0  0
    4.0093  -10.0459    3.6531 H   0  0  0  0  0  0  0  0  0  0  0  0
    4.7489  -10.3247    2.0974 H   0  0  0  0  0  0  0  0  0  0  0  0
    3.1728  -11.0008    2.4425 H   0  0  0  0  0  0  0  0  0  0  0  0
    2.5548   -2.9414   -0.3805 H   0  0  0  0  0  0  0  0  0  0  0  0
  1  2  1  0
  1 28  1  0
  1 29  1  0
  1 30  1  0
  2  3  1  0
  3 22  1  0
  3  4  1  0
  3 31  1  1
  5  4  1  1
  4 32  1  0
  4 33  1  0
  5 11  1  0
  5 15  1  0
  5  6  1  0
  6  7  2  0
  6 34  1  0
  7  8  1  0
  7 35  1  0
  8  9  1  0
  8 36  1  0
  8 37  1  0
  9 10  2  0
  9 11  1  0
 11 12  1  1
 11 13  1  0
 12 38  1  0
 12 39  1  0
 12 40  1  0
 13 26  1  0
 13 14  1  0
 13 41  1  6
 14 15  1  0
 14 42  1  0
 14 43  1  0
 15 16  1  0
 15 44  1  1
 16 25  1  0
 16 17  1  6
 16 22  1  0
 17 18  1  0
 17 45  1  0
 17 46  1  0
 18 19  1  0
 18 47  1  0
 18 48  1  0
 19 20  1  0
 19 21  1  0
 19 65  1  0
 20 49  1  0
 20 50  1  0
 20 51  1  0
 21 52  1  0
 21 53  1  0
 21 54  1  0
 22 23  1  0
 22 55  1  6
 23 24  1  0
 23 25  1  0
 23 56  1  6
 24 57  1  0
 24 58  1  0
 24 59  1  0
 25 26  1  0
 25 60  1  6
 26 27  1  0
 26 61  1  6
 27 62  1  0
 27 63  1  0
 27 64  1  0
M  CHG  1  19   1
M  END
>  <i_m_ct_stereo_status>  (117) 
1

>  <s_m_source_file>  (117) 
/var/tmp/pbs.5076255.sched01/tmpguyree9i/45_f3p7e6s.sdf

>  <i_m_source_file_index>  (117) 
8

>  <i_lp_mmshare_version>  (117) 
48012

>  <i_f3d_flags>  (117) 
2

>  <s_epik_input>  (117) 
W0NIM11bQ0BASF0xW0NIXTJbQ0BIXShbQ0gzXSlbQ0BIXShbQ0BASF0oW0NIMl0zKU9bQ0gzXSlbQ0BdMihbQ0gyXVtDSDJdTihbQ0gzXSlbQ0gzXSlbQ0BASF00W0NIMl1bQ0BASF0xW0NAXShbQ0BdMzQ1KShbQ0gzXSlDKD1PKVtDSDJdW0NIXT1bQ0hdNQ==

>  <s_epik_cmdline>  (117) 
J2VwaWtfcHl0aG9uJywgJy1waHQnLCAnMi4wJywgJy1waCcsICc3LjAnLCAnLXRuJywgJzgnLCAnLW1hJywgJzIwMCcsICctaW1hZScsICc8aW5maWxlLm1hZT4nLCAnLW9tYWUnLCAnPG91dGZpbGUubWFlPic=

>  <r_epik_Ionization_Penalty>  (117) 
0.00146276

>  <r_epik_Ionization_Penalty_Charging>  (117) 
0.00146276

>  <r_epik_Ionization_Penalty_Neutral>  (117) 
2.38234e-11

>  <r_epik_State_Penalty>  (117) 
0.000978304

>  <r_epik_Charging_Adjusted_Penalty>  (117) 
0.00244106

>  <i_epik_Tot_Q>  (117) 
1

>  <i_epik_Tot_abs_Q>  (117) 
1

>  <s_lp_Force_Field>  (117) 
OPLS3e

>  <r_lp_Energy>  (117) 
99.1337

>  <b_lp_Chiralities_Consistent>  (117) 
0

>  <s_lp_Variant>  (117) 
36:0-1

>  <s_i_glide_gridfile>  (117) 
pfpi4k_grid

>  <i_i_glide_lignum>  (117) 
8

>  <i_i_glide_rotatable_bonds>  (117) 
4

>  <r_i_docking_score>  (117) 
-2.17386

>  <r_i_glide_ligand_efficiency>  (117) 
-0.0805132

>  <r_i_glide_ligand_efficiency_sa>  (117) 
-0.24154

>  <r_i_glide_ligand_efficiency_ln>  (117) 
-0.506038

>  <r_i_glide_gscore>  (117) 
-2.17386

>  <r_i_glide_lipo>  (117) 
-0.0322299

>  <r_i_glide_hbond>  (117) 
0

>  <r_i_glide_metal>  (117) 
-0

>  <r_i_glide_rewards>  (117) 
-0.868882

>  <r_i_glide_evdw>  (117) 
-20.3656

>  <r_i_glide_ecoul>  (117) 
-2.97737

>  <r_i_glide_erotb>  (117) 
0.278314

>  <r_i_glide_esite>  (117) 
-0.0861727

>  <r_i_glide_emodel>  (117) 
-27.5104

>  <r_i_glide_energy>  (117) 
-23.343

>  <r_i_glide_einternal>  (117) 
0.435603

>  <r_i_glide_intrahb_reward>  (117) 
-0

>  <i_i_glide_confnum>  (117) 
1

>  <i_i_glide_posenum>  (117) 
14

>  <r_i_glide_eff_state_penalty>  (117) 
0

>  <ligand_id>  (117) 
36

>  <original_smiles>  (117) 
COC1CC23C=CCC(=O)C2(C)C2CC3C3(CCN(C)C)C1C(C)C3C2C

>  <smiles>  (117) 
[H]C1=C([H])C23C([H])([H])C([H])(OC([H])([H])[H])C4([H])C([H])(C([H])([H])[H])C5([H])C([H])(C([H])([H])[H])C([H])(C([H])([H])C2([H])C45C([H])([H])C([H])([H])[N+]([H])(C([H])([H])[H])C([H])([H])[H])C3(C([H])([H])[H])C(=O)C1([H])[H]

$$$$
37:0:0
     RDKit          3D

 21 23  0  0  1  0  0  0  0  0999 V2000
    2.6710   -2.1498   -3.5369 C   0  0  0  0  0  0  0  0  0  0  0  0
    2.9460   -3.0482   -2.4866 C   0  0  0  0  0  0  0  0  0  0  0  0
    3.9066   -2.6982   -1.5118 C   0  0  0  0  0  0  0  0  0  0  0  0
    4.2639   -3.5254   -0.4304 N   0  0  0  0  0  0  0  0  0  0  0  0
    3.6026   -4.6239    0.1317 C   0  0  0  0  0  0  0  0  0  0  0  0
    2.2789   -4.7918    0.0116 N   0  0  0  0  0  0  0  0  0  0  0  0
    1.9757   -5.8975    0.7309 N   0  0  0  0  0  0  0  0  0  0  0  0
    0.7189   -6.3652    0.8612 N   0  0  0  0  0  0  0  0  0  0  0  0
    0.9797   -7.4268    1.6404 C   0  0  0  0  0  0  0  0  0  0  0  0
    2.2953   -7.5915    2.0027 N   0  0  0  0  0  0  0  0  0  0  0  0
    2.9056   -6.6097    1.4043 C   0  0  0  0  0  0  0  0  0  0  0  0
    4.4646   -5.8355    1.1275 S   0  0  0  0  0  0  0  0  0  0  0  0
    4.5737   -1.4671   -1.6643 C   0  0  0  0  0  0  0  0  0  0  0  0
    4.2128   -0.6311   -2.7442 C   0  0  0  0  0  0  0  0  0  0  0  0
    3.3024   -0.9694   -3.6779 N   0  0  0  0  0  0  0  0  0  0  0  0
    1.9137   -2.3933   -4.2681 H   0  0  0  0  0  0  0  0  0  0  0  0
    2.4072   -3.9759   -2.4715 H   0  0  0  0  0  0  0  0  0  0  0  0
    0.1797   -8.0874    1.9584 H   0  0  0  0  0  0  0  0  0  0  0  0
    5.3264   -1.1551   -0.9547 H   0  0  0  0  0  0  0  0  0  0  0  0
    4.6447    0.3517   -2.8497 H   0  0  0  0  0  0  0  0  0  0  0  0
    5.2040   -3.4213   -0.0925 H   0  0  0  0  0  0  0  0  0  0  0  0
  1 15  2  0
  1  2  1  0
  1 16  1  0
  2  3  2  0
  2 17  1  0
  3  4  1  0
  3 13  1  0
  4  5  1  0
  4 21  1  0
  5 12  1  0
  5  6  2  0
  6  7  1  0
  7 11  1  0
  7  8  1  0
  8  9  2  0
  9 10  1  0
  9 18  1  0
 10 11  2  0
 11 12  1  0
 13 14  2  0
 13 19  1  0
 14 15  1  0
 14 20  1  0
M  END
>  <i_m_ct_stereo_status>  (118) 
1

>  <s_m_source_file>  (118) 
/var/tmp/pbs.5076255.sched01/tmpguyree9i/45_f3p7e6s.sdf

>  <i_m_source_file_index>  (118) 
9

>  <i_lp_mmshare_version>  (118) 
48012

>  <i_f3d_flags>  (118) 
0

>  <s_epik_input>  (118) 
W2NIXTFbY0hdbltjSF1bY0hdYzEvTj1jKC9bbkhdMilzYyhuMjMpbltjSF1uMw==

>  <s_epik_cmdline>  (118) 
J2VwaWtfcHl0aG9uJywgJy1waHQnLCAnMi4wJywgJy1waCcsICc3LjAnLCAnLXRuJywgJzgnLCAnLW1hJywgJzIwMCcsICctaW1hZScsICc8aW5maWxlLm1hZT4nLCAnLW9tYWUnLCAnPG91dGZpbGUubWFlPic=

>  <r_lp_tautomer_probability>  (118) 
0.999999

>  <r_epik_Ionization_Penalty>  (118) 
0.0542937

>  <r_epik_Ionization_Penalty_Charging>  (118) 
0

>  <r_epik_Ionization_Penalty_Neutral>  (118) 
0.0542937

>  <r_epik_State_Penalty>  (118) 
0.0466906

>  <r_epik_Charging_Adjusted_Penalty>  (118) 
0.0466906

>  <i_epik_Tot_Q>  (118) 
0

>  <i_epik_Tot_abs_Q>  (118) 
0

>  <s_lp_Force_Field>  (118) 
OPLS3e

>  <r_lp_Energy>  (118) 
12.5157

>  <b_lp_Chiralities_Consistent>  (118) 
1

>  <s_lp_Variant>  (118) 
37:0-1

>  <s_i_glide_gridfile>  (118) 
pfpi4k_grid

>  <i_i_glide_lignum>  (118) 
9

>  <i_i_glide_rotatable_bonds>  (118) 
2

>  <r_i_docking_score>  (118) 
-3.78245

>  <r_i_glide_ligand_efficiency>  (118) 
-0.252164

>  <r_i_glide_ligand_efficiency_sa>  (118) 
-0.621889

>  <r_i_glide_ligand_efficiency_ln>  (118) 
-1.02007

>  <r_i_glide_gscore>  (118) 
-3.78245

>  <r_i_glide_lipo>  (118) 
-0.396651

>  <r_i_glide_hbond>  (118) 
-0.16

>  <r_i_glide_metal>  (118) 
-0

>  <r_i_glide_rewards>  (118) 
-1.96138

>  <r_i_glide_evdw>  (118) 
-23.575

>  <r_i_glide_ecoul>  (118) 
-4.56488

>  <r_i_glide_erotb>  (118) 
0.705519

>  <r_i_glide_esite>  (118) 
-0.106463

>  <r_i_glide_emodel>  (118) 
-33.2974

>  <r_i_glide_energy>  (118) 
-28.1399

>  <r_i_glide_einternal>  (118) 
2.59346

>  <r_i_glide_intrahb_reward>  (118) 
-0

>  <i_i_glide_confnum>  (118) 
3

>  <i_i_glide_posenum>  (118) 
19

>  <r_i_glide_eff_state_penalty>  (118) 
0

>  <ligand_id>  (118) 
37

>  <original_smiles>  (118) 
c1cc(N=c2[nH]n3ncnc3s2)ccn1

>  <smiles>  (118) 
[H]c1nc2sc(N([H])c3c([H])c([H])nc([H])c3[H])nn2n1

$$$$
37:0:1
     RDKit          3D

 21 23  0  0  1  0  0  0  0  0999 V2000
    3.0868   -2.5356   -2.2680 C   0  0  0  0  0  0  0  0  0  0  0  0
    2.9903   -3.3913   -1.1485 C   0  0  0  0  0  0  0  0  0  0  0  0
    4.1498   -4.0500   -0.6841 C   0  0  0  0  0  0  0  0  0  0  0  0
    4.1566   -4.9098    0.4420 N   0  0  0  0  0  0  0  0  0  0  0  0
    3.1759   -5.7813    0.9451 C   0  0  0  0  0  0  0  0  0  0  0  0
    1.9018   -5.7575    0.5474 N   0  0  0  0  0  0  0  0  0  0  0  0
    1.2506   -6.6631    1.3114 N   0  0  0  0  0  0  0  0  0  0  0  0
   -0.0825   -6.8187    1.2583 N   0  0  0  0  0  0  0  0  0  0  0  0
   -0.1976   -7.8295    2.1305 C   0  0  0  0  0  0  0  0  0  0  0  0
    0.9634   -8.2051    2.7660 N   0  0  0  0  0  0  0  0  0  0  0  0
    1.8743   -7.4423    2.2234 C   0  0  0  0  0  0  0  0  0  0  0  0
    3.5764   -6.9957    2.2081 S   0  0  0  0  0  0  0  0  0  0  0  0
    5.3589   -3.7829   -1.3520 C   0  0  0  0  0  0  0  0  0  0  0  0
    5.3512   -2.9068   -2.4667 C   0  0  0  0  0  0  0  0  0  0  0  0
    4.2400   -2.2947   -2.9197 N   0  0  0  0  0  0  0  0  0  0  0  0
    2.2008   -2.0244   -2.6012 H   0  0  0  0  0  0  0  0  0  0  0  0
    2.0377   -3.4819   -0.6694 H   0  0  0  0  0  0  0  0  0  0  0  0
   -1.1713   -8.2783    2.3265 H   0  0  0  0  0  0  0  0  0  0  0  0
    6.2836   -4.2495   -1.0420 H   0  0  0  0  0  0  0  0  0  0  0  0
    6.2549   -2.6841   -3.0131 H   0  0  0  0  0  0  0  0  0  0  0  0
    5.0574   -5.0543    0.8730 H   0  0  0  0  0  0  0  0  0  0  0  0
  1 15  2  0
  1  2  1  0
  1 16  1  0
  2  3  2  0
  2 17  1  0
  3  4  1  0
  3 13  1  0
  4  5  1  0
  4 21  1  0
  5 12  1  0
  5  6  2  0
  6  7  1  0
  7 11  1  0
  7  8  1  0
  8  9  2  0
  9 10  1  0
  9 18  1  0
 10 11  2  0
 11 12  1  0
 13 14  2  0
 13 19  1  0
 14 15  1  0
 14 20  1  0
M  END
>  <i_m_ct_stereo_status>  (119) 
1

>  <s_m_source_file>  (119) 
/var/tmp/pbs.5076255.sched01/tmpguyree9i/45_f3p7e6s.sdf

>  <i_m_source_file_index>  (119) 
9

>  <i_lp_mmshare_version>  (119) 
48012

>  <i_f3d_flags>  (119) 
0

>  <s_epik_input>  (119) 
W2NIXTFbY0hdbltjSF1bY0hdYzEvTj1jKC9bbkhdMilzYyhuMjMpbltjSF1uMw==

>  <s_epik_cmdline>  (119) 
J2VwaWtfcHl0aG9uJywgJy1waHQnLCAnMi4wJywgJy1waCcsICc3LjAnLCAnLXRuJywgJzgnLCAnLW1hJywgJzIwMCcsICctaW1hZScsICc8aW5maWxlLm1hZT4nLCAnLW9tYWUnLCAnPG91dGZpbGUubWFlPic=

>  <r_lp_tautomer_probability>  (119) 
0.999999

>  <r_epik_Ionization_Penalty>  (119) 
0.0542937

>  <r_epik_Ionization_Penalty_Charging>  (119) 
0

>  <r_epik_Ionization_Penalty_Neutral>  (119) 
0.0542937

>  <r_epik_State_Penalty>  (119) 
0.0466906

>  <r_epik_Charging_Adjusted_Penalty>  (119) 
0.0466906

>  <i_epik_Tot_Q>  (119) 
0

>  <i_epik_Tot_abs_Q>  (119) 
0

>  <s_lp_Force_Field>  (119) 
OPLS3e

>  <r_lp_Energy>  (119) 
12.5157

>  <b_lp_Chiralities_Consistent>  (119) 
1

>  <s_lp_Variant>  (119) 
37:0-1

>  <s_i_glide_gridfile>  (119) 
pfpi4k_grid

>  <i_i_glide_lignum>  (119) 
9

>  <i_i_glide_rotatable_bonds>  (119) 
2

>  <r_i_docking_score>  (119) 
-3.4019

>  <r_i_glide_ligand_efficiency>  (119) 
-0.226793

>  <r_i_glide_ligand_efficiency_sa>  (119) 
-0.55932

>  <r_i_glide_ligand_efficiency_ln>  (119) 
-0.917436

>  <r_i_glide_gscore>  (119) 
-3.4019

>  <r_i_glide_lipo>  (119) 
-0.292099

>  <r_i_glide_hbond>  (119) 
-0.143011

>  <r_i_glide_metal>  (119) 
-0

>  <r_i_glide_rewards>  (119) 
-1.92109

>  <r_i_glide_evdw>  (119) 
-23.3778

>  <r_i_glide_ecoul>  (119) 
-2.87577

>  <r_i_glide_erotb>  (119) 
0.705519

>  <r_i_glide_esite>  (119) 
-0.150957

>  <r_i_glide_emodel>  (119) 
-30.2572

>  <r_i_glide_energy>  (119) 
-26.2536

>  <r_i_glide_einternal>  (119) 
3.37893

>  <r_i_glide_intrahb_reward>  (119) 
-0

>  <i_i_glide_confnum>  (119) 
3

>  <i_i_glide_posenum>  (119) 
6

>  <r_i_glide_eff_state_penalty>  (119) 
0

>  <ligand_id>  (119) 
37

>  <original_smiles>  (119) 
c1cc(N=c2[nH]n3ncnc3s2)ccn1

>  <smiles>  (119) 
[H]c1nc2sc(N([H])c3c([H])c([H])nc([H])c3[H])nn2n1

$$$$
37:0:2
     RDKit          3D

 21 23  0  0  1  0  0  0  0  0999 V2000
   -1.5587    3.5567    3.2837 C   0  0  0  0  0  0  0  0  0  0  0  0
   -0.9275    2.3213    3.0745 C   0  0  0  0  0  0  0  0  0  0  0  0
   -0.9558    1.3553    4.0978 C   0  0  0  0  0  0  0  0  0  0  0  0
   -0.2823    0.1523    3.8622 N   0  0  0  0  0  0  0  0  0  0  0  0
   -0.2512   -1.0730    4.5451 C   0  0  0  0  0  0  0  0  0  0  0  0
   -1.0980   -1.4259    5.5222 N   0  0  0  0  0  0  0  0  0  0  0  0
   -0.7277   -2.6774    5.8796 N   0  0  0  0  0  0  0  0  0  0  0  0
   -1.3346   -3.3875    6.8439 N   0  0  0  0  0  0  0  0  0  0  0  0
   -0.6024   -4.5043    6.7754 C   0  0  0  0  0  0  0  0  0  0  0  0
    0.3893   -4.5139    5.8222 N   0  0  0  0  0  0  0  0  0  0  0  0
    0.2921   -3.3387    5.2759 C   0  0  0  0  0  0  0  0  0  0  0  0
    0.9678   -2.2855    4.0554 S   0  0  0  0  0  0  0  0  0  0  0  0
   -1.6009    1.6808    5.3089 C   0  0  0  0  0  0  0  0  0  0  0  0
   -2.2017    2.9499    5.4199 C   0  0  0  0  0  0  0  0  0  0  0  0
   -2.1862    3.8732    4.4363 N   0  0  0  0  0  0  0  0  0  0  0  0
   -1.5644    4.3105    2.5097 H   0  0  0  0  0  0  0  0  0  0  0  0
   -0.4265    2.1402    2.1338 H   0  0  0  0  0  0  0  0  0  0  0  0
   -0.8016   -5.3458    7.4281 H   0  0  0  0  0  0  0  0  0  0  0  0
   -1.6219    0.9993    6.1409 H   0  0  0  0  0  0  0  0  0  0  0  0
   -2.7089    3.2286    6.3305 H   0  0  0  0  0  0  0  0  0  0  0  0
    0.3453    0.1842    3.0732 H   0  0  0  0  0  0  0  0  0  0  0  0
  1 15  2  0
  1  2  1  0
  1 16  1  0
  2  3  2  0
  2 17  1  0
  3  4  1  0
  3 13  1  0
  4  5  1  0
  4 21  1  0
  5 12  1  0
  5  6  2  0
  6  7  1  0
  7 11  1  0
  7  8  1  0
  8  9  2  0
  9 10  1  0
  9 18  1  0
 10 11  2  0
 11 12  1  0
 13 14  2  0
 13 19  1  0
 14 15  1  0
 14 20  1  0
M  END
>  <i_m_ct_stereo_status>  (120) 
1

>  <s_m_source_file>  (120) 
/var/tmp/pbs.5076255.sched01/tmpguyree9i/45_f3p7e6s.sdf

>  <i_m_source_file_index>  (120) 
9

>  <i_lp_mmshare_version>  (120) 
48012

>  <i_f3d_flags>  (120) 
0

>  <s_epik_input>  (120) 
W2NIXTFbY0hdbltjSF1bY0hdYzEvTj1jKC9bbkhdMilzYyhuMjMpbltjSF1uMw==

>  <s_epik_cmdline>  (120) 
J2VwaWtfcHl0aG9uJywgJy1waHQnLCAnMi4wJywgJy1waCcsICc3LjAnLCAnLXRuJywgJzgnLCAnLW1hJywgJzIwMCcsICctaW1hZScsICc8aW5maWxlLm1hZT4nLCAnLW9tYWUnLCAnPG91dGZpbGUubWFlPic=

>  <r_lp_tautomer_probability>  (120) 
0.999999

>  <r_epik_Ionization_Penalty>  (120) 
0.0542937

>  <r_epik_Ionization_Penalty_Charging>  (120) 
0

>  <r_epik_Ionization_Penalty_Neutral>  (120) 
0.0542937

>  <r_epik_State_Penalty>  (120) 
0.0466906

>  <r_epik_Charging_Adjusted_Penalty>  (120) 
0.0466906

>  <i_epik_Tot_Q>  (120) 
0

>  <i_epik_Tot_abs_Q>  (120) 
0

>  <s_lp_Force_Field>  (120) 
OPLS3e

>  <r_lp_Energy>  (120) 
12.5157

>  <b_lp_Chiralities_Consistent>  (120) 
1

>  <s_lp_Variant>  (120) 
37:0-1

>  <s_i_glide_gridfile>  (120) 
pfpi4k_grid

>  <i_i_glide_lignum>  (120) 
9

>  <i_i_glide_rotatable_bonds>  (120) 
2

>  <r_i_docking_score>  (120) 
-2.91515

>  <r_i_glide_ligand_efficiency>  (120) 
-0.194344

>  <r_i_glide_ligand_efficiency_sa>  (120) 
-0.479293

>  <r_i_glide_ligand_efficiency_ln>  (120) 
-0.786169

>  <r_i_glide_gscore>  (120) 
-2.91515

>  <r_i_glide_lipo>  (120) 
-0.0327603

>  <r_i_glide_hbond>  (120) 
0

>  <r_i_glide_metal>  (120) 
-0

>  <r_i_glide_rewards>  (120) 
-1.92109

>  <r_i_glide_evdw>  (120) 
-17.9593

>  <r_i_glide_ecoul>  (120) 
-4.70327

>  <r_i_glide_erotb>  (120) 
0.705519

>  <r_i_glide_esite>  (120) 
-0.0633644

>  <r_i_glide_emodel>  (120) 
-27.1879

>  <r_i_glide_energy>  (120) 
-22.6625

>  <r_i_glide_einternal>  (120) 
0.660316

>  <r_i_glide_intrahb_reward>  (120) 
-0

>  <i_i_glide_confnum>  (120) 
5

>  <i_i_glide_posenum>  (120) 
26

>  <r_i_glide_eff_state_penalty>  (120) 
0

>  <ligand_id>  (120) 
37

>  <original_smiles>  (120) 
c1cc(N=c2[nH]n3ncnc3s2)ccn1

>  <smiles>  (120) 
[H]c1nc2sc(N([H])c3c([H])c([H])nc([H])c3[H])nn2n1

$$$$
37:1:0
     RDKit          3D

 22 24  0  0  1  0  0  0  0  0999 V2000
    4.2133   -0.6230   -2.6346 C   0  0  0  0  0  0  0  0  0  0  0  0
    4.5165   -1.5172   -1.5932 C   0  0  0  0  0  0  0  0  0  0  0  0
    3.8211   -2.7408   -1.4981 C   0  0  0  0  0  0  0  0  0  0  0  0
    4.1884   -3.5931   -0.4492 N   0  0  0  0  0  0  0  0  0  0  0  0
    3.5599   -4.7036    0.1307 C   0  0  0  0  0  0  0  0  0  0  0  0
    2.2406   -4.9196    0.0810 N   0  0  0  0  0  0  0  0  0  0  0  0
    2.0288   -6.0266    0.8303 N   0  0  0  0  0  0  0  0  0  0  0  0
    0.8117   -6.5581    1.0215 N   0  0  0  0  0  0  0  0  0  0  0  0
    1.1660   -7.6045    1.7823 C   0  0  0  0  0  0  0  0  0  0  0  0
    2.5122   -7.7087    2.0716 N   0  0  0  0  0  0  0  0  0  0  0  0
    3.0363   -6.6957    1.4476 C   0  0  0  0  0  0  0  0  0  0  0  0
    4.5311   -5.8589    1.0929 S   0  0  0  0  0  0  0  0  0  0  0  0
    2.8637   -3.0538   -2.4908 C   0  0  0  0  0  0  0  0  0  0  0  0
    2.6178   -2.1268   -3.5257 C   0  0  0  0  0  0  0  0  0  0  0  0
    3.2797   -0.9479   -3.5564 N   0  0  0  0  0  0  0  0  0  0  0  0
    4.6561    0.3600   -2.7261 H   0  0  0  0  0  0  0  0  0  0  0  0
    5.2575   -1.2525   -0.8523 H   0  0  0  0  0  0  0  0  0  0  0  0
    0.4324   -8.3096    2.1527 H   0  0  0  0  0  0  0  0  0  0  0  0
    2.3243   -3.9863   -2.4722 H   0  0  0  0  0  0  0  0  0  0  0  0
    1.8815   -2.2816   -4.3103 H   0  0  0  0  0  0  0  0  0  0  0  0
    5.1028   -3.4335   -0.0605 H   0  0  0  0  0  0  0  0  0  0  0  0
    3.0400   -0.2606   -4.2737 H   0  0  0  0  0  0  0  0  0  0  0  0
  1 15  2  0
  1  2  1  0
  1 16  1  0
  2  3  2  0
  2 17  1  0
  3  4  1  0
  3 13  1  0
  4  5  1  0
  4 21  1  0
  5 12  1  0
  5  6  2  0
  6  7  1  0
  7 11  1  0
  7  8  1  0
  8  9  2  0
  9 10  1  0
  9 18  1  0
 10 11  2  0
 11 12  1  0
 13 14  2  0
 13 19  1  0
 14 15  1  0
 14 20  1  0
 15 22  1  0
M  CHG  1  15   1
M  END
>  <i_m_ct_stereo_status>  (121) 
1

>  <s_m_source_file>  (121) 
/var/tmp/pbs.5076255.sched01/tmpguyree9i/45_f3p7e6s.sdf

>  <i_m_source_file_index>  (121) 
10

>  <i_lp_mmshare_version>  (121) 
48012

>  <i_f3d_flags>  (121) 
0

>  <s_epik_input>  (121) 
W2NIXTFbY0hdbltjSF1bY0hdYzEvTj1jKC9bbkhdMilzYyhuMjMpbltjSF1uMw==

>  <s_epik_cmdline>  (121) 
J2VwaWtfcHl0aG9uJywgJy1waHQnLCAnMi4wJywgJy1waCcsICc3LjAnLCAnLXRuJywgJzgnLCAnLW1hJywgJzIwMCcsICctaW1hZScsICc8aW5maWxlLm1hZT4nLCAnLW9tYWUnLCAnPG91dGZpbGUubWFlPic=

>  <r_lp_tautomer_probability>  (121) 
1

>  <r_epik_Ionization_Penalty>  (121) 
1.44303

>  <r_epik_Ionization_Penalty_Charging>  (121) 
1.44301

>  <r_epik_Ionization_Penalty_Neutral>  (121) 
1.62159e-05

>  <r_epik_State_Penalty>  (121) 
1.52857

>  <r_epik_Charging_Adjusted_Penalty>  (121) 
2.97158

>  <i_epik_Tot_Q>  (121) 
1

>  <i_epik_Tot_abs_Q>  (121) 
1

>  <s_lp_Force_Field>  (121) 
OPLS3e

>  <r_lp_Energy>  (121) 
18.0398

>  <b_lp_Chiralities_Consistent>  (121) 
1

>  <s_lp_Variant>  (121) 
37:0-2

>  <s_i_glide_gridfile>  (121) 
pfpi4k_grid

>  <i_i_glide_lignum>  (121) 
10

>  <i_i_glide_rotatable_bonds>  (121) 
2

>  <r_i_docking_score>  (121) 
-4.05055

>  <r_i_glide_ligand_efficiency>  (121) 
-0.270037

>  <r_i_glide_ligand_efficiency_sa>  (121) 
-0.665968

>  <r_i_glide_ligand_efficiency_ln>  (121) 
-1.09237

>  <r_i_glide_gscore>  (121) 
-4.05055

>  <r_i_glide_lipo>  (121) 
-0.380309

>  <r_i_glide_hbond>  (121) 
-0.128394

>  <r_i_glide_metal>  (121) 
-0

>  <r_i_glide_rewards>  (121) 
-1.97729

>  <r_i_glide_evdw>  (121) 
-21.8672

>  <r_i_glide_ecoul>  (121) 
-7.22879

>  <r_i_glide_erotb>  (121) 
0.700058

>  <r_i_glide_esite>  (121) 
-0.0869476

>  <r_i_glide_emodel>  (121) 
-39.2548

>  <r_i_glide_energy>  (121) 
-29.096

>  <r_i_glide_einternal>  (121) 
1.33287

>  <r_i_glide_intrahb_reward>  (121) 
-0

>  <i_i_glide_confnum>  (121) 
1

>  <i_i_glide_posenum>  (121) 
19

>  <r_i_glide_eff_state_penalty>  (121) 
0

>  <ligand_id>  (121) 
37

>  <original_smiles>  (121) 
c1cc(N=c2[nH]n3ncnc3s2)ccn1

>  <smiles>  (121) 
[H]c1nc2sc(N([H])c3c([H])c([H])[n+]([H])c([H])c3[H])nn2n1

$$$$
37:1:1
     RDKit          3D

 22 24  0  0  1  0  0  0  0  0999 V2000
    0.2692   -9.0830    4.2087 C   0  0  0  0  0  0  0  0  0  0  0  0
    1.3146   -8.4708    3.4875 C   0  0  0  0  0  0  0  0  0  0  0  0
    2.2845   -9.2866    2.8635 C   0  0  0  0  0  0  0  0  0  0  0  0
    3.3519   -8.7499    2.1278 N   0  0  0  0  0  0  0  0  0  0  0  0
    3.5148   -7.5035    1.5246 C   0  0  0  0  0  0  0  0  0  0  0  0
    2.4944   -6.6755    1.2791 N   0  0  0  0  0  0  0  0  0  0  0  0
    3.0261   -5.6263    0.6160 N   0  0  0  0  0  0  0  0  0  0  0  0
    2.2814   -4.6060    0.1606 N   0  0  0  0  0  0  0  0  0  0  0  0
    3.2635   -3.8599   -0.3739 C   0  0  0  0  0  0  0  0  0  0  0  0
    4.5357   -4.3797   -0.2625 N   0  0  0  0  0  0  0  0  0  0  0  0
    4.3492   -5.5080    0.3568 C   0  0  0  0  0  0  0  0  0  0  0  0
    5.1272   -6.9482    1.0022 S   0  0  0  0  0  0  0  0  0  0  0  0
    2.2258  -10.6919    3.0379 C   0  0  0  0  0  0  0  0  0  0  0  0
    1.1628  -11.2466    3.7788 C   0  0  0  0  0  0  0  0  0  0  0  0
    0.2364  -10.4230    4.3207 N   0  0  0  0  0  0  0  0  0  0  0  0
   -0.5498   -8.5463    4.6738 H   0  0  0  0  0  0  0  0  0  0  0  0
    1.3459   -7.3943    3.4514 H   0  0  0  0  0  0  0  0  0  0  0  0
    3.0293   -2.9121   -0.8419 H   0  0  0  0  0  0  0  0  0  0  0  0
    2.9774  -11.3390    2.5886 H   0  0  0  0  0  0  0  0  0  0  0  0
    0.9980  -12.3038    3.9207 H   0  0  0  0  0  0  0  0  0  0  0  0
    4.1876   -9.3114    2.0969 H   0  0  0  0  0  0  0  0  0  0  0  0
   -0.5797  -10.8327    4.8305 H   0  0  0  0  0  0  0  0  0  0  0  0
  1 15  2  0
  1  2  1  0
  1 16  1  0
  2  3  2  0
  2 17  1  0
  3  4  1  0
  3 13  1  0
  4  5  1  0
  4 21  1  0
  5 12  1  0
  5  6  2  0
  6  7  1  0
  7 11  1  0
  7  8  1  0
  8  9  2  0
  9 10  1  0
  9 18  1  0
 10 11  2  0
 11 12  1  0
 13 14  2  0
 13 19  1  0
 14 15  1  0
 14 20  1  0
 15 22  1  0
M  CHG  1  15   1
M  END
>  <i_m_ct_stereo_status>  (122) 
1

>  <s_m_source_file>  (122) 
/var/tmp/pbs.5076255.sched01/tmpguyree9i/45_f3p7e6s.sdf

>  <i_m_source_file_index>  (122) 
10

>  <i_lp_mmshare_version>  (122) 
48012

>  <i_f3d_flags>  (122) 
0

>  <s_epik_input>  (122) 
W2NIXTFbY0hdbltjSF1bY0hdYzEvTj1jKC9bbkhdMilzYyhuMjMpbltjSF1uMw==

>  <s_epik_cmdline>  (122) 
J2VwaWtfcHl0aG9uJywgJy1waHQnLCAnMi4wJywgJy1waCcsICc3LjAnLCAnLXRuJywgJzgnLCAnLW1hJywgJzIwMCcsICctaW1hZScsICc8aW5maWxlLm1hZT4nLCAnLW9tYWUnLCAnPG91dGZpbGUubWFlPic=

>  <r_lp_tautomer_probability>  (122) 
1

>  <r_epik_Ionization_Penalty>  (122) 
1.44303

>  <r_epik_Ionization_Penalty_Charging>  (122) 
1.44301

>  <r_epik_Ionization_Penalty_Neutral>  (122) 
1.62159e-05

>  <r_epik_State_Penalty>  (122) 
1.52857

>  <r_epik_Charging_Adjusted_Penalty>  (122) 
2.97158

>  <i_epik_Tot_Q>  (122) 
1

>  <i_epik_Tot_abs_Q>  (122) 
1

>  <s_lp_Force_Field>  (122) 
OPLS3e

>  <r_lp_Energy>  (122) 
18.0398

>  <b_lp_Chiralities_Consistent>  (122) 
1

>  <s_lp_Variant>  (122) 
37:0-2

>  <s_i_glide_gridfile>  (122) 
pfpi4k_grid

>  <i_i_glide_lignum>  (122) 
10

>  <i_i_glide_rotatable_bonds>  (122) 
2

>  <r_i_docking_score>  (122) 
-3.85525

>  <r_i_glide_ligand_efficiency>  (122) 
-0.257016

>  <r_i_glide_ligand_efficiency_sa>  (122) 
-0.633857

>  <r_i_glide_ligand_efficiency_ln>  (122) 
-1.0397

>  <r_i_glide_gscore>  (122) 
-3.85525

>  <r_i_glide_lipo>  (122) 
-0.381302

>  <r_i_glide_hbond>  (122) 
-0.20324

>  <r_i_glide_metal>  (122) 
-0

>  <r_i_glide_rewards>  (122) 
-2.00503

>  <r_i_glide_evdw>  (122) 
-17.4752

>  <r_i_glide_ecoul>  (122) 
-6.34986

>  <r_i_glide_erotb>  (122) 
0.700058

>  <r_i_glide_esite>  (122) 
-0.13949

>  <r_i_glide_emodel>  (122) 
-33.1867

>  <r_i_glide_energy>  (122) 
-23.8251

>  <r_i_glide_einternal>  (122) 
2.32221

>  <r_i_glide_intrahb_reward>  (122) 
-0

>  <i_i_glide_confnum>  (122) 
2

>  <i_i_glide_posenum>  (122) 
14

>  <r_i_glide_eff_state_penalty>  (122) 
0

>  <ligand_id>  (122) 
37

>  <original_smiles>  (122) 
c1cc(N=c2[nH]n3ncnc3s2)ccn1

>  <smiles>  (122) 
[H]c1nc2sc(N([H])c3c([H])c([H])[n+]([H])c([H])c3[H])nn2n1

$$$$
37:1:2
     RDKit          3D

 22 24  0  0  1  0  0  0  0  0999 V2000
    3.9779   -0.2557   -3.1343 C   0  0  0  0  0  0  0  0  0  0  0  0
    4.6325   -0.9585   -2.1056 C   0  0  0  0  0  0  0  0  0  0  0  0
    4.3057   -2.3053   -1.8719 C   0  0  0  0  0  0  0  0  0  0  0  0
    4.9866   -3.0463   -0.8945 N   0  0  0  0  0  0  0  0  0  0  0  0
    4.4785   -4.1781   -0.2309 C   0  0  0  0  0  0  0  0  0  0  0  0
    5.3259   -5.0784    0.2594 N   0  0  0  0  0  0  0  0  0  0  0  0
    4.5669   -6.0466    0.8021 N   0  0  0  0  0  0  0  0  0  0  0  0
    5.1159   -7.1539    1.3172 N   0  0  0  0  0  0  0  0  0  0  0  0
    3.9875   -7.7722    1.6953 C   0  0  0  0  0  0  0  0  0  0  0  0
    2.8023   -7.0812    1.4386 N   0  0  0  0  0  0  0  0  0  0  0  0
    3.2095   -5.9836    0.8629 C   0  0  0  0  0  0  0  0  0  0  0  0
    2.7300   -4.4651    0.1517 S   0  0  0  0  0  0  0  0  0  0  0  0
    3.2745   -2.8725   -2.6706 C   0  0  0  0  0  0  0  0  0  0  0  0
    2.6536   -2.1249   -3.6753 C   0  0  0  0  0  0  0  0  0  0  0  0
    3.0214   -0.8481   -3.8937 N   0  0  0  0  0  0  0  0  0  0  0  0
    4.1781    0.7840   -3.3714 H   0  0  0  0  0  0  0  0  0  0  0  0
    5.3746   -0.4591   -1.5023 H   0  0  0  0  0  0  0  0  0  0  0  0
    4.0244   -8.7459    2.1950 H   0  0  0  0  0  0  0  0  0  0  0  0
    2.9262   -3.8740   -2.5203 H   0  0  0  0  0  0  0  0  0  0  0  0
    1.8515   -2.4936   -4.2985 H   0  0  0  0  0  0  0  0  0  0  0  0
    5.7988   -2.6531   -0.4210 H   0  0  0  0  0  0  0  0  0  0  0  0
    2.5435   -0.3014   -4.6127 H   0  0  0  0  0  0  0  0  0  0  0  0
  1 15  2  0
  1  2  1  0
  1 16  1  0
  2  3  2  0
  2 17  1  0
  3  4  1  0
  3 13  1  0
  4  5  1  0
  4 21  1  0
  5 12  1  0
  5  6  2  0
  6  7  1  0
  7 11  1  0
  7  8  1  0
  8  9  2  0
  9 10  1  0
  9 18  1  0
 10 11  2  0
 11 12  1  0
 13 14  2  0
 13 19  1  0
 14 15  1  0
 14 20  1  0
 15 22  1  0
M  CHG  1  15   1
M  END
>  <i_m_ct_stereo_status>  (123) 
1

>  <s_m_source_file>  (123) 
/var/tmp/pbs.5076255.sched01/tmpguyree9i/45_f3p7e6s.sdf

>  <i_m_source_file_index>  (123) 
10

>  <i_lp_mmshare_version>  (123) 
48012

>  <i_f3d_flags>  (123) 
0

>  <s_epik_input>  (123) 
W2NIXTFbY0hdbltjSF1bY0hdYzEvTj1jKC9bbkhdMilzYyhuMjMpbltjSF1uMw==

>  <s_epik_cmdline>  (123) 
J2VwaWtfcHl0aG9uJywgJy1waHQnLCAnMi4wJywgJy1waCcsICc3LjAnLCAnLXRuJywgJzgnLCAnLW1hJywgJzIwMCcsICctaW1hZScsICc8aW5maWxlLm1hZT4nLCAnLW9tYWUnLCAnPG91dGZpbGUubWFlPic=

>  <r_lp_tautomer_probability>  (123) 
1

>  <r_epik_Ionization_Penalty>  (123) 
1.44303

>  <r_epik_Ionization_Penalty_Charging>  (123) 
1.44301

>  <r_epik_Ionization_Penalty_Neutral>  (123) 
1.62159e-05

>  <r_epik_State_Penalty>  (123) 
1.52857

>  <r_epik_Charging_Adjusted_Penalty>  (123) 
2.97158

>  <i_epik_Tot_Q>  (123) 
1

>  <i_epik_Tot_abs_Q>  (123) 
1

>  <s_lp_Force_Field>  (123) 
OPLS3e

>  <r_lp_Energy>  (123) 
18.0398

>  <b_lp_Chiralities_Consistent>  (123) 
1

>  <s_lp_Variant>  (123) 
37:0-2

>  <s_i_glide_gridfile>  (123) 
pfpi4k_grid

>  <i_i_glide_lignum>  (123) 
10

>  <i_i_glide_rotatable_bonds>  (123) 
2

>  <r_i_docking_score>  (123) 
-3.70696

>  <r_i_glide_ligand_efficiency>  (123) 
-0.247131

>  <r_i_glide_ligand_efficiency_sa>  (123) 
-0.609477

>  <r_i_glide_ligand_efficiency_ln>  (123) 
-0.999706

>  <r_i_glide_gscore>  (123) 
-3.70696

>  <r_i_glide_lipo>  (123) 
-0.412226

>  <r_i_glide_hbond>  (123) 
0

>  <r_i_glide_metal>  (123) 
-0

>  <r_i_glide_rewards>  (123) 
-2.07132

>  <r_i_glide_evdw>  (123) 
-21.3198

>  <r_i_glide_ecoul>  (123) 
-5.6964

>  <r_i_glide_erotb>  (123) 
0.700058

>  <r_i_glide_esite>  (123) 
-0.00302305

>  <r_i_glide_emodel>  (123) 
-34.6433

>  <r_i_glide_energy>  (123) 
-27.0162

>  <r_i_glide_einternal>  (123) 
3.97482

>  <r_i_glide_intrahb_reward>  (123) 
-0

>  <i_i_glide_confnum>  (123) 
4

>  <i_i_glide_posenum>  (123) 
29

>  <r_i_glide_eff_state_penalty>  (123) 
0

>  <ligand_id>  (123) 
37

>  <original_smiles>  (123) 
c1cc(N=c2[nH]n3ncnc3s2)ccn1

>  <smiles>  (123) 
[H]c1nc2sc(N([H])c3c([H])c([H])[n+]([H])c([H])c3[H])nn2n1

$$$$
38:0:0
     RDKit          3D

 56 60  0  0  1  0  0  0  0  0999 V2000
    9.0090   -2.2955    0.2410 C   0  0  0  0  0  0  0  0  0  0  0  0
    8.1342   -3.5015    0.5506 C   0  0  0  0  0  0  0  0  0  0  0  0
    8.6330   -4.6403    1.1977 C   0  0  0  0  0  0  0  0  0  0  0  0
    7.8779   -5.7357    1.3883 N   0  0  0  0  0  0  0  0  0  0  0  0
    6.5734   -5.6536    1.0204 C   0  0  0  0  0  0  0  0  0  0  0  0
    6.0537   -4.4932    0.4274 C   0  0  0  0  0  0  0  0  0  0  0  0
    6.8436   -3.4238    0.1390 N   0  0  0  0  0  0  0  0  0  0  0  0
    4.5801   -4.3421    0.0826 C   0  0  0  0  0  0  0  0  0  0  0  0
    3.7531   -5.5640    0.5401 C   0  0  0  0  0  0  0  0  0  0  0  0
    4.2458   -6.4039    1.7589 C   0  0  2  0  0  0  0  0  0  0  0  0
    3.3393   -7.6648    1.8063 C   0  0  0  0  0  0  0  0  0  0  0  0
    1.9778   -7.3811    2.4158 C   0  0  0  0  0  0  0  0  0  0  0  0
    0.9199   -8.2754    2.2253 C   0  0  0  0  0  0  0  0  0  0  0  0
   -0.3515   -8.0150    2.7571 C   0  0  0  0  0  0  0  0  0  0  0  0
   -1.7825   -9.1916    2.4174 Br  0  0  0  0  0  0  0  0  0  0  0  0
   -0.5726   -6.8457    3.5168 C   0  0  0  0  0  0  0  0  0  0  0  0
    0.4902   -5.9362    3.7053 C   0  0  0  0  0  0  0  0  0  0  0  0
    1.7715   -6.1869    3.1714 C   0  0  0  0  0  0  0  0  0  0  0  0
    2.7658   -5.2652    3.3727 O   0  0  0  0  0  0  0  0  0  0  0  0
    4.1264   -5.6771    3.1848 C   0  0  0  0  0  0  0  0  0  0  0  0
    4.9893   -4.3816    3.2913 C   0  0  0  0  0  0  0  0  0  0  0  0
    4.9242   -3.6658    4.6488 C   0  0  0  0  0  0  0  0  0  0  0  0
    5.2162   -4.5795    5.7521 N   0  0  0  0  0  0  0  0  0  0  0  0
    6.6496   -4.3407    6.6932 S   0  0  0  0  0  0  0  0  0  0  0  0
    6.0161   -4.6762    8.3797 C   0  0  0  0  0  0  0  0  0  0  0  0
    7.6174   -5.3637    6.3175 O   0  0  0  0  0  0  0  0  0  0  0  0
    7.0063   -2.9130    6.6508 O   0  0  0  0  0  0  0  0  0  0  0  0
    4.5054   -5.8683    5.7524 C   0  0  0  0  0  0  0  0  0  0  0  0
    4.5444   -6.5875    4.3903 C   0  0  0  0  0  0  0  0  0  0  0  0
    5.7013   -6.8515    1.4153 C   0  0  0  0  0  0  0  0  0  0  0  0
   10.0398   -2.4737    0.5563 H   0  0  0  0  0  0  0  0  0  0  0  0
    8.6413   -1.3941    0.7308 H   0  0  0  0  0  0  0  0  0  0  0  0
    8.9934   -2.1477   -0.8298 H   0  0  0  0  0  0  0  0  0  0  0  0
    9.6585   -4.6791    1.5842 H   0  0  0  0  0  0  0  0  0  0  0  0
    4.2186   -3.4534    0.6176 H   0  0  0  0  0  0  0  0  0  0  0  0
    4.4471   -4.1412   -0.9758 H   0  0  0  0  0  0  0  0  0  0  0  0
    2.7054   -5.2848    0.6191 H   0  0  0  0  0  0  0  0  0  0  0  0
    3.7914   -6.2230   -0.3316 H   0  0  0  0  0  0  0  0  0  0  0  0
    3.1991   -8.1108    0.8250 H   0  0  0  0  0  0  0  0  0  0  0  0
    3.7980   -8.4605    2.3900 H   0  0  0  0  0  0  0  0  0  0  0  0
    1.0635   -9.1970    1.6569 H   0  0  0  0  0  0  0  0  0  0  0  0
   -1.5585   -6.6594    3.9327 H   0  0  0  0  0  0  0  0  0  0  0  0
    0.3112   -5.0321    4.2665 H   0  0  0  0  0  0  0  0  0  0  0  0
    6.0538   -4.6822    3.1959 H   0  0  0  0  0  0  0  0  0  0  0  0
    4.7197   -3.6096    2.5932 H   0  0  0  0  0  0  0  0  0  0  0  0
    5.6824   -2.9010    4.5782 H   0  0  0  0  0  0  0  0  0  0  0  0
    3.9573   -3.1970    4.8176 H   0  0  0  0  0  0  0  0  0  0  0  0
    6.8264   -4.4713    9.0973 H   0  0  0  0  0  0  0  0  0  0  0  0
    5.7144   -5.7272    8.4357 H   0  0  0  0  0  0  0  0  0  0  0  0
    5.1686   -4.0213    8.5492 H   0  0  0  0  0  0  0  0  0  0  0  0
    4.9587   -6.5516    6.4891 H   0  0  0  0  0  0  0  0  0  0  0  0
    3.4660   -5.6930    6.0531 H   0  0  0  0  0  0  0  0  0  0  0  0
    3.8948   -7.4553    4.4813 H   0  0  0  0  0  0  0  0  0  0  0  0
    5.5502   -6.9800    4.2455 H   0  0  0  0  0  0  0  0  0  0  0  0
    5.6937   -7.5564    0.5731 H   0  0  0  0  0  0  0  0  0  0  0  0
    6.1822   -7.3728    2.2297 H   0  0  0  0  0  0  0  0  0  0  0  0
  1  2  1  0
  1 31  1  0
  1 32  1  0
  1 33  1  0
  2  7  2  0
  2  3  1  0
  3  4  2  0
  3 34  1  0
  4  5  1  0
  5 30  1  0
  5  6  2  0
  6  7  1  0
  6  8  1  0
  8  9  1  0
  8 35  1  0
  8 36  1  0
 10  9  1  6
  9 37  1  0
  9 38  1  0
 10 20  1  0
 10 11  1  0
 10 30  1  0
 11 12  1  0
 11 39  1  0
 11 40  1  0
 12 18  2  0
 12 13  1  0
 13 14  2  0
 13 41  1  0
 14 15  1  0
 14 16  1  0
 16 17  2  0
 16 42  1  0
 17 18  1  0
 17 43  1  0
 18 19  1  0
 19 20  1  0
 20 29  1  0
 20 21  1  0
 21 22  1  0
 21 44  1  0
 21 45  1  0
 22 23  1  0
 22 46  1  0
 22 47  1  0
 23 24  1  0
 23 28  1  0
 24 25  1  0
 24 26  2  0
 24 27  2  0
 25 48  1  0
 25 49  1  0
 25 50  1  0
 28 29  1  0
 28 51  1  0
 28 52  1  0
 29 53  1  0
 29 54  1  0
 30 55  1  0
 30 56  1  0
M  END
>  <i_m_ct_stereo_status>  (124) 
1

>  <s_m_source_file>  (124) 
/var/tmp/pbs.5076255.sched01/tmpguyree9i/45_f3p7e6s.sdf

>  <i_m_source_file_index>  (124) 
11

>  <i_lp_mmshare_version>  (124) 
48012

>  <i_f3d_flags>  (124) 
0

>  <s_epik_input>  (124) 
W0NIM11jKG4xKVtjSF1uYyhbQ0gyXTIpYzFbQ0gyXVtDSDJdW0NAXTIzQzQoW0NIMl1bQ0gyXU4oUyg9TykoPU8pW0NIM10pW0NIMl1bQ0gyXTQpT2M1YyhbQ0gyXTMpW2NIXWMoQnIpW2NIXVtjSF01

>  <s_epik_cmdline>  (124) 
J2VwaWtfcHl0aG9uJywgJy1waHQnLCAnMi4wJywgJy1waCcsICc3LjAnLCAnLXRuJywgJzgnLCAnLW1hJywgJzIwMCcsICctaW1hZScsICc8aW5maWxlLm1hZT4nLCAnLW9tYWUnLCAnPG91dGZpbGUubWFlPic=

>  <r_lp_tautomer_probability>  (124) 
1

>  <r_epik_Ionization_Penalty>  (124) 
8.13772e-05

>  <r_epik_Ionization_Penalty_Charging>  (124) 
0

>  <r_epik_Ionization_Penalty_Neutral>  (124) 
8.13772e-05

>  <r_epik_State_Penalty>  (124) 
-0

>  <r_epik_Charging_Adjusted_Penalty>  (124) 
0

>  <i_epik_Tot_Q>  (124) 
0

>  <i_epik_Tot_abs_Q>  (124) 
0

>  <s_lp_Force_Field>  (124) 
OPLS3e

>  <r_lp_Energy>  (124) 
63.8077

>  <b_lp_Chiralities_Consistent>  (124) 
1

>  <s_lp_Variant>  (124) 
38:0-1

>  <s_i_glide_gridfile>  (124) 
pfpi4k_grid

>  <i_i_glide_lignum>  (124) 
11

>  <i_i_glide_rotatable_bonds>  (124) 
1

>  <r_i_docking_score>  (124) 
-2.49502

>  <r_i_glide_ligand_efficiency>  (124) 
-0.0831673

>  <r_i_glide_ligand_efficiency_sa>  (124) 
-0.25842

>  <r_i_glide_ligand_efficiency_ln>  (124) 
-0.566896

>  <r_i_glide_gscore>  (124) 
-2.49502

>  <r_i_glide_lipo>  (124) 
-0.913932

>  <r_i_glide_hbond>  (124) 
0

>  <r_i_glide_metal>  (124) 
-0

>  <r_i_glide_rewards>  (124) 
-0.0768948

>  <r_i_glide_evdw>  (124) 
-27.4801

>  <r_i_glide_ecoul>  (124) 
-0.867936

>  <r_i_glide_erotb>  (124) 
0

>  <r_i_glide_esite>  (124) 
0

>  <r_i_glide_emodel>  (124) 
-29.7607

>  <r_i_glide_energy>  (124) 
-28.348

>  <r_i_glide_einternal>  (124) 
2.78376

>  <r_i_glide_intrahb_reward>  (124) 
-0

>  <i_i_glide_confnum>  (124) 
2

>  <i_i_glide_posenum>  (124) 
9

>  <r_i_glide_eff_state_penalty>  (124) 
0

>  <ligand_id>  (124) 
38

>  <original_smiles>  (124) 
Cc1cnc2c(n1)CCC1(Cc3cc(Br)ccc3OC13CCN(S(C)(=O)=O)CC3)C2

>  <smiles>  (124) 
[H]c1nc2c(nc1C([H])([H])[H])C([H])([H])C([H])([H])C1(C2([H])[H])C([H])([H])c2c([H])c(Br)c([H])c([H])c2OC12C([H])([H])C([H])([H])N(S(=O)(=O)C([H])([H])[H])C([H])([H])C2([H])[H]

$$$$
38:0:1
     RDKit          3D

 56 60  0  0  1  0  0  0  0  0999 V2000
    9.2048   -2.4498    0.3632 C   0  0  0  0  0  0  0  0  0  0  0  0
    8.2936   -3.6404    0.6404 C   0  0  0  0  0  0  0  0  0  0  0  0
    8.7622   -4.8139    1.2344 C   0  0  0  0  0  0  0  0  0  0  0  0
    7.9720   -5.8872    1.4194 N   0  0  0  0  0  0  0  0  0  0  0  0
    6.6612   -5.7431    1.0737 C   0  0  0  0  0  0  0  0  0  0  0  0
    6.1729   -4.5517    0.5356 C   0  0  0  0  0  0  0  0  0  0  0  0
    6.9984   -3.4944    0.2667 N   0  0  0  0  0  0  0  0  0  0  0  0
    4.7025   -4.3327    0.2333 C   0  0  0  0  0  0  0  0  0  0  0  0
    3.8367   -5.5421    0.6581 C   0  0  0  0  0  0  0  0  0  0  0  0
    4.3246   -6.4469    1.8339 C   0  0  2  0  0  0  0  0  0  0  0  0
    3.3756   -7.6729    1.8569 C   0  0  0  0  0  0  0  0  0  0  0  0
    2.0388   -7.3564    2.5194 C   0  0  0  0  0  0  0  0  0  0  0  0
    0.9337   -8.2223    2.2984 C   0  0  0  0  0  0  0  0  0  0  0  0
   -0.3256   -7.9224    2.8711 C   0  0  0  0  0  0  0  0  0  0  0  0
   -1.8424   -9.0143    2.5088 Br  0  0  0  0  0  0  0  0  0  0  0  0
   -0.4593   -6.7793    3.6800 C   0  0  0  0  0  0  0  0  0  0  0  0
    0.6310   -5.9129    3.8844 C   0  0  0  0  0  0  0  0  0  0  0  0
    1.8928   -6.2032    3.3086 C   0  0  0  0  0  0  0  0  0  0  0  0
    2.9375   -5.3080    3.5278 O   0  0  0  0  0  0  0  0  0  0  0  0
    4.2677   -5.7671    3.2800 C   0  0  0  0  0  0  0  0  0  0  0  0
    5.1836   -4.5072    3.3995 C   0  0  0  0  0  0  0  0  0  0  0  0
    5.1887   -3.8522    4.7869 C   0  0  0  0  0  0  0  0  0  0  0  0
    5.5058   -4.8241    5.8388 N   0  0  0  0  0  0  0  0  0  0  0  0
    6.9520   -4.6664    6.7937 S   0  0  0  0  0  0  0  0  0  0  0  0
    8.2503   -5.5274    5.8019 C   0  0  0  0  0  0  0  0  0  0  0  0
    7.2948   -3.2284    6.8544 O   0  0  0  0  0  0  0  0  0  0  0  0
    6.7675   -5.4076    8.0292 O   0  0  0  0  0  0  0  0  0  0  0  0
    4.7181   -6.0735    5.8268 C   0  0  0  0  0  0  0  0  0  0  0  0
    4.6898   -6.7412    4.4484 C   0  0  0  0  0  0  0  0  0  0  0  0
    5.7589   -6.9291    1.4483 C   0  0  0  0  0  0  0  0  0  0  0  0
   10.2409   -2.6699    0.6437 H   0  0  0  0  0  0  0  0  0  0  0  0
    8.8819   -1.5524    0.8777 H   0  0  0  0  0  0  0  0  0  0  0  0
    9.1810   -2.2548   -0.6964 H   0  0  0  0  0  0  0  0  0  0  0  0
    9.7962   -4.9060    1.5936 H   0  0  0  0  0  0  0  0  0  0  0  0
    4.3888   -3.4558    0.8252 H   0  0  0  0  0  0  0  0  0  0  0  0
    4.5514   -4.0870   -0.8034 H   0  0  0  0  0  0  0  0  0  0  0  0
    2.8086   -5.2280    0.7754 H   0  0  0  0  0  0  0  0  0  0  0  0
    3.8331   -6.1652   -0.2479 H   0  0  0  0  0  0  0  0  0  0  0  0
    3.1911   -8.0668    0.8637 H   0  0  0  0  0  0  0  0  0  0  0  0
    3.8247   -8.5086    2.3997 H   0  0  0  0  0  0  0  0  0  0  0  0
    1.0392   -9.0966    1.6814 H   0  0  0  0  0  0  0  0  0  0  0  0
   -1.4254   -6.5624    4.1289 H   0  0  0  0  0  0  0  0  0  0  0  0
    0.5032   -5.0211    4.4805 H   0  0  0  0  0  0  0  0  0  0  0  0
    6.2239   -4.8468    3.2509 H   0  0  0  0  0  0  0  0  0  0  0  0
    4.9315   -3.7105    2.7360 H   0  0  0  0  0  0  0  0  0  0  0  0
    5.9465   -3.0874    4.7413 H   0  0  0  0  0  0  0  0  0  0  0  0
    4.2317   -3.3686    5.0183 H   0  0  0  0  0  0  0  0  0  0  0  0
    9.1887   -5.4819    6.3681 H   0  0  0  0  0  0  0  0  0  0  0  0
    8.4180   -5.0548    4.8256 H   0  0  0  0  0  0  0  0  0  0  0  0
    7.9751   -6.5698    5.6527 H   0  0  0  0  0  0  0  0  0  0  0  0
    5.1532   -6.7832    6.5531 H   0  0  0  0  0  0  0  0  0  0  0  0
    3.7029   -5.8462    6.1726 H   0  0  0  0  0  0  0  0  0  0  0  0
    4.0055   -7.5868    4.5257 H   0  0  0  0  0  0  0  0  0  0  0  0
    5.6690   -7.1643    4.2471 H   0  0  0  0  0  0  0  0  0  0  0  0
    5.7090   -7.5921    0.5793 H   0  0  0  0  0  0  0  0  0  0  0  0
    6.2331   -7.4937    2.2365 H   0  0  0  0  0  0  0  0  0  0  0  0
  1  2  1  0
  1 31  1  0
  1 32  1  0
  1 33  1  0
  2  7  2  0
  2  3  1  0
  3  4  2  0
  3 34  1  0
  4  5  1  0
  5 30  1  0
  5  6  2  0
  6  7  1  0
  6  8  1  0
  8  9  1  0
  8 35  1  0
  8 36  1  0
 10  9  1  6
  9 37  1  0
  9 38  1  0
 10 20  1  0
 10 11  1  0
 10 30  1  0
 11 12  1  0
 11 39  1  0
 11 40  1  0
 12 18  2  0
 12 13  1  0
 13 14  2  0
 13 41  1  0
 14 15  1  0
 14 16  1  0
 16 17  2  0
 16 42  1  0
 17 18  1  0
 17 43  1  0
 18 19  1  0
 19 20  1  0
 20 29  1  0
 20 21  1  0
 21 22  1  0
 21 44  1  0
 21 45  1  0
 22 23  1  0
 22 46  1  0
 22 47  1  0
 23 24  1  0
 23 28  1  0
 24 25  1  0
 24 26  2  0
 24 27  2  0
 25 48  1  0
 25 49  1  0
 25 50  1  0
 28 29  1  0
 28 51  1  0
 28 52  1  0
 29 53  1  0
 29 54  1  0
 30 55  1  0
 30 56  1  0
M  END
>  <i_m_ct_stereo_status>  (125) 
1

>  <s_m_source_file>  (125) 
/var/tmp/pbs.5076255.sched01/tmpguyree9i/45_f3p7e6s.sdf

>  <i_m_source_file_index>  (125) 
11

>  <i_lp_mmshare_version>  (125) 
48012

>  <i_f3d_flags>  (125) 
0

>  <s_epik_input>  (125) 
W0NIM11jKG4xKVtjSF1uYyhbQ0gyXTIpYzFbQ0gyXVtDSDJdW0NAXTIzQzQoW0NIMl1bQ0gyXU4oUyg9TykoPU8pW0NIM10pW0NIMl1bQ0gyXTQpT2M1YyhbQ0gyXTMpW2NIXWMoQnIpW2NIXVtjSF01

>  <s_epik_cmdline>  (125) 
J2VwaWtfcHl0aG9uJywgJy1waHQnLCAnMi4wJywgJy1waCcsICc3LjAnLCAnLXRuJywgJzgnLCAnLW1hJywgJzIwMCcsICctaW1hZScsICc8aW5maWxlLm1hZT4nLCAnLW9tYWUnLCAnPG91dGZpbGUubWFlPic=

>  <r_lp_tautomer_probability>  (125) 
1

>  <r_epik_Ionization_Penalty>  (125) 
8.13772e-05

>  <r_epik_Ionization_Penalty_Charging>  (125) 
0

>  <r_epik_Ionization_Penalty_Neutral>  (125) 
8.13772e-05

>  <r_epik_State_Penalty>  (125) 
-0

>  <r_epik_Charging_Adjusted_Penalty>  (125) 
0

>  <i_epik_Tot_Q>  (125) 
0

>  <i_epik_Tot_abs_Q>  (125) 
0

>  <s_lp_Force_Field>  (125) 
OPLS3e

>  <r_lp_Energy>  (125) 
63.8077

>  <b_lp_Chiralities_Consistent>  (125) 
1

>  <s_lp_Variant>  (125) 
38:0-1

>  <s_i_glide_gridfile>  (125) 
pfpi4k_grid

>  <i_i_glide_lignum>  (125) 
11

>  <i_i_glide_rotatable_bonds>  (125) 
1

>  <r_i_docking_score>  (125) 
-2.42838

>  <r_i_glide_ligand_efficiency>  (125) 
-0.0809459

>  <r_i_glide_ligand_efficiency_sa>  (125) 
-0.251518

>  <r_i_glide_ligand_efficiency_ln>  (125) 
-0.551754

>  <r_i_glide_gscore>  (125) 
-2.42838

>  <r_i_glide_lipo>  (125) 
-0.829239

>  <r_i_glide_hbond>  (125) 
0

>  <r_i_glide_metal>  (125) 
-0

>  <r_i_glide_rewards>  (125) 
-0.0757496

>  <r_i_glide_evdw>  (125) 
-27.7119

>  <r_i_glide_ecoul>  (125) 
-0.918615

>  <r_i_glide_erotb>  (125) 
0

>  <r_i_glide_esite>  (125) 
0

>  <r_i_glide_emodel>  (125) 
-31.5115

>  <r_i_glide_energy>  (125) 
-28.6305

>  <r_i_glide_einternal>  (125) 
0.0652607

>  <r_i_glide_intrahb_reward>  (125) 
-0

>  <i_i_glide_confnum>  (125) 
1

>  <i_i_glide_posenum>  (125) 
22

>  <r_i_glide_eff_state_penalty>  (125) 
0

>  <ligand_id>  (125) 
38

>  <original_smiles>  (125) 
Cc1cnc2c(n1)CCC1(Cc3cc(Br)ccc3OC13CCN(S(C)(=O)=O)CC3)C2

>  <smiles>  (125) 
[H]c1nc2c(nc1C([H])([H])[H])C([H])([H])C([H])([H])C1(C2([H])[H])C([H])([H])c2c([H])c(Br)c([H])c([H])c2OC12C([H])([H])C([H])([H])N(S(=O)(=O)C([H])([H])[H])C([H])([H])C2([H])[H]

$$$$
38:0:2
     RDKit          3D

 56 60  0  0  1  0  0  0  0  0999 V2000
   -2.0853   -8.9087    3.0057 C   0  0  0  0  0  0  0  0  0  0  0  0
   -1.0030   -7.8594    3.1088 C   0  0  0  0  0  0  0  0  0  0  0  0
   -0.7165   -7.2343    4.3252 C   0  0  0  0  0  0  0  0  0  0  0  0
    0.1998   -6.2548    4.4273 N   0  0  0  0  0  0  0  0  0  0  0  0
    0.9175   -5.9727    3.2950 C   0  0  0  0  0  0  0  0  0  0  0  0
    0.6344   -6.6159    2.0805 C   0  0  0  0  0  0  0  0  0  0  0  0
   -0.3613   -7.5221    1.9680 N   0  0  0  0  0  0  0  0  0  0  0  0
    1.4450   -6.3806    0.8327 C   0  0  0  0  0  0  0  0  0  0  0  0
    2.5991   -5.3910    1.0497 C   0  0  0  0  0  0  0  0  0  0  0  0
    3.2329   -5.2840    2.4908 C   0  0  2  0  0  0  0  0  0  0  0  0
    4.1705   -4.0612    2.4191 C   0  0  0  0  0  0  0  0  0  0  0  0
    5.5034   -4.4043    1.7585 C   0  0  0  0  0  0  0  0  0  0  0  0
    6.3330   -3.3553    1.2939 C   0  0  0  0  0  0  0  0  0  0  0  0
    7.5453   -3.6632    0.6513 C   0  0  0  0  0  0  0  0  0  0  0  0
    8.6032   -2.2540   -0.0094 Br  0  0  0  0  0  0  0  0  0  0  0  0
    7.9530   -4.9940    0.4858 C   0  0  0  0  0  0  0  0  0  0  0  0
    7.1187   -6.0400    0.9463 C   0  0  0  0  0  0  0  0  0  0  0  0
    5.8952   -5.7536    1.5855 C   0  0  0  0  0  0  0  0  0  0  0  0
    5.1047   -6.8029    1.9925 O   0  0  0  0  0  0  0  0  0  0  0  0
    4.0703   -6.5374    2.9401 C   0  0  0  0  0  0  0  0  0  0  0  0
    3.2087   -7.8512    3.0259 C   0  0  0  0  0  0  0  0  0  0  0  0
    3.9946   -9.0915    3.5283 C   0  0  0  0  0  0  0  0  0  0  0  0
    4.6588   -8.8043    4.8110 N   0  0  0  0  0  0  0  0  0  0  0  0
    4.1921   -9.6867    6.2191 S   0  0  0  0  0  0  0  0  0  0  0  0
    2.4941   -9.0506    6.6474 C   0  0  0  0  0  0  0  0  0  0  0  0
    4.0343  -11.1128    5.8238 O   0  0  0  0  0  0  0  0  0  0  0  0
    5.1041   -9.3355    7.3246 O   0  0  0  0  0  0  0  0  0  0  0  0
    5.4944   -7.5943    4.8632 C   0  0  0  0  0  0  0  0  0  0  0  0
    4.7473   -6.3489    4.3516 C   0  0  0  0  0  0  0  0  0  0  0  0
    2.0510   -4.9566    3.4426 C   0  0  0  0  0  0  0  0  0  0  0  0
   -2.5723   -9.0480    3.9719 H   0  0  0  0  0  0  0  0  0  0  0  0
   -1.6976   -9.8716    2.6616 H   0  0  0  0  0  0  0  0  0  0  0  0
   -2.8191   -8.5601    2.2789 H   0  0  0  0  0  0  0  0  0  0  0  0
   -1.2338   -7.5258    5.2277 H   0  0  0  0  0  0  0  0  0  0  0  0
    1.8598   -7.3540    0.6264 H   0  0  0  0  0  0  0  0  0  0  0  0
    0.8167   -6.0903   -0.0034 H   0  0  0  0  0  0  0  0  0  0  0  0
    3.3603   -5.5436    0.2746 H   0  0  0  0  0  0  0  0  0  0  0  0
    2.1620   -4.4142    0.8053 H   0  0  0  0  0  0  0  0  0  0  0  0
    3.7304   -3.2060    1.8905 H   0  0  0  0  0  0  0  0  0  0  0  0
    4.3924   -3.6828    3.4177 H   0  0  0  0  0  0  0  0  0  0  0  0
    6.0476   -2.3261    1.4268 H   0  0  0  0  0  0  0  0  0  0  0  0
    8.8973   -5.2216   -0.0081 H   0  0  0  0  0  0  0  0  0  0  0  0
    7.4338   -7.0549    0.7951 H   0  0  0  0  0  0  0  0  0  0  0  0
    2.4262   -7.6611    3.7739 H   0  0  0  0  0  0  0  0  0  0  0  0
    2.7853   -8.1662    2.0896 H   0  0  0  0  0  0  0  0  0  0  0  0
    3.2480   -9.8619    3.6684 H   0  0  0  0  0  0  0  0  0  0  0  0
    4.7324   -9.4441    2.8169 H   0  0  0  0  0  0  0  0  0  0  0  0
    2.1870   -9.5764    7.5400 H   0  0  0  0  0  0  0  0  0  0  0  0
    1.8093   -9.2912    5.8454 H   0  0  0  0  0  0  0  0  0  0  0  0
    2.5443   -7.9829    6.8264 H   0  0  0  0  0  0  0  0  0  0  0  0
    5.8209   -7.4020    5.9015 H   0  0  0  0  0  0  0  0  0  0  0  0
    6.3963   -7.7655    4.2722 H   0  0  0  0  0  0  0  0  0  0  0  0
    5.4751   -5.5409    4.3484 H   0  0  0  0  0  0  0  0  0  0  0  0
    3.9945   -6.0731    5.1001 H   0  0  0  0  0  0  0  0  0  0  0  0
    1.6178   -3.9565    3.2222 H   0  0  0  0  0  0  0  0  0  0  0  0
    2.3535   -4.9321    4.4801 H   0  0  0  0  0  0  0  0  0  0  0  0
  1  2  1  0
  1 31  1  0
  1 32  1  0
  1 33  1  0
  2  7  2  0
  2  3  1  0
  3  4  2  0
  3 34  1  0
  4  5  1  0
  5 30  1  0
  5  6  2  0
  6  7  1  0
  6  8  1  0
  8  9  1  0
  8 35  1  0
  8 36  1  0
 10  9  1  6
  9 37  1  0
  9 38  1  0
 10 20  1  0
 10 11  1  0
 10 30  1  0
 11 12  1  0
 11 39  1  0
 11 40  1  0
 12 18  2  0
 12 13  1  0
 13 14  2  0
 13 41  1  0
 14 15  1  0
 14 16  1  0
 16 17  2  0
 16 42  1  0
 17 18  1  0
 17 43  1  0
 18 19  1  0
 19 20  1  0
 20 29  1  0
 20 21  1  0
 21 22  1  0
 21 44  1  0
 21 45  1  0
 22 23  1  0
 22 46  1  0
 22 47  1  0
 23 24  1  0
 23 28  1  0
 24 25  1  0
 24 26  2  0
 24 27  2  0
 25 48  1  0
 25 49  1  0
 25 50  1  0
 28 29  1  0
 28 51  1  0
 28 52  1  0
 29 53  1  0
 29 54  1  0
 30 55  1  0
 30 56  1  0
M  END
>  <i_m_ct_stereo_status>  (126) 
1

>  <s_m_source_file>  (126) 
/var/tmp/pbs.5076255.sched01/tmpguyree9i/45_f3p7e6s.sdf

>  <i_m_source_file_index>  (126) 
11

>  <i_lp_mmshare_version>  (126) 
48012

>  <i_f3d_flags>  (126) 
0

>  <s_epik_input>  (126) 
W0NIM11jKG4xKVtjSF1uYyhbQ0gyXTIpYzFbQ0gyXVtDSDJdW0NAXTIzQzQoW0NIMl1bQ0gyXU4oUyg9TykoPU8pW0NIM10pW0NIMl1bQ0gyXTQpT2M1YyhbQ0gyXTMpW2NIXWMoQnIpW2NIXVtjSF01

>  <s_epik_cmdline>  (126) 
J2VwaWtfcHl0aG9uJywgJy1waHQnLCAnMi4wJywgJy1waCcsICc3LjAnLCAnLXRuJywgJzgnLCAnLW1hJywgJzIwMCcsICctaW1hZScsICc8aW5maWxlLm1hZT4nLCAnLW9tYWUnLCAnPG91dGZpbGUubWFlPic=

>  <r_lp_tautomer_probability>  (126) 
1

>  <r_epik_Ionization_Penalty>  (126) 
8.13772e-05

>  <r_epik_Ionization_Penalty_Charging>  (126) 
0

>  <r_epik_Ionization_Penalty_Neutral>  (126) 
8.13772e-05

>  <r_epik_State_Penalty>  (126) 
-0

>  <r_epik_Charging_Adjusted_Penalty>  (126) 
0

>  <i_epik_Tot_Q>  (126) 
0

>  <i_epik_Tot_abs_Q>  (126) 
0

>  <s_lp_Force_Field>  (126) 
OPLS3e

>  <r_lp_Energy>  (126) 
63.8077

>  <b_lp_Chiralities_Consistent>  (126) 
1

>  <s_lp_Variant>  (126) 
38:0-1

>  <s_i_glide_gridfile>  (126) 
pfpi4k_grid

>  <i_i_glide_lignum>  (126) 
11

>  <i_i_glide_rotatable_bonds>  (126) 
1

>  <r_i_docking_score>  (126) 
-1.96987

>  <r_i_glide_ligand_efficiency>  (126) 
-0.0656624

>  <r_i_glide_ligand_efficiency_sa>  (126) 
-0.204028

>  <r_i_glide_ligand_efficiency_ln>  (126) 
-0.447576

>  <r_i_glide_gscore>  (126) 
-1.96987

>  <r_i_glide_lipo>  (126) 
-0.55436

>  <r_i_glide_hbond>  (126) 
0

>  <r_i_glide_metal>  (126) 
-0

>  <r_i_glide_rewards>  (126) 
-0.0516127

>  <r_i_glide_evdw>  (126) 
-26.5159

>  <r_i_glide_ecoul>  (126) 
0.140292

>  <r_i_glide_erotb>  (126) 
0

>  <r_i_glide_esite>  (126) 
-0.0591459

>  <r_i_glide_emodel>  (126) 
-27.9072

>  <r_i_glide_energy>  (126) 
-26.3757

>  <r_i_glide_einternal>  (126) 
0.510509

>  <r_i_glide_intrahb_reward>  (126) 
-0

>  <i_i_glide_confnum>  (126) 
1

>  <i_i_glide_posenum>  (126) 
8

>  <r_i_glide_eff_state_penalty>  (126) 
0

>  <ligand_id>  (126) 
38

>  <original_smiles>  (126) 
Cc1cnc2c(n1)CCC1(Cc3cc(Br)ccc3OC13CCN(S(C)(=O)=O)CC3)C2

>  <smiles>  (126) 
[H]c1nc2c(nc1C([H])([H])[H])C([H])([H])C([H])([H])C1(C2([H])[H])C([H])([H])c2c([H])c(Br)c([H])c([H])c2OC12C([H])([H])C([H])([H])N(S(=O)(=O)C([H])([H])[H])C([H])([H])C2([H])[H]

$$$$
39:0:0
     RDKit          3D

 36 36  0  0  1  0  0  0  0  0999 V2000
    3.3051   -0.3053   -4.7740 C   0  0  0  0  0  0  0  0  0  0  0  0
    2.9262   -1.6643   -4.1631 C   0  0  0  0  0  0  0  0  0  0  0  0
    3.3231   -1.6958   -2.8006 O   0  0  0  0  0  0  0  0  0  0  0  0
    4.4898   -2.2738   -2.4482 C   0  0  0  0  0  0  0  0  0  0  0  0
    5.2122   -2.8869   -3.2377 O   0  0  0  0  0  0  0  0  0  0  0  0
    4.8702   -2.0891   -1.0324 C   0  0  0  0  0  0  0  0  0  0  0  0
    6.1579   -2.5313   -0.6027 C   0  0  0  0  0  0  0  0  0  0  0  0
    7.2271   -2.8358   -0.2793 N   0  0  0  0  0  0  0  0  0  0  0  0
    4.0223   -1.5046   -0.1447 C   0  0  0  0  0  0  0  0  0  0  0  0
    4.2445   -1.2730    1.2103 N   0  0  0  0  0  0  0  0  0  0  0  0
    3.6754   -0.1232    1.9137 C   0  0  0  0  0  0  0  0  0  0  0  0
    2.8363   -0.5758    3.1267 C   0  0  0  0  0  0  0  0  0  0  0  0
    3.6409   -1.4021    4.0269 N   0  0  0  0  0  0  0  0  0  0  0  0
    2.8929   -1.7864    5.2295 C   0  0  0  0  0  0  0  0  0  0  0  0
    1.7123   -2.7529    4.9790 C   0  0  0  0  0  0  0  0  0  0  0  0
    4.1505   -2.5722    3.3133 C   0  0  0  0  0  0  0  0  0  0  0  0
    4.9992   -2.1433    2.1125 C   0  0  0  0  0  0  0  0  0  0  0  0
    3.0151   -0.2540   -5.8245 H   0  0  0  0  0  0  0  0  0  0  0  0
    4.3814   -0.1203   -4.7181 H   0  0  0  0  0  0  0  0  0  0  0  0
    2.8042    0.5134   -4.2525 H   0  0  0  0  0  0  0  0  0  0  0  0
    1.8494   -1.8313   -4.2268 H   0  0  0  0  0  0  0  0  0  0  0  0
    3.3977   -2.4699   -4.7235 H   0  0  0  0  0  0  0  0  0  0  0  0
    3.0439   -1.1679   -0.4505 H   0  0  0  0  0  0  0  0  0  0  0  0
    4.4902    0.5398    2.2215 H   0  0  0  0  0  0  0  0  0  0  0  0
    3.0293    0.4400    1.2315 H   0  0  0  0  0  0  0  0  0  0  0  0
    2.4946    0.3078    3.6681 H   0  0  0  0  0  0  0  0  0  0  0  0
    1.9605   -1.1203    2.7729 H   0  0  0  0  0  0  0  0  0  0  0  0
    3.5839   -2.2428    5.9369 H   0  0  0  0  0  0  0  0  0  0  0  0
    2.5352   -0.8805    5.7166 H   0  0  0  0  0  0  0  0  0  0  0  0
    1.1381   -2.9122    5.8930 H   0  0  0  0  0  0  0  0  0  0  0  0
    2.0658   -3.7342    4.6668 H   0  0  0  0  0  0  0  0  0  0  0  0
    1.0294   -2.3865    4.2123 H   0  0  0  0  0  0  0  0  0  0  0  0
    4.7542   -3.1853    3.9790 H   0  0  0  0  0  0  0  0  0  0  0  0
    3.3354   -3.1916    2.9477 H   0  0  0  0  0  0  0  0  0  0  0  0
    5.2721   -3.0707    1.6009 H   0  0  0  0  0  0  0  0  0  0  0  0
    5.9249   -1.6443    2.4206 H   0  0  0  0  0  0  0  0  0  0  0  0
  1  2  1  0
  1 18  1  0
  1 19  1  0
  1 20  1  0
  2  3  1  0
  2 21  1  0
  2 22  1  0
  3  4  1  0
  4  5  2  0
  4  6  1  0
  6  7  1  0
  6  9  2  3
  7  8  3  0
  9 10  1  0
  9 23  1  0
 10 17  1  0
 10 11  1  0
 11 12  1  0
 11 24  1  0
 11 25  1  0
 12 13  1  0
 12 26  1  0
 12 27  1  0
 13 14  1  0
 13 16  1  0
 14 15  1  0
 14 28  1  0
 14 29  1  0
 15 30  1  0
 15 31  1  0
 15 32  1  0
 16 17  1  0
 16 33  1  0
 16 34  1  0
 17 35  1  0
 17 36  1  0
M  END
>  <i_m_ct_stereo_status>  (127) 
1

>  <s_m_source_file>  (127) 
/var/tmp/pbs.5076255.sched01/tmpguyree9i/45_f3p7e6s.sdf

>  <i_m_source_file_index>  (127) 
12

>  <i_lp_mmshare_version>  (127) 
48012

>  <i_f3d_flags>  (127) 
0

>  <s_epik_input>  (127) 
W0NIM11bQ0gyXU9DKD1PKS9DKEMjTik9W0NIXS9OMVtDSDJdW0NIMl1OKFtDSDJdW0NIM10pW0NIMl1bQ0gyXTE=

>  <s_epik_cmdline>  (127) 
J2VwaWtfcHl0aG9uJywgJy1waHQnLCAnMi4wJywgJy1waCcsICc3LjAnLCAnLXRuJywgJzgnLCAnLW1hJywgJzIwMCcsICctaW1hZScsICc8aW5maWxlLm1hZT4nLCAnLW9tYWUnLCAnPG91dGZpbGUubWFlPic=

>  <r_lp_tautomer_probability>  (127) 
0.5

>  <r_epik_Ionization_Penalty>  (127) 
0.130494

>  <r_epik_Ionization_Penalty_Charging>  (127) 
0

>  <r_epik_Ionization_Penalty_Neutral>  (127) 
0.130494

>  <r_epik_State_Penalty>  (127) 
0.530573

>  <r_epik_Charging_Adjusted_Penalty>  (127) 
0.530573

>  <i_epik_Tot_Q>  (127) 
0

>  <i_epik_Tot_abs_Q>  (127) 
0

>  <s_epik_Chemistry_Notes>  (127) 
This compound has an ester and may undergo hydrolysis at high or low pH.

>  <s_lp_Force_Field>  (127) 
OPLS3e

>  <r_lp_Energy>  (127) 
19.5587

>  <b_lp_Chiralities_Consistent>  (127) 
1

>  <s_lp_Variant>  (127) 
39:0-1

>  <s_i_glide_gridfile>  (127) 
pfpi4k_grid

>  <i_i_glide_lignum>  (127) 
12

>  <i_i_glide_rotatable_bonds>  (127) 
6

>  <r_i_docking_score>  (127) 
-2.26753

>  <r_i_glide_ligand_efficiency>  (127) 
-0.133384

>  <r_i_glide_ligand_efficiency_sa>  (127) 
-0.342968

>  <r_i_glide_ligand_efficiency_ln>  (127) 
-0.591548

>  <r_i_glide_gscore>  (127) 
-2.26753

>  <r_i_glide_lipo>  (127) 
-0.367352

>  <r_i_glide_hbond>  (127) 
0

>  <r_i_glide_metal>  (127) 
-0

>  <r_i_glide_rewards>  (127) 
-1.90496

>  <r_i_glide_evdw>  (127) 
-20.7657

>  <r_i_glide_ecoul>  (127) 
-1.0912

>  <r_i_glide_erotb>  (127) 
1.22438

>  <r_i_glide_esite>  (127) 
-0.0176419

>  <r_i_glide_emodel>  (127) 
-22.9792

>  <r_i_glide_energy>  (127) 
-21.8569

>  <r_i_glide_einternal>  (127) 
3.32973

>  <r_i_glide_intrahb_reward>  (127) 
-0

>  <i_i_glide_confnum>  (127) 
1

>  <i_i_glide_posenum>  (127) 
3

>  <r_i_glide_eff_state_penalty>  (127) 
0

>  <ligand_id>  (127) 
39

>  <original_smiles>  (127) 
CCOC(=O)C(C#N)=CN1CCN(CC)CC1

>  <smiles>  (127) 
[H]C(=C(C#N)C(=O)OC([H])([H])C([H])([H])[H])N1C([H])([H])C([H])([H])N(C([H])([H])C([H])([H])[H])C([H])([H])C1([H])[H]

$$$$
39:0:1
     RDKit          3D

 36 36  0  0  1  0  0  0  0  0999 V2000
   -1.9629   -8.9795    2.4250 C   0  0  0  0  0  0  0  0  0  0  0  0
   -0.6546   -9.0565    3.2227 C   0  0  0  0  0  0  0  0  0  0  0  0
    0.1587   -7.9186    2.9458 O   0  0  0  0  0  0  0  0  0  0  0  0
    0.0573   -6.8214    3.7230 C   0  0  0  0  0  0  0  0  0  0  0  0
   -0.7772   -6.7060    4.6249 O   0  0  0  0  0  0  0  0  0  0  0  0
    1.0164   -5.7410    3.3942 C   0  0  0  0  0  0  0  0  0  0  0  0
    1.1248   -4.6270    4.2818 C   0  0  0  0  0  0  0  0  0  0  0  0
    1.1644   -3.7267    5.0055 N   0  0  0  0  0  0  0  0  0  0  0  0
    1.7683   -5.7960    2.2647 C   0  0  0  0  0  0  0  0  0  0  0  0
    2.6866   -4.8616    1.7897 N   0  0  0  0  0  0  0  0  0  0  0  0
    2.6367   -3.4181    2.0176 C   0  0  0  0  0  0  0  0  0  0  0  0
    2.7188   -2.6373    0.7044 C   0  0  0  0  0  0  0  0  0  0  0  0
    3.9569   -2.9653   -0.0042 N   0  0  0  0  0  0  0  0  0  0  0  0
    4.0086   -2.1989   -1.2497 C   0  0  0  0  0  0  0  0  0  0  0  0
    4.4571   -0.7530   -0.9922 C   0  0  0  0  0  0  0  0  0  0  0  0
    3.9220   -4.3964   -0.3139 C   0  0  0  0  0  0  0  0  0  0  0  0
    3.8506   -5.2292    0.9843 C   0  0  0  0  0  0  0  0  0  0  0  0
   -2.5826   -9.8444    2.6383 H   0  0  0  0  0  0  0  0  0  0  0  0
   -1.7614   -8.9652    1.3513 H   0  0  0  0  0  0  0  0  0  0  0  0
   -2.5429   -8.0862    2.6795 H   0  0  0  0  0  0  0  0  0  0  0  0
   -0.8671   -9.1304    4.2892 H   0  0  0  0  0  0  0  0  0  0  0  0
   -0.0977   -9.9531    2.9512 H   0  0  0  0  0  0  0  0  0  0  0  0
    1.6852   -6.6369    1.5965 H   0  0  0  0  0  0  0  0  0  0  0  0
    1.6824   -3.1289    2.4556 H   0  0  0  0  0  0  0  0  0  0  0  0
    3.4329   -3.1152    2.7045 H   0  0  0  0  0  0  0  0  0  0  0  0
    1.8599   -2.8695    0.0801 H   0  0  0  0  0  0  0  0  0  0  0  0
    2.6632   -1.5766    0.9391 H   0  0  0  0  0  0  0  0  0  0  0  0
    4.7268   -2.6537   -1.9343 H   0  0  0  0  0  0  0  0  0  0  0  0
    3.0378   -2.2200   -1.7507 H   0  0  0  0  0  0  0  0  0  0  0  0
    4.4034   -0.1760   -1.9174 H   0  0  0  0  0  0  0  0  0  0  0  0
    5.4828   -0.7140   -0.6293 H   0  0  0  0  0  0  0  0  0  0  0  0
    3.8305   -0.2527   -0.2532 H   0  0  0  0  0  0  0  0  0  0  0  0
    3.0705   -4.6226   -0.9528 H   0  0  0  0  0  0  0  0  0  0  0  0
    4.8224   -4.6716   -0.8637 H   0  0  0  0  0  0  0  0  0  0  0  0
    4.7506   -5.0842    1.5862 H   0  0  0  0  0  0  0  0  0  0  0  0
    3.8096   -6.2894    0.7234 H   0  0  0  0  0  0  0  0  0  0  0  0
  1  2  1  0
  1 18  1  0
  1 19  1  0
  1 20  1  0
  2  3  1  0
  2 21  1  0
  2 22  1  0
  3  4  1  0
  4  5  2  0
  4  6  1  0
  6  7  1  0
  6  9  2  3
  7  8  3  0
  9 10  1  0
  9 23  1  0
 10 17  1  0
 10 11  1  0
 11 12  1  0
 11 24  1  0
 11 25  1  0
 12 13  1  0
 12 26  1  0
 12 27  1  0
 13 14  1  0
 13 16  1  0
 14 15  1  0
 14 28  1  0
 14 29  1  0
 15 30  1  0
 15 31  1  0
 15 32  1  0
 16 17  1  0
 16 33  1  0
 16 34  1  0
 17 35  1  0
 17 36  1  0
M  END
>  <i_m_ct_stereo_status>  (128) 
1

>  <s_m_source_file>  (128) 
/var/tmp/pbs.5076255.sched01/tmpguyree9i/45_f3p7e6s.sdf

>  <i_m_source_file_index>  (128) 
12

>  <i_lp_mmshare_version>  (128) 
48012

>  <i_f3d_flags>  (128) 
0

>  <s_epik_input>  (128) 
W0NIM11bQ0gyXU9DKD1PKS9DKEMjTik9W0NIXS9OMVtDSDJdW0NIMl1OKFtDSDJdW0NIM10pW0NIMl1bQ0gyXTE=

>  <s_epik_cmdline>  (128) 
J2VwaWtfcHl0aG9uJywgJy1waHQnLCAnMi4wJywgJy1waCcsICc3LjAnLCAnLXRuJywgJzgnLCAnLW1hJywgJzIwMCcsICctaW1hZScsICc8aW5maWxlLm1hZT4nLCAnLW9tYWUnLCAnPG91dGZpbGUubWFlPic=

>  <r_lp_tautomer_probability>  (128) 
0.5

>  <r_epik_Ionization_Penalty>  (128) 
0.130494

>  <r_epik_Ionization_Penalty_Charging>  (128) 
0

>  <r_epik_Ionization_Penalty_Neutral>  (128) 
0.130494

>  <r_epik_State_Penalty>  (128) 
0.530573

>  <r_epik_Charging_Adjusted_Penalty>  (128) 
0.530573

>  <i_epik_Tot_Q>  (128) 
0

>  <i_epik_Tot_abs_Q>  (128) 
0

>  <s_epik_Chemistry_Notes>  (128) 
This compound has an ester and may undergo hydrolysis at high or low pH.

>  <s_lp_Force_Field>  (128) 
OPLS3e

>  <r_lp_Energy>  (128) 
19.5587

>  <b_lp_Chiralities_Consistent>  (128) 
1

>  <s_lp_Variant>  (128) 
39:0-1

>  <s_i_glide_gridfile>  (128) 
pfpi4k_grid

>  <i_i_glide_lignum>  (128) 
12

>  <i_i_glide_rotatable_bonds>  (128) 
6

>  <r_i_docking_score>  (128) 
-2.1971

>  <r_i_glide_ligand_efficiency>  (128) 
-0.129241

>  <r_i_glide_ligand_efficiency_sa>  (128) 
-0.332315

>  <r_i_glide_ligand_efficiency_ln>  (128) 
-0.573173

>  <r_i_glide_gscore>  (128) 
-2.1971

>  <r_i_glide_lipo>  (128) 
-0.275623

>  <r_i_glide_hbond>  (128) 
0

>  <r_i_glide_metal>  (128) 
-0

>  <r_i_glide_rewards>  (128) 
-1.79115

>  <r_i_glide_evdw>  (128) 
-18.2765

>  <r_i_glide_ecoul>  (128) 
-2.53375

>  <r_i_glide_erotb>  (128) 
1.22438

>  <r_i_glide_esite>  (128) 
-0.060819

>  <r_i_glide_emodel>  (128) 
-23.0116

>  <r_i_glide_energy>  (128) 
-20.8103

>  <r_i_glide_einternal>  (128) 
1.12915

>  <r_i_glide_intrahb_reward>  (128) 
-0

>  <i_i_glide_confnum>  (128) 
6

>  <i_i_glide_posenum>  (128) 
4

>  <r_i_glide_eff_state_penalty>  (128) 
0

>  <ligand_id>  (128) 
39

>  <original_smiles>  (128) 
CCOC(=O)C(C#N)=CN1CCN(CC)CC1

>  <smiles>  (128) 
[H]C(=C(C#N)C(=O)OC([H])([H])C([H])([H])[H])N1C([H])([H])C([H])([H])N(C([H])([H])C([H])([H])[H])C([H])([H])C1([H])[H]

$$$$
39:0:2
     RDKit          3D

 36 36  0  0  1  0  0  0  0  0999 V2000
   -1.8596   -9.0504    2.3449 C   0  0  0  0  0  0  0  0  0  0  0  0
   -0.6069   -9.2346    3.2131 C   0  0  0  0  0  0  0  0  0  0  0  0
    0.3165   -8.1792    2.9682 O   0  0  0  0  0  0  0  0  0  0  0  0
    0.1531   -6.9914    3.5912 C   0  0  0  0  0  0  0  0  0  0  0  0
   -0.7653   -6.7602    4.3806 O   0  0  0  0  0  0  0  0  0  0  0  0
    1.1483   -5.9607    3.2290 C   0  0  0  0  0  0  0  0  0  0  0  0
    1.1221   -4.6963    3.8963 C   0  0  0  0  0  0  0  0  0  0  0  0
    1.0483   -3.6684    4.4209 N   0  0  0  0  0  0  0  0  0  0  0  0
    2.0745   -6.1993    2.2671 C   0  0  0  0  0  0  0  0  0  0  0  0
    3.0559   -5.3292    1.8003 N   0  0  0  0  0  0  0  0  0  0  0  0
    2.8912   -3.8921    1.6002 C   0  0  0  0  0  0  0  0  0  0  0  0
    3.2774   -3.4774    0.1748 C   0  0  0  0  0  0  0  0  0  0  0  0
    4.6703   -3.8429   -0.0985 N   0  0  0  0  0  0  0  0  0  0  0  0
    5.0264   -3.4265   -1.4545 C   0  0  0  0  0  0  0  0  0  0  0  0
    5.2594   -1.9072   -1.5486 C   0  0  0  0  0  0  0  0  0  0  0  0
    4.7774   -5.3017    0.0102 C   0  0  0  0  0  0  0  0  0  0  0  0
    4.3996   -5.7722    1.4315 C   0  0  0  0  0  0  0  0  0  0  0  0
   -2.5725   -9.8525    2.5221 H   0  0  0  0  0  0  0  0  0  0  0  0
   -1.6008   -9.0565    1.2869 H   0  0  0  0  0  0  0  0  0  0  0  0
   -2.3701   -8.1119    2.5648 H   0  0  0  0  0  0  0  0  0  0  0  0
   -0.8722   -9.2722    4.2714 H   0  0  0  0  0  0  0  0  0  0  0  0
   -0.1231  -10.1829    2.9820 H   0  0  0  0  0  0  0  0  0  0  0  0
    2.1147   -7.1457    1.7533 H   0  0  0  0  0  0  0  0  0  0  0  0
    1.8488   -3.6134    1.7374 H   0  0  0  0  0  0  0  0  0  0  0  0
    3.4798   -3.3394    2.3390 H   0  0  0  0  0  0  0  0  0  0  0  0
    2.6166   -3.9486   -0.5511 H   0  0  0  0  0  0  0  0  0  0  0  0
    3.1283   -2.4033    0.0979 H   0  0  0  0  0  0  0  0  0  0  0  0
    5.9509   -3.9202   -1.7543 H   0  0  0  0  0  0  0  0  0  0  0  0
    4.2603   -3.7532   -2.1622 H   0  0  0  0  0  0  0  0  0  0  0  0
    5.4394   -1.6198   -2.5833 H   0  0  0  0  0  0  0  0  0  0  0  0
    6.1238   -1.6111   -0.9547 H   0  0  0  0  0  0  0  0  0  0  0  0
    4.4100   -1.3152   -1.2089 H   0  0  0  0  0  0  0  0  0  0  0  0
    4.1349   -5.7914   -0.7193 H   0  0  0  0  0  0  0  0  0  0  0  0
    5.7988   -5.6145   -0.2031 H   0  0  0  0  0  0  0  0  0  0  0  0
    5.1092   -5.3896    2.1690 H   0  0  0  0  0  0  0  0  0  0  0  0
    4.4500   -6.8618    1.4729 H   0  0  0  0  0  0  0  0  0  0  0  0
  1  2  1  0
  1 18  1  0
  1 19  1  0
  1 20  1  0
  2  3  1  0
  2 21  1  0
  2 22  1  0
  3  4  1  0
  4  5  2  0
  4  6  1  0
  6  7  1  0
  6  9  2  3
  7  8  3  0
  9 10  1  0
  9 23  1  0
 10 17  1  0
 10 11  1  0
 11 12  1  0
 11 24  1  0
 11 25  1  0
 12 13  1  0
 12 26  1  0
 12 27  1  0
 13 14  1  0
 13 16  1  0
 14 15  1  0
 14 28  1  0
 14 29  1  0
 15 30  1  0
 15 31  1  0
 15 32  1  0
 16 17  1  0
 16 33  1  0
 16 34  1  0
 17 35  1  0
 17 36  1  0
M  END
>  <i_m_ct_stereo_status>  (129) 
1

>  <s_m_source_file>  (129) 
/var/tmp/pbs.5076255.sched01/tmpguyree9i/45_f3p7e6s.sdf

>  <i_m_source_file_index>  (129) 
12

>  <i_lp_mmshare_version>  (129) 
48012

>  <i_f3d_flags>  (129) 
0

>  <s_epik_input>  (129) 
W0NIM11bQ0gyXU9DKD1PKS9DKEMjTik9W0NIXS9OMVtDSDJdW0NIMl1OKFtDSDJdW0NIM10pW0NIMl1bQ0gyXTE=

>  <s_epik_cmdline>  (129) 
J2VwaWtfcHl0aG9uJywgJy1waHQnLCAnMi4wJywgJy1waCcsICc3LjAnLCAnLXRuJywgJzgnLCAnLW1hJywgJzIwMCcsICctaW1hZScsICc8aW5maWxlLm1hZT4nLCAnLW9tYWUnLCAnPG91dGZpbGUubWFlPic=

>  <r_lp_tautomer_probability>  (129) 
0.5

>  <r_epik_Ionization_Penalty>  (129) 
0.130494

>  <r_epik_Ionization_Penalty_Charging>  (129) 
0

>  <r_epik_Ionization_Penalty_Neutral>  (129) 
0.130494

>  <r_epik_State_Penalty>  (129) 
0.530573

>  <r_epik_Charging_Adjusted_Penalty>  (129) 
0.530573

>  <i_epik_Tot_Q>  (129) 
0

>  <i_epik_Tot_abs_Q>  (129) 
0

>  <s_epik_Chemistry_Notes>  (129) 
This compound has an ester and may undergo hydrolysis at high or low pH.

>  <s_lp_Force_Field>  (129) 
OPLS3e

>  <r_lp_Energy>  (129) 
19.5587

>  <b_lp_Chiralities_Consistent>  (129) 
1

>  <s_lp_Variant>  (129) 
39:0-1

>  <s_i_glide_gridfile>  (129) 
pfpi4k_grid

>  <i_i_glide_lignum>  (129) 
12

>  <i_i_glide_rotatable_bonds>  (129) 
6

>  <r_i_docking_score>  (129) 
-2.18031

>  <r_i_glide_ligand_efficiency>  (129) 
-0.128254

>  <r_i_glide_ligand_efficiency_sa>  (129) 
-0.329776

>  <r_i_glide_ligand_efficiency_ln>  (129) 
-0.568795

>  <r_i_glide_gscore>  (129) 
-2.18031

>  <r_i_glide_lipo>  (129) 
-0.415872

>  <r_i_glide_hbond>  (129) 
0

>  <r_i_glide_metal>  (129) 
-0

>  <r_i_glide_rewards>  (129) 
-1.79115

>  <r_i_glide_evdw>  (129) 
-18.6062

>  <r_i_glide_ecoul>  (129) 
-1.42065

>  <r_i_glide_erotb>  (129) 
1.22438

>  <r_i_glide_esite>  (129) 
-0.0542701

>  <r_i_glide_emodel>  (129) 
-22.4927

>  <r_i_glide_energy>  (129) 
-20.0268

>  <r_i_glide_einternal>  (129) 
0.671774

>  <r_i_glide_intrahb_reward>  (129) 
-0

>  <i_i_glide_confnum>  (129) 
6

>  <i_i_glide_posenum>  (129) 
23

>  <r_i_glide_eff_state_penalty>  (129) 
0

>  <ligand_id>  (129) 
39

>  <original_smiles>  (129) 
CCOC(=O)C(C#N)=CN1CCN(CC)CC1

>  <smiles>  (129) 
[H]C(=C(C#N)C(=O)OC([H])([H])C([H])([H])[H])N1C([H])([H])C([H])([H])N(C([H])([H])C([H])([H])[H])C([H])([H])C1([H])[H]

$$$$
39:1:0
     RDKit          3D

 36 36  0  0  1  0  0  0  0  0999 V2000
    5.1493   -0.9074    2.8042 C   0  0  0  0  0  0  0  0  0  0  0  0
    3.7974   -1.6056    2.5439 C   0  0  0  0  0  0  0  0  0  0  0  0
    3.9762   -2.8022    1.8035 O   0  0  0  0  0  0  0  0  0  0  0  0
    4.2275   -2.7139    0.4922 C   0  0  0  0  0  0  0  0  0  0  0  0
    4.3354   -1.6413   -0.0808 O   0  0  0  0  0  0  0  0  0  0  0  0
    4.4178   -4.0368   -0.1352 C   0  0  0  0  0  0  0  0  0  0  0  0
    4.5268   -5.2194    0.6474 C   0  0  0  0  0  0  0  0  0  0  0  0
    4.6184   -6.1789    1.2961 N   0  0  0  0  0  0  0  0  0  0  0  0
    4.4944   -4.2044   -1.4816 C   0  0  0  0  0  0  0  0  0  0  0  0
    4.4003   -3.3088   -2.5377 N   0  0  0  0  0  0  0  0  0  0  0  0
    3.4943   -3.4567   -3.6758 C   0  0  0  0  0  0  0  0  0  0  0  0
    2.6767   -2.1844   -3.8596 C   0  0  0  0  0  0  0  0  0  0  0  0
    3.5606   -1.0507   -4.1418 N   0  0  0  0  0  0  0  0  0  0  0  0
    2.7196    0.1340   -4.3156 C   0  0  0  0  0  0  0  0  0  0  0  0
    3.5439    1.3372   -4.7871 C   0  0  0  0  0  0  0  0  0  0  0  0
    4.3723   -0.8822   -2.9355 C   0  0  0  0  0  0  0  0  0  0  0  0
    5.2413   -2.1438   -2.7066 C   0  0  0  0  0  0  0  0  0  0  0  0
    4.9985   -0.0009    3.3841 H   0  0  0  0  0  0  0  0  0  0  0  0
    5.6653   -0.6077    1.8906 H   0  0  0  0  0  0  0  0  0  0  0  0
    5.8165   -1.5703    3.3476 H   0  0  0  0  0  0  0  0  0  0  0  0
    3.2917   -1.8596    3.4815 H   0  0  0  0  0  0  0  0  0  0  0  0
    3.1258   -0.9460    1.9879 H   0  0  0  0  0  0  0  0  0  0  0  0
    4.6690   -5.2065   -1.8352 H   0  0  0  0  0  0  0  0  0  0  0  0
    4.0515   -3.6879   -4.5805 H   0  0  0  0  0  0  0  0  0  0  0  0
    2.7812   -4.2543   -3.4997 H   0  0  0  0  0  0  0  0  0  0  0  0
    1.9813   -2.3458   -4.6761 H   0  0  0  0  0  0  0  0  0  0  0  0
    2.0701   -2.0131   -2.9665 H   0  0  0  0  0  0  0  0  0  0  0  0
    1.9309   -0.0686   -5.0420 H   0  0  0  0  0  0  0  0  0  0  0  0
    2.2292    0.3461   -3.3677 H   0  0  0  0  0  0  0  0  0  0  0  0
    2.8901    2.1635   -5.0681 H   0  0  0  0  0  0  0  0  0  0  0  0
    4.1450    1.0593   -5.6516 H   0  0  0  0  0  0  0  0  0  0  0  0
    4.2023    1.7069   -3.9966 H   0  0  0  0  0  0  0  0  0  0  0  0
    5.0074   -0.0067   -3.0056 H   0  0  0  0  0  0  0  0  0  0  0  0
    3.6964   -0.6901   -2.1067 H   0  0  0  0  0  0  0  0  0  0  0  0
    5.9365   -2.0437   -1.8664 H   0  0  0  0  0  0  0  0  0  0  0  0
    5.8526   -2.3660   -3.5614 H   0  0  0  0  0  0  0  0  0  0  0  0
  1  2  1  0
  1 18  1  0
  1 19  1  0
  1 20  1  0
  2  3  1  0
  2 21  1  0
  2 22  1  0
  3  4  1  0
  4  5  2  0
  4  6  1  0
  6  7  1  0
  6  9  2  3
  7  8  3  0
  9 10  1  0
  9 23  1  0
 10 17  1  0
 10 11  1  0
 11 12  1  0
 11 24  1  0
 11 25  1  0
 12 13  1  0
 12 26  1  0
 12 27  1  0
 13 14  1  0
 13 16  1  0
 14 15  1  0
 14 28  1  0
 14 29  1  0
 15 30  1  0
 15 31  1  0
 15 32  1  0
 16 17  1  0
 16 33  1  0
 16 34  1  0
 17 35  1  0
 17 36  1  0
M  END
>  <i_m_ct_stereo_status>  (130) 
1

>  <s_m_source_file>  (130) 
/var/tmp/pbs.5076255.sched01/tmpguyree9i/45_f3p7e6s.sdf

>  <i_m_source_file_index>  (130) 
13

>  <i_lp_mmshare_version>  (130) 
48012

>  <i_f3d_flags>  (130) 
0

>  <s_epik_input>  (130) 
W0NIM11bQ0gyXU9DKD1PKS9DKEMjTik9W0NIXS9OMVtDSDJdW0NIMl1OKFtDSDJdW0NIM10pW0NIMl1bQ0gyXTE=

>  <s_epik_cmdline>  (130) 
J2VwaWtfcHl0aG9uJywgJy1waHQnLCAnMi4wJywgJy1waCcsICc3LjAnLCAnLXRuJywgJzgnLCAnLW1hJywgJzIwMCcsICctaW1hZScsICc8aW5maWxlLm1hZT4nLCAnLW9tYWUnLCAnPG91dGZpbGUubWFlPic=

>  <r_lp_tautomer_probability>  (130) 
0.5

>  <r_epik_Ionization_Penalty>  (130) 
0.130494

>  <r_epik_Ionization_Penalty_Charging>  (130) 
0

>  <r_epik_Ionization_Penalty_Neutral>  (130) 
0.130494

>  <r_epik_State_Penalty>  (130) 
0.530573

>  <r_epik_Charging_Adjusted_Penalty>  (130) 
0.530573

>  <i_epik_Tot_Q>  (130) 
0

>  <i_epik_Tot_abs_Q>  (130) 
0

>  <s_epik_Chemistry_Notes>  (130) 
This compound has an ester and may undergo hydrolysis at high or low pH.

>  <s_lp_Force_Field>  (130) 
OPLS3e

>  <r_lp_Energy>  (130) 
20.9299

>  <b_lp_Chiralities_Consistent>  (130) 
1

>  <s_lp_Variant>  (130) 
39:0-2

>  <s_i_glide_gridfile>  (130) 
pfpi4k_grid

>  <i_i_glide_lignum>  (130) 
13

>  <i_i_glide_rotatable_bonds>  (130) 
6

>  <r_i_docking_score>  (130) 
-2.57795

>  <r_i_glide_ligand_efficiency>  (130) 
-0.151644

>  <r_i_glide_ligand_efficiency_sa>  (130) 
-0.38992

>  <r_i_glide_ligand_efficiency_ln>  (130) 
-0.67253

>  <r_i_glide_gscore>  (130) 
-2.57795

>  <r_i_glide_lipo>  (130) 
-0.58786

>  <r_i_glide_hbond>  (130) 
0

>  <r_i_glide_metal>  (130) 
-0

>  <r_i_glide_rewards>  (130) 
-1.86662

>  <r_i_glide_evdw>  (130) 
-18.9871

>  <r_i_glide_ecoul>  (130) 
-2.58828

>  <r_i_glide_erotb>  (130) 
1.22438

>  <r_i_glide_esite>  (130) 
-0.0102612

>  <r_i_glide_emodel>  (130) 
-22.4504

>  <r_i_glide_energy>  (130) 
-21.5754

>  <r_i_glide_einternal>  (130) 
3.00462

>  <r_i_glide_intrahb_reward>  (130) 
-0

>  <i_i_glide_confnum>  (130) 
5

>  <i_i_glide_posenum>  (130) 
12

>  <r_i_glide_eff_state_penalty>  (130) 
0

>  <ligand_id>  (130) 
39

>  <original_smiles>  (130) 
CCOC(=O)C(C#N)=CN1CCN(CC)CC1

>  <smiles>  (130) 
[H]C(=C(C#N)C(=O)OC([H])([H])C([H])([H])[H])N1C([H])([H])C([H])([H])N(C([H])([H])C([H])([H])[H])C([H])([H])C1([H])[H]

$$$$
39:1:1
     RDKit          3D

 36 36  0  0  1  0  0  0  0  0999 V2000
    2.5792    0.8913    2.0445 C   0  0  0  0  0  0  0  0  0  0  0  0
    3.5746   -0.0773    2.7092 C   0  0  0  0  0  0  0  0  0  0  0  0
    3.2530   -1.4125    2.3622 O   0  0  0  0  0  0  0  0  0  0  0  0
    3.6138   -1.8765    1.1477 C   0  0  0  0  0  0  0  0  0  0  0  0
    4.2740   -1.2146    0.3606 O   0  0  0  0  0  0  0  0  0  0  0  0
    3.1129   -3.2405    0.9136 C   0  0  0  0  0  0  0  0  0  0  0  0
    2.5724   -4.0328    1.9788 C   0  0  0  0  0  0  0  0  0  0  0  0
    2.1127   -4.6733    2.8207 N   0  0  0  0  0  0  0  0  0  0  0  0
    3.1116   -3.8285   -0.3190 C   0  0  0  0  0  0  0  0  0  0  0  0
    3.5481   -3.3726   -1.5645 N   0  0  0  0  0  0  0  0  0  0  0  0
    2.6789   -3.3719   -2.7351 C   0  0  0  0  0  0  0  0  0  0  0  0
    2.6246   -1.9790   -3.3600 C   0  0  0  0  0  0  0  0  0  0  0  0
    3.9524   -1.5417   -3.8055 N   0  0  0  0  0  0  0  0  0  0  0  0
    3.8675   -0.1696   -4.3180 C   0  0  0  0  0  0  0  0  0  0  0  0
    2.9131    0.0638   -5.4863 C   0  0  0  0  0  0  0  0  0  0  0  0
    4.7830   -1.5059   -2.5825 C   0  0  0  0  0  0  0  0  0  0  0  0
    4.8675   -2.9010   -1.9126 C   0  0  0  0  0  0  0  0  0  0  0  0
    2.8106    1.9202    2.3120 H   0  0  0  0  0  0  0  0  0  0  0  0
    1.5629    0.6655    2.3608 H   0  0  0  0  0  0  0  0  0  0  0  0
    2.5960    0.8316    0.9541 H   0  0  0  0  0  0  0  0  0  0  0  0
    4.5954    0.1444    2.3920 H   0  0  0  0  0  0  0  0  0  0  0  0
    3.5578    0.0137    3.7999 H   0  0  0  0  0  0  0  0  0  0  0  0
    2.7078   -4.8202   -0.3988 H   0  0  0  0  0  0  0  0  0  0  0  0
    3.0270   -4.0778   -3.4889 H   0  0  0  0  0  0  0  0  0  0  0  0
    1.6726   -3.6607   -2.4362 H   0  0  0  0  0  0  0  0  0  0  0  0
    1.9437   -2.0636   -4.2042 H   0  0  0  0  0  0  0  0  0  0  0  0
    2.2253   -1.2615   -2.6416 H   0  0  0  0  0  0  0  0  0  0  0  0
    3.6891    0.5555   -3.5272 H   0  0  0  0  0  0  0  0  0  0  0  0
    4.8377    0.0332   -4.7317 H   0  0  0  0  0  0  0  0  0  0  0  0
    2.9666    1.0980   -5.8399 H   0  0  0  0  0  0  0  0  0  0  0  0
    1.8755   -0.1798   -5.2305 H   0  0  0  0  0  0  0  0  0  0  0  0
    3.2646   -0.5666   -6.2989 H   0  0  0  0  0  0  0  0  0  0  0  0
    5.8089   -1.1681   -2.7076 H   0  0  0  0  0  0  0  0  0  0  0  0
    4.3434   -0.7553   -1.9336 H   0  0  0  0  0  0  0  0  0  0  0  0
    5.4726   -2.8730   -1.0022 H   0  0  0  0  0  0  0  0  0  0  0  0
    5.3461   -3.6167   -2.5769 H   0  0  0  0  0  0  0  0  0  0  0  0
  1  2  1  0
  1 18  1  0
  1 19  1  0
  1 20  1  0
  2  3  1  0
  2 21  1  0
  2 22  1  0
  3  4  1  0
  4  5  2  0
  4  6  1  0
  6  7  1  0
  6  9  2  3
  7  8  3  0
  9 10  1  0
  9 23  1  0
 10 17  1  0
 10 11  1  0
 11 12  1  0
 11 24  1  0
 11 25  1  0
 12 13  1  0
 12 26  1  0
 12 27  1  0
 13 14  1  0
 13 16  1  0
 14 15  1  0
 14 28  1  0
 14 29  1  0
 15 30  1  0
 15 31  1  0
 15 32  1  0
 16 17  1  0
 16 33  1  0
 16 34  1  0
 17 35  1  0
 17 36  1  0
M  END
>  <i_m_ct_stereo_status>  (131) 
1

>  <s_m_source_file>  (131) 
/var/tmp/pbs.5076255.sched01/tmpguyree9i/45_f3p7e6s.sdf

>  <i_m_source_file_index>  (131) 
13

>  <i_lp_mmshare_version>  (131) 
48012

>  <i_f3d_flags>  (131) 
0

>  <s_epik_input>  (131) 
W0NIM11bQ0gyXU9DKD1PKS9DKEMjTik9W0NIXS9OMVtDSDJdW0NIMl1OKFtDSDJdW0NIM10pW0NIMl1bQ0gyXTE=

>  <s_epik_cmdline>  (131) 
J2VwaWtfcHl0aG9uJywgJy1waHQnLCAnMi4wJywgJy1waCcsICc3LjAnLCAnLXRuJywgJzgnLCAnLW1hJywgJzIwMCcsICctaW1hZScsICc8aW5maWxlLm1hZT4nLCAnLW9tYWUnLCAnPG91dGZpbGUubWFlPic=

>  <r_lp_tautomer_probability>  (131) 
0.5

>  <r_epik_Ionization_Penalty>  (131) 
0.130494

>  <r_epik_Ionization_Penalty_Charging>  (131) 
0

>  <r_epik_Ionization_Penalty_Neutral>  (131) 
0.130494

>  <r_epik_State_Penalty>  (131) 
0.530573

>  <r_epik_Charging_Adjusted_Penalty>  (131) 
0.530573

>  <i_epik_Tot_Q>  (131) 
0

>  <i_epik_Tot_abs_Q>  (131) 
0

>  <s_epik_Chemistry_Notes>  (131) 
This compound has an ester and may undergo hydrolysis at high or low pH.

>  <s_lp_Force_Field>  (131) 
OPLS3e

>  <r_lp_Energy>  (131) 
20.9299

>  <b_lp_Chiralities_Consistent>  (131) 
1

>  <s_lp_Variant>  (131) 
39:0-2

>  <s_i_glide_gridfile>  (131) 
pfpi4k_grid

>  <i_i_glide_lignum>  (131) 
13

>  <i_i_glide_rotatable_bonds>  (131) 
6

>  <r_i_docking_score>  (131) 
-2.55471

>  <r_i_glide_ligand_efficiency>  (131) 
-0.150277

>  <r_i_glide_ligand_efficiency_sa>  (131) 
-0.386404

>  <r_i_glide_ligand_efficiency_ln>  (131) 
-0.666466

>  <r_i_glide_gscore>  (131) 
-2.55471

>  <r_i_glide_lipo>  (131) 
-0.594362

>  <r_i_glide_hbond>  (131) 
0

>  <r_i_glide_metal>  (131) 
-0

>  <r_i_glide_rewards>  (131) 
-1.84819

>  <r_i_glide_evdw>  (131) 
-19.4276

>  <r_i_glide_ecoul>  (131) 
-2.2298

>  <r_i_glide_erotb>  (131) 
1.22438

>  <r_i_glide_esite>  (131) 
-0.0306866

>  <r_i_glide_emodel>  (131) 
-20.352

>  <r_i_glide_energy>  (131) 
-21.6574

>  <r_i_glide_einternal>  (131) 
7.35941

>  <r_i_glide_intrahb_reward>  (131) 
-0

>  <i_i_glide_confnum>  (131) 
5

>  <i_i_glide_posenum>  (131) 
36

>  <r_i_glide_eff_state_penalty>  (131) 
0

>  <ligand_id>  (131) 
39

>  <original_smiles>  (131) 
CCOC(=O)C(C#N)=CN1CCN(CC)CC1

>  <smiles>  (131) 
[H]C(=C(C#N)C(=O)OC([H])([H])C([H])([H])[H])N1C([H])([H])C([H])([H])N(C([H])([H])C([H])([H])[H])C([H])([H])C1([H])[H]

$$$$
39:1:2
     RDKit          3D

 36 36  0  0  1  0  0  0  0  0999 V2000
    5.2282   -0.3251    3.5227 C   0  0  0  0  0  0  0  0  0  0  0  0
    3.7601   -0.7003    3.2441 C   0  0  0  0  0  0  0  0  0  0  0  0
    3.6552   -2.0100    2.7105 O   0  0  0  0  0  0  0  0  0  0  0  0
    3.9310   -2.2144    1.4142 C   0  0  0  0  0  0  0  0  0  0  0  0
    4.3235   -1.3122    0.6813 O   0  0  0  0  0  0  0  0  0  0  0  0
    3.7200   -3.6171    1.0041 C   0  0  0  0  0  0  0  0  0  0  0  0
    3.4015   -4.6255    1.9639 C   0  0  0  0  0  0  0  0  0  0  0  0
    3.1277   -5.4221    2.7581 N   0  0  0  0  0  0  0  0  0  0  0  0
    3.8051   -4.0295   -0.2905 C   0  0  0  0  0  0  0  0  0  0  0  0
    4.0975   -3.3483   -1.4684 N   0  0  0  0  0  0  0  0  0  0  0  0
    3.2334   -3.4036   -2.6430 C   0  0  0  0  0  0  0  0  0  0  0  0
    2.8577   -1.9931   -3.1073 C   0  0  0  0  0  0  0  0  0  0  0  0
    4.0645   -1.2224   -3.4542 N   0  0  0  0  0  0  0  0  0  0  0  0
    3.6772    0.1377   -3.8362 C   0  0  0  0  0  0  0  0  0  0  0  0
    3.0787    0.1908   -5.2431 C   0  0  0  0  0  0  0  0  0  0  0  0
    4.8564   -1.1225   -2.2250 C   0  0  0  0  0  0  0  0  0  0  0  0
    5.2739   -2.5339   -1.7369 C   0  0  0  0  0  0  0  0  0  0  0  0
    5.2865    0.6803    3.9345 H   0  0  0  0  0  0  0  0  0  0  0  0
    5.8518   -0.3344    2.6257 H   0  0  0  0  0  0  0  0  0  0  0  0
    5.6698   -1.0170    4.2366 H   0  0  0  0  0  0  0  0  0  0  0  0
    3.1595   -0.6474    4.1560 H   0  0  0  0  0  0  0  0  0  0  0  0
    3.3208    0.0050    2.5371 H   0  0  0  0  0  0  0  0  0  0  0  0
    3.6189   -5.0715   -0.4880 H   0  0  0  0  0  0  0  0  0  0  0  0
    3.7263   -3.9441   -3.4534 H   0  0  0  0  0  0  0  0  0  0  0  0
    2.3129   -3.9287   -2.3933 H   0  0  0  0  0  0  0  0  0  0  0  0
    2.1952   -2.1069   -3.9624 H   0  0  0  0  0  0  0  0  0  0  0  0
    2.2872   -1.4967   -2.3210 H   0  0  0  0  0  0  0  0  0  0  0  0
    2.9622    0.5346   -3.1252 H   0  0  0  0  0  0  0  0  0  0  0  0
    4.5352    0.8059   -3.7894 H   0  0  0  0  0  0  0  0  0  0  0  0
    2.7397    1.1999   -5.4811 H   0  0  0  0  0  0  0  0  0  0  0  0
    2.2053   -0.4506   -5.3130 H   0  0  0  0  0  0  0  0  0  0  0  0
    3.8026   -0.1268   -5.9910 H   0  0  0  0  0  0  0  0  0  0  0  0
    5.7537   -0.5227   -2.3629 H   0  0  0  0  0  0  0  0  0  0  0  0
    4.2463   -0.5852   -1.5030 H   0  0  0  0  0  0  0  0  0  0  0  0
    5.8700   -2.4817   -0.8265 H   0  0  0  0  0  0  0  0  0  0  0  0
    5.9019   -3.0307   -2.4794 H   0  0  0  0  0  0  0  0  0  0  0  0
  1  2  1  0
  1 18  1  0
  1 19  1  0
  1 20  1  0
  2  3  1  0
  2 21  1  0
  2 22  1  0
  3  4  1  0
  4  5  2  0
  4  6  1  0
  6  7  1  0
  6  9  2  3
  7  8  3  0
  9 10  1  0
  9 23  1  0
 10 17  1  0
 10 11  1  0
 11 12  1  0
 11 24  1  0
 11 25  1  0
 12 13  1  0
 12 26  1  0
 12 27  1  0
 13 14  1  0
 13 16  1  0
 14 15  1  0
 14 28  1  0
 14 29  1  0
 15 30  1  0
 15 31  1  0
 15 32  1  0
 16 17  1  0
 16 33  1  0
 16 34  1  0
 17 35  1  0
 17 36  1  0
M  END
>  <i_m_ct_stereo_status>  (132) 
1

>  <s_m_source_file>  (132) 
/var/tmp/pbs.5076255.sched01/tmpguyree9i/45_f3p7e6s.sdf

>  <i_m_source_file_index>  (132) 
13

>  <i_lp_mmshare_version>  (132) 
48012

>  <i_f3d_flags>  (132) 
0

>  <s_epik_input>  (132) 
W0NIM11bQ0gyXU9DKD1PKS9DKEMjTik9W0NIXS9OMVtDSDJdW0NIMl1OKFtDSDJdW0NIM10pW0NIMl1bQ0gyXTE=

>  <s_epik_cmdline>  (132) 
J2VwaWtfcHl0aG9uJywgJy1waHQnLCAnMi4wJywgJy1waCcsICc3LjAnLCAnLXRuJywgJzgnLCAnLW1hJywgJzIwMCcsICctaW1hZScsICc8aW5maWxlLm1hZT4nLCAnLW9tYWUnLCAnPG91dGZpbGUubWFlPic=

>  <r_lp_tautomer_probability>  (132) 
0.5

>  <r_epik_Ionization_Penalty>  (132) 
0.130494

>  <r_epik_Ionization_Penalty_Charging>  (132) 
0

>  <r_epik_Ionization_Penalty_Neutral>  (132) 
0.130494

>  <r_epik_State_Penalty>  (132) 
0.530573

>  <r_epik_Charging_Adjusted_Penalty>  (132) 
0.530573

>  <i_epik_Tot_Q>  (132) 
0

>  <i_epik_Tot_abs_Q>  (132) 
0

>  <s_epik_Chemistry_Notes>  (132) 
This compound has an ester and may undergo hydrolysis at high or low pH.

>  <s_lp_Force_Field>  (132) 
OPLS3e

>  <r_lp_Energy>  (132) 
20.9299

>  <b_lp_Chiralities_Consistent>  (132) 
1

>  <s_lp_Variant>  (132) 
39:0-2

>  <s_i_glide_gridfile>  (132) 
pfpi4k_grid

>  <i_i_glide_lignum>  (132) 
13

>  <i_i_glide_rotatable_bonds>  (132) 
6

>  <r_i_docking_score>  (132) 
-2.29155

>  <r_i_glide_ligand_efficiency>  (132) 
-0.134797

>  <r_i_glide_ligand_efficiency_sa>  (132) 
-0.346601

>  <r_i_glide_ligand_efficiency_ln>  (132) 
-0.597814

>  <r_i_glide_gscore>  (132) 
-2.29155

>  <r_i_glide_lipo>  (132) 
-0.356837

>  <r_i_glide_hbond>  (132) 
0

>  <r_i_glide_metal>  (132) 
-0

>  <r_i_glide_rewards>  (132) 
-1.79479

>  <r_i_glide_evdw>  (132) 
-19.7011

>  <r_i_glide_ecoul>  (132) 
-2.40162

>  <r_i_glide_erotb>  (132) 
1.22438

>  <r_i_glide_esite>  (132) 
-0.0190134

>  <r_i_glide_emodel>  (132) 
-22.7199

>  <r_i_glide_energy>  (132) 
-22.1027

>  <r_i_glide_einternal>  (132) 
3.4626

>  <r_i_glide_intrahb_reward>  (132) 
-0

>  <i_i_glide_confnum>  (132) 
5

>  <i_i_glide_posenum>  (132) 
26

>  <r_i_glide_eff_state_penalty>  (132) 
0

>  <ligand_id>  (132) 
39

>  <original_smiles>  (132) 
CCOC(=O)C(C#N)=CN1CCN(CC)CC1

>  <smiles>  (132) 
[H]C(=C(C#N)C(=O)OC([H])([H])C([H])([H])[H])N1C([H])([H])C([H])([H])N(C([H])([H])C([H])([H])[H])C([H])([H])C1([H])[H]

$$$$
39:2:0
     RDKit          3D

 37 37  0  0  1  0  0  0  0  0999 V2000
    8.2693   -2.8941   -0.1031 C   0  0  0  0  0  0  0  0  0  0  0  0
    8.2185   -4.2172    0.6721 C   0  0  0  0  0  0  0  0  0  0  0  0
    6.8838   -4.6753    0.7048 O   0  0  0  0  0  0  0  0  0  0  0  0
    6.5791   -5.8607    1.2693 C   0  0  0  0  0  0  0  0  0  0  0  0
    7.3892   -6.5896    1.8439 O   0  0  0  0  0  0  0  0  0  0  0  0
    5.1445   -6.1617    1.0974 C   0  0  0  0  0  0  0  0  0  0  0  0
    4.2649   -5.2095    0.4985 C   0  0  0  0  0  0  0  0  0  0  0  0
    3.5522   -4.4087    0.0601 N   0  0  0  0  0  0  0  0  0  0  0  0
    4.6718   -7.3619    1.5267 C   0  0  0  0  0  0  0  0  0  0  0  0
    3.3708   -7.8597    1.4836 N   0  0  0  0  0  0  0  0  0  0  0  0
    3.0990   -9.3004    1.4736 C   0  0  0  0  0  0  0  0  0  0  0  0
    2.1077   -9.7078    2.5822 C   0  0  0  0  0  0  0  0  0  0  0  0
    0.8737   -8.8853    2.5206 N   0  0  0  0  0  0  0  0  0  0  0  0
   -0.1209   -9.2899    3.5476 C   0  0  0  0  0  0  0  0  0  0  0  0
   -1.4963   -8.6396    3.3164 C   0  0  0  0  0  0  0  0  0  0  0  0
    1.2126   -7.4456    2.6117 C   0  0  0  0  0  0  0  0  0  0  0  0
    2.1655   -7.0336    1.5028 C   0  0  0  0  0  0  0  0  0  0  0  0
    9.2908   -2.5131   -0.1410 H   0  0  0  0  0  0  0  0  0  0  0  0
    7.6481   -2.1308    0.3697 H   0  0  0  0  0  0  0  0  0  0  0  0
    7.9267   -3.0219   -1.1317 H   0  0  0  0  0  0  0  0  0  0  0  0
    8.8494   -4.9644    0.1867 H   0  0  0  0  0  0  0  0  0  0  0  0
    8.5795   -4.0727    1.6910 H   0  0  0  0  0  0  0  0  0  0  0  0
    5.3584   -8.0630    1.9817 H   0  0  0  0  0  0  0  0  0  0  0  0
    2.6990   -9.5761    0.4960 H   0  0  0  0  0  0  0  0  0  0  0  0
    4.0224   -9.8772    1.5904 H   0  0  0  0  0  0  0  0  0  0  0  0
    1.8638  -10.7659    2.4841 H   0  0  0  0  0  0  0  0  0  0  0  0
    2.5838   -9.5821    3.5583 H   0  0  0  0  0  0  0  0  0  0  0  0
   -0.2397  -10.3790    3.5315 H   0  0  0  0  0  0  0  0  0  0  0  0
    0.2527   -9.0352    4.5469 H   0  0  0  0  0  0  0  0  0  0  0  0
   -2.2079   -9.0440    4.0355 H   0  0  0  0  0  0  0  0  0  0  0  0
   -1.8735   -8.8494    2.3153 H   0  0  0  0  0  0  0  0  0  0  0  0
   -1.4806   -7.5615    3.4650 H   0  0  0  0  0  0  0  0  0  0  0  0
    0.3385   -6.8075    2.5341 H   0  0  0  0  0  0  0  0  0  0  0  0
    1.6726   -7.2321    3.5776 H   0  0  0  0  0  0  0  0  0  0  0  0
    2.3981   -5.9928    1.7159 H   0  0  0  0  0  0  0  0  0  0  0  0
    1.6691   -7.0667    0.5313 H   0  0  0  0  0  0  0  0  0  0  0  0
    0.4688   -9.0564    1.6070 H   0  0  0  0  0  0  0  0  0  0  0  0
  1  2  1  0
  1 18  1  0
  1 19  1  0
  1 20  1  0
  2  3  1  0
  2 21  1  0
  2 22  1  0
  3  4  1  0
  4  5  2  0
  4  6  1  0
  6  7  1  0
  6  9  2  3
  7  8  3  0
  9 10  1  0
  9 23  1  0
 10 17  1  0
 10 11  1  0
 11 12  1  0
 11 24  1  0
 11 25  1  0
 12 13  1  0
 12 26  1  0
 12 27  1  0
 13 14  1  0
 13 16  1  0
 13 37  1  0
 14 15  1  0
 14 28  1  0
 14 29  1  0
 15 30  1  0
 15 31  1  0
 15 32  1  0
 16 17  1  0
 16 33  1  0
 16 34  1  0
 17 35  1  0
 17 36  1  0
M  CHG  1  13   1
M  END
>  <i_m_ct_stereo_status>  (133) 
1

>  <s_m_source_file>  (133) 
/var/tmp/pbs.5076255.sched01/tmpguyree9i/45_f3p7e6s.sdf

>  <i_m_source_file_index>  (133) 
14

>  <i_lp_mmshare_version>  (133) 
48012

>  <i_f3d_flags>  (133) 
0

>  <s_epik_input>  (133) 
W0NIM11bQ0gyXU9DKD1PKS9DKEMjTik9W0NIXS9OMVtDSDJdW0NIMl1OKFtDSDJdW0NIM10pW0NIMl1bQ0gyXTE=

>  <s_epik_cmdline>  (133) 
J2VwaWtfcHl0aG9uJywgJy1waHQnLCAnMi4wJywgJy1waCcsICc3LjAnLCAnLXRuJywgJzgnLCAnLW1hJywgJzIwMCcsICctaW1hZScsICc8aW5maWxlLm1hZT4nLCAnLW9tYWUnLCAnPG91dGZpbGUubWFlPic=

>  <r_lp_tautomer_probability>  (133) 
0.5

>  <r_epik_Ionization_Penalty>  (133) 
0.960491

>  <r_epik_Ionization_Penalty_Charging>  (133) 
0.96049

>  <r_epik_Ionization_Penalty_Neutral>  (133) 
9.71887e-07

>  <r_epik_State_Penalty>  (133) 
1.41625

>  <r_epik_Charging_Adjusted_Penalty>  (133) 
2.37674

>  <i_epik_Tot_Q>  (133) 
1

>  <i_epik_Tot_abs_Q>  (133) 
1

>  <s_epik_Chemistry_Notes>  (133) 
This compound has an ester and may undergo hydrolysis at high or low pH.

>  <s_lp_Force_Field>  (133) 
OPLS3e

>  <r_lp_Energy>  (133) 
19.8519

>  <b_lp_Chiralities_Consistent>  (133) 
1

>  <s_lp_Variant>  (133) 
39:0-3

>  <s_i_glide_gridfile>  (133) 
pfpi4k_grid

>  <i_i_glide_lignum>  (133) 
14

>  <i_i_glide_rotatable_bonds>  (133) 
6

>  <r_i_docking_score>  (133) 
-2.73071

>  <r_i_glide_ligand_efficiency>  (133) 
-0.16063

>  <r_i_glide_ligand_efficiency_sa>  (133) 
-0.413026

>  <r_i_glide_ligand_efficiency_ln>  (133) 
-0.712382

>  <r_i_glide_gscore>  (133) 
-2.73071

>  <r_i_glide_lipo>  (133) 
-0.462324

>  <r_i_glide_hbond>  (133) 
0

>  <r_i_glide_metal>  (133) 
-0

>  <r_i_glide_rewards>  (133) 
-1.97714

>  <r_i_glide_evdw>  (133) 
-22.7101

>  <r_i_glide_ecoul>  (133) 
-2.41214

>  <r_i_glide_erotb>  (133) 
1.21557

>  <r_i_glide_esite>  (133) 
-0.00950032

>  <r_i_glide_emodel>  (133) 
-29.6491

>  <r_i_glide_energy>  (133) 
-25.1222

>  <r_i_glide_einternal>  (133) 
2.91573

>  <r_i_glide_intrahb_reward>  (133) 
-0

>  <i_i_glide_confnum>  (133) 
2

>  <i_i_glide_posenum>  (133) 
6

>  <r_i_glide_eff_state_penalty>  (133) 
0

>  <ligand_id>  (133) 
39

>  <original_smiles>  (133) 
CCOC(=O)C(C#N)=CN1CCN(CC)CC1

>  <smiles>  (133) 
[H]C(=C(C#N)C(=O)OC([H])([H])C([H])([H])[H])N1C([H])([H])C([H])([H])[N+]([H])(C([H])([H])C([H])([H])[H])C([H])([H])C1([H])[H]

$$$$
39:2:1
     RDKit          3D

 37 37  0  0  1  0  0  0  0  0999 V2000
    8.6170   -3.9020   -0.4231 C   0  0  0  0  0  0  0  0  0  0  0  0
    8.2045   -4.1812    1.0234 C   0  0  0  0  0  0  0  0  0  0  0  0
    7.2194   -5.1955    1.1046 O   0  0  0  0  0  0  0  0  0  0  0  0
    5.9128   -4.8918    0.9141 C   0  0  0  0  0  0  0  0  0  0  0  0
    5.5171   -3.7736    0.5861 O   0  0  0  0  0  0  0  0  0  0  0  0
    4.9922   -6.0270    1.1649 C   0  0  0  0  0  0  0  0  0  0  0  0
    3.5939   -5.9142    0.8693 C   0  0  0  0  0  0  0  0  0  0  0  0
    2.4529   -5.8270    0.6802 N   0  0  0  0  0  0  0  0  0  0  0  0
    5.4883   -7.1687    1.6925 C   0  0  0  0  0  0  0  0  0  0  0  0
    4.7950   -8.3280    1.9833 N   0  0  0  0  0  0  0  0  0  0  0  0
    4.8515   -8.9312    3.3081 C   0  0  0  0  0  0  0  0  0  0  0  0
    3.4367   -9.1562    3.8602 C   0  0  0  0  0  0  0  0  0  0  0  0
    2.5912   -9.9276    2.9095 N   0  0  0  0  0  0  0  0  0  0  0  0
    1.2328  -10.2015    3.4382 C   0  0  0  0  0  0  0  0  0  0  0  0
    1.2265  -11.3079    4.5020 C   0  0  0  0  0  0  0  0  0  0  0  0
    2.5585   -9.2712    1.5837 C   0  0  0  0  0  0  0  0  0  0  0  0
    3.9786   -9.0469    1.0301 C   0  0  0  0  0  0  0  0  0  0  0  0
    9.3827   -3.1254   -0.4697 H   0  0  0  0  0  0  0  0  0  0  0  0
    7.7774   -3.5683   -1.0309 H   0  0  0  0  0  0  0  0  0  0  0  0
    9.0247   -4.7990   -0.8874 H   0  0  0  0  0  0  0  0  0  0  0  0
    9.0671   -4.4992    1.6061 H   0  0  0  0  0  0  0  0  0  0  0  0
    7.8259   -3.2707    1.4815 H   0  0  0  0  0  0  0  0  0  0  0  0
    6.5246   -7.2860    1.9364 H   0  0  0  0  0  0  0  0  0  0  0  0
    5.4054   -9.8708    3.2521 H   0  0  0  0  0  0  0  0  0  0  0  0
    5.4004   -8.2811    3.9903 H   0  0  0  0  0  0  0  0  0  0  0  0
    3.5220   -9.6406    4.8350 H   0  0  0  0  0  0  0  0  0  0  0  0
    2.9759   -8.1831    4.0364 H   0  0  0  0  0  0  0  0  0  0  0  0
    0.7848   -9.2851    3.8441 H   0  0  0  0  0  0  0  0  0  0  0  0
    0.5513  -10.5262    2.6389 H   0  0  0  0  0  0  0  0  0  0  0  0
    0.2315  -11.4030    4.9368 H   0  0  0  0  0  0  0  0  0  0  0  0
    1.9162  -11.1222    5.3233 H   0  0  0  0  0  0  0  0  0  0  0  0
    1.4947  -12.2608    4.0521 H   0  0  0  0  0  0  0  0  0  0  0  0
    1.9900   -9.8651    0.8704 H   0  0  0  0  0  0  0  0  0  0  0  0
    2.0454   -8.3144    1.6746 H   0  0  0  0  0  0  0  0  0  0  0  0
    3.9450   -8.5029    0.0839 H   0  0  0  0  0  0  0  0  0  0  0  0
    4.4653  -10.0015    0.8053 H   0  0  0  0  0  0  0  0  0  0  0  0
    3.0433  -10.8221    2.7498 H   0  0  0  0  0  0  0  0  0  0  0  0
  1  2  1  0
  1 18  1  0
  1 19  1  0
  1 20  1  0
  2  3  1  0
  2 21  1  0
  2 22  1  0
  3  4  1  0
  4  5  2  0
  4  6  1  0
  6  7  1  0
  6  9  2  3
  7  8  3  0
  9 10  1  0
  9 23  1  0
 10 17  1  0
 10 11  1  0
 11 12  1  0
 11 24  1  0
 11 25  1  0
 12 13  1  0
 12 26  1  0
 12 27  1  0
 13 14  1  0
 13 16  1  0
 13 37  1  0
 14 15  1  0
 14 28  1  0
 14 29  1  0
 15 30  1  0
 15 31  1  0
 15 32  1  0
 16 17  1  0
 16 33  1  0
 16 34  1  0
 17 35  1  0
 17 36  1  0
M  CHG  1  13   1
M  END
>  <i_m_ct_stereo_status>  (134) 
1

>  <s_m_source_file>  (134) 
/var/tmp/pbs.5076255.sched01/tmpguyree9i/45_f3p7e6s.sdf

>  <i_m_source_file_index>  (134) 
14

>  <i_lp_mmshare_version>  (134) 
48012

>  <i_f3d_flags>  (134) 
0

>  <s_epik_input>  (134) 
W0NIM11bQ0gyXU9DKD1PKS9DKEMjTik9W0NIXS9OMVtDSDJdW0NIMl1OKFtDSDJdW0NIM10pW0NIMl1bQ0gyXTE=

>  <s_epik_cmdline>  (134) 
J2VwaWtfcHl0aG9uJywgJy1waHQnLCAnMi4wJywgJy1waCcsICc3LjAnLCAnLXRuJywgJzgnLCAnLW1hJywgJzIwMCcsICctaW1hZScsICc8aW5maWxlLm1hZT4nLCAnLW9tYWUnLCAnPG91dGZpbGUubWFlPic=

>  <r_lp_tautomer_probability>  (134) 
0.5

>  <r_epik_Ionization_Penalty>  (134) 
0.960491

>  <r_epik_Ionization_Penalty_Charging>  (134) 
0.96049

>  <r_epik_Ionization_Penalty_Neutral>  (134) 
9.71887e-07

>  <r_epik_State_Penalty>  (134) 
1.41625

>  <r_epik_Charging_Adjusted_Penalty>  (134) 
2.37674

>  <i_epik_Tot_Q>  (134) 
1

>  <i_epik_Tot_abs_Q>  (134) 
1

>  <s_epik_Chemistry_Notes>  (134) 
This compound has an ester and may undergo hydrolysis at high or low pH.

>  <s_lp_Force_Field>  (134) 
OPLS3e

>  <r_lp_Energy>  (134) 
19.8519

>  <b_lp_Chiralities_Consistent>  (134) 
1

>  <s_lp_Variant>  (134) 
39:0-3

>  <s_i_glide_gridfile>  (134) 
pfpi4k_grid

>  <i_i_glide_lignum>  (134) 
14

>  <i_i_glide_rotatable_bonds>  (134) 
6

>  <r_i_docking_score>  (134) 
-2.66232

>  <r_i_glide_ligand_efficiency>  (134) 
-0.156607

>  <r_i_glide_ligand_efficiency_sa>  (134) 
-0.40268

>  <r_i_glide_ligand_efficiency_ln>  (134) 
-0.694539

>  <r_i_glide_gscore>  (134) 
-2.66232

>  <r_i_glide_lipo>  (134) 
-0.416248

>  <r_i_glide_hbond>  (134) 
0

>  <r_i_glide_metal>  (134) 
-0

>  <r_i_glide_rewards>  (134) 
-1.95455

>  <r_i_glide_evdw>  (134) 
-19.1408

>  <r_i_glide_ecoul>  (134) 
-3.61865

>  <r_i_glide_erotb>  (134) 
1.21557

>  <r_i_glide_esite>  (134) 
-0.00725479

>  <r_i_glide_emodel>  (134) 
-27.8755

>  <r_i_glide_energy>  (134) 
-22.7595

>  <r_i_glide_einternal>  (134) 
1.77203

>  <r_i_glide_intrahb_reward>  (134) 
-0

>  <i_i_glide_confnum>  (134) 
4

>  <i_i_glide_posenum>  (134) 
22

>  <r_i_glide_eff_state_penalty>  (134) 
0

>  <ligand_id>  (134) 
39

>  <original_smiles>  (134) 
CCOC(=O)C(C#N)=CN1CCN(CC)CC1

>  <smiles>  (134) 
[H]C(=C(C#N)C(=O)OC([H])([H])C([H])([H])[H])N1C([H])([H])C([H])([H])[N+]([H])(C([H])([H])C([H])([H])[H])C([H])([H])C1([H])[H]

$$$$
39:2:2
     RDKit          3D

 37 37  0  0  1  0  0  0  0  0999 V2000
    3.8197   -1.7366   -0.6446 C   0  0  0  0  0  0  0  0  0  0  0  0
    3.2570   -3.0370   -1.2342 C   0  0  0  0  0  0  0  0  0  0  0  0
    3.1952   -4.0519   -0.2443 O   0  0  0  0  0  0  0  0  0  0  0  0
    4.2994   -4.7765    0.0538 C   0  0  0  0  0  0  0  0  0  0  0  0
    5.4055   -4.5663   -0.4400 O   0  0  0  0  0  0  0  0  0  0  0  0
    4.0502   -5.8691    1.0272 C   0  0  0  0  0  0  0  0  0  0  0  0
    5.1082   -6.7751    1.3600 C   0  0  0  0  0  0  0  0  0  0  0  0
    5.9606   -7.5034    1.6468 N   0  0  0  0  0  0  0  0  0  0  0  0
    2.8336   -5.9917    1.6072 C   0  0  0  0  0  0  0  0  0  0  0  0
    2.4174   -6.9063    2.5680 N   0  0  0  0  0  0  0  0  0  0  0  0
    1.0807   -7.4841    2.5095 C   0  0  0  0  0  0  0  0  0  0  0  0
    1.1415   -9.0179    2.4990 C   0  0  0  0  0  0  0  0  0  0  0  0
    1.9565   -9.5407    3.6307 N   0  0  0  0  0  0  0  0  0  0  0  0
    1.9935  -11.0171    3.6888 C   0  0  0  0  0  0  0  0  0  0  0  0
    0.6850  -11.5824    4.2474 C   0  0  0  0  0  0  0  0  0  0  0  0
    3.3112   -8.9359    3.6403 C   0  0  0  0  0  0  0  0  0  0  0  0
    3.2237   -7.3993    3.6786 C   0  0  0  0  0  0  0  0  0  0  0  0
    3.8557   -0.9511   -1.3988 H   0  0  0  0  0  0  0  0  0  0  0  0
    4.8320   -1.8664   -0.2565 H   0  0  0  0  0  0  0  0  0  0  0  0
    3.1947   -1.3793    0.1731 H   0  0  0  0  0  0  0  0  0  0  0  0
    2.2481   -2.8653   -1.6025 H   0  0  0  0  0  0  0  0  0  0  0  0
    3.8506   -3.3696   -2.0859 H   0  0  0  0  0  0  0  0  0  0  0  0
    2.0358   -5.3204    1.3612 H   0  0  0  0  0  0  0  0  0  0  0  0
    0.4988   -7.1155    3.3573 H   0  0  0  0  0  0  0  0  0  0  0  0
    0.5554   -7.1498    1.6122 H   0  0  0  0  0  0  0  0  0  0  0  0
    0.1181   -9.3974    2.5071 H   0  0  0  0  0  0  0  0  0  0  0  0
    1.5830   -9.3427    1.5559 H   0  0  0  0  0  0  0  0  0  0  0  0
    2.2123  -11.4414    2.6966 H   0  0  0  0  0  0  0  0  0  0  0  0
    2.7986  -11.3769    4.3440 H   0  0  0  0  0  0  0  0  0  0  0  0
    0.6900  -12.6603    4.1625 H   0  0  0  0  0  0  0  0  0  0  0  0
   -0.1825  -11.2233    3.7013 H   0  0  0  0  0  0  0  0  0  0  0  0
    0.5558  -11.3398    5.2998 H   0  0  0  0  0  0  0  0  0  0  0  0
    3.8901   -9.2823    4.4971 H   0  0  0  0  0  0  0  0  0  0  0  0
    3.8464   -9.2557    2.7445 H   0  0  0  0  0  0  0  0  0  0  0  0
    4.2261   -6.9659    3.6626 H   0  0  0  0  0  0  0  0  0  0  0  0
    2.7919   -7.0588    4.6274 H   0  0  0  0  0  0  0  0  0  0  0  0
    1.5147   -9.2296    4.4847 H   0  0  0  0  0  0  0  0  0  0  0  0
  1  2  1  0
  1 18  1  0
  1 19  1  0
  1 20  1  0
  2  3  1  0
  2 21  1  0
  2 22  1  0
  3  4  1  0
  4  5  2  0
  4  6  1  0
  6  7  1  0
  6  9  2  3
  7  8  3  0
  9 10  1  0
  9 23  1  0
 10 17  1  0
 10 11  1  0
 11 12  1  0
 11 24  1  0
 11 25  1  0
 12 13  1  0
 12 26  1  0
 12 27  1  0
 13 14  1  0
 13 16  1  0
 13 37  1  0
 14 15  1  0
 14 28  1  0
 14 29  1  0
 15 30  1  0
 15 31  1  0
 15 32  1  0
 16 17  1  0
 16 33  1  0
 16 34  1  0
 17 35  1  0
 17 36  1  0
M  CHG  1  13   1
M  END
>  <i_m_ct_stereo_status>  (135) 
1

>  <s_m_source_file>  (135) 
/var/tmp/pbs.5076255.sched01/tmpguyree9i/45_f3p7e6s.sdf

>  <i_m_source_file_index>  (135) 
14

>  <i_lp_mmshare_version>  (135) 
48012

>  <i_f3d_flags>  (135) 
0

>  <s_epik_input>  (135) 
W0NIM11bQ0gyXU9DKD1PKS9DKEMjTik9W0NIXS9OMVtDSDJdW0NIMl1OKFtDSDJdW0NIM10pW0NIMl1bQ0gyXTE=

>  <s_epik_cmdline>  (135) 
J2VwaWtfcHl0aG9uJywgJy1waHQnLCAnMi4wJywgJy1waCcsICc3LjAnLCAnLXRuJywgJzgnLCAnLW1hJywgJzIwMCcsICctaW1hZScsICc8aW5maWxlLm1hZT4nLCAnLW9tYWUnLCAnPG91dGZpbGUubWFlPic=

>  <r_lp_tautomer_probability>  (135) 
0.5

>  <r_epik_Ionization_Penalty>  (135) 
0.960491

>  <r_epik_Ionization_Penalty_Charging>  (135) 
0.96049

>  <r_epik_Ionization_Penalty_Neutral>  (135) 
9.71887e-07

>  <r_epik_State_Penalty>  (135) 
1.41625

>  <r_epik_Charging_Adjusted_Penalty>  (135) 
2.37674

>  <i_epik_Tot_Q>  (135) 
1

>  <i_epik_Tot_abs_Q>  (135) 
1

>  <s_epik_Chemistry_Notes>  (135) 
This compound has an ester and may undergo hydrolysis at high or low pH.

>  <s_lp_Force_Field>  (135) 
OPLS3e

>  <r_lp_Energy>  (135) 
19.8519

>  <b_lp_Chiralities_Consistent>  (135) 
1

>  <s_lp_Variant>  (135) 
39:0-3

>  <s_i_glide_gridfile>  (135) 
pfpi4k_grid

>  <i_i_glide_lignum>  (135) 
14

>  <i_i_glide_rotatable_bonds>  (135) 
6

>  <r_i_docking_score>  (135) 
-2.38004

>  <r_i_glide_ligand_efficiency>  (135) 
-0.140002

>  <r_i_glide_ligand_efficiency_sa>  (135) 
-0.359985

>  <r_i_glide_ligand_efficiency_ln>  (135) 
-0.620899

>  <r_i_glide_gscore>  (135) 
-2.38004

>  <r_i_glide_lipo>  (135) 
-0.136213

>  <r_i_glide_hbond>  (135) 
0

>  <r_i_glide_metal>  (135) 
-0

>  <r_i_glide_rewards>  (135) 
-1.90332

>  <r_i_glide_evdw>  (135) 
-19.0567

>  <r_i_glide_ecoul>  (135) 
-3.90368

>  <r_i_glide_erotb>  (135) 
1.21557

>  <r_i_glide_esite>  (135) 
-0.0176892

>  <r_i_glide_emodel>  (135) 
-27.7891

>  <r_i_glide_energy>  (135) 
-22.9604

>  <r_i_glide_einternal>  (135) 
1.0918

>  <r_i_glide_intrahb_reward>  (135) 
-0

>  <i_i_glide_confnum>  (135) 
4

>  <i_i_glide_posenum>  (135) 
27

>  <r_i_glide_eff_state_penalty>  (135) 
0

>  <ligand_id>  (135) 
39

>  <original_smiles>  (135) 
CCOC(=O)C(C#N)=CN1CCN(CC)CC1

>  <smiles>  (135) 
[H]C(=C(C#N)C(=O)OC([H])([H])C([H])([H])[H])N1C([H])([H])C([H])([H])[N+]([H])(C([H])([H])C([H])([H])[H])C([H])([H])C1([H])[H]

$$$$
39:3:0
     RDKit          3D

 37 37  0  0  1  0  0  0  0  0999 V2000
   -0.8697   -7.9833    3.0368 C   0  0  0  0  0  0  0  0  0  0  0  0
    0.3251   -8.1920    2.1029 C   0  0  0  0  0  0  0  0  0  0  0  0
    1.4424   -7.4280    2.5350 O   0  0  0  0  0  0  0  0  0  0  0  0
    1.7415   -6.2867    1.9141 C   0  0  0  0  0  0  0  0  0  0  0  0
    1.0804   -5.8486    0.9765 O   0  0  0  0  0  0  0  0  0  0  0  0
    2.9153   -5.6100    2.5377 C   0  0  0  0  0  0  0  0  0  0  0  0
    3.5685   -6.1626    3.6718 C   0  0  0  0  0  0  0  0  0  0  0  0
    4.0664   -6.6075    4.6275 N   0  0  0  0  0  0  0  0  0  0  0  0
    3.4208   -4.4282    2.0911 C   0  0  0  0  0  0  0  0  0  0  0  0
    3.0698   -3.6166    1.0271 N   0  0  0  0  0  0  0  0  0  0  0  0
    2.9900   -2.1596    1.1578 C   0  0  0  0  0  0  0  0  0  0  0  0
    3.8212   -1.4449    0.0672 C   0  0  0  0  0  0  0  0  0  0  0  0
    3.4614   -1.9262   -1.2828 N   0  0  0  0  0  0  0  0  0  0  0  0
    4.2120   -1.2080   -2.3587 C   0  0  0  0  0  0  0  0  0  0  0  0
    3.6091   -1.4356   -3.7519 C   0  0  0  0  0  0  0  0  0  0  0  0
    3.6510   -3.3939   -1.3795 C   0  0  0  0  0  0  0  0  0  0  0  0
    2.8173   -4.1077   -0.3199 C   0  0  0  0  0  0  0  0  0  0  0  0
   -1.7158   -8.5780    2.6890 H   0  0  0  0  0  0  0  0  0  0  0  0
   -1.1836   -6.9380    3.0718 H   0  0  0  0  0  0  0  0  0  0  0  0
   -0.6208   -8.3028    4.0479 H   0  0  0  0  0  0  0  0  0  0  0  0
    0.6318   -9.2360    2.0770 H   0  0  0  0  0  0  0  0  0  0  0  0
    0.0193   -7.9439    1.0862 H   0  0  0  0  0  0  0  0  0  0  0  0
    4.2636   -4.0150    2.6387 H   0  0  0  0  0  0  0  0  0  0  0  0
    1.9417   -1.8745    1.0853 H   0  0  0  0  0  0  0  0  0  0  0  0
    3.3373   -1.8376    2.1441 H   0  0  0  0  0  0  0  0  0  0  0  0
    3.6607   -0.3660    0.1496 H   0  0  0  0  0  0  0  0  0  0  0  0
    4.8804   -1.6278    0.2499 H   0  0  0  0  0  0  0  0  0  0  0  0
    4.2236   -0.1326   -2.1611 H   0  0  0  0  0  0  0  0  0  0  0  0
    5.2545   -1.5239   -2.3580 H   0  0  0  0  0  0  0  0  0  0  0  0
    4.1332   -0.8211   -4.4872 H   0  0  0  0  0  0  0  0  0  0  0  0
    2.5579   -1.1582   -3.7709 H   0  0  0  0  0  0  0  0  0  0  0  0
    3.6877   -2.4706   -4.0823 H   0  0  0  0  0  0  0  0  0  0  0  0
    3.3384   -3.8037   -2.3404 H   0  0  0  0  0  0  0  0  0  0  0  0
    4.6974   -3.6630   -1.2480 H   0  0  0  0  0  0  0  0  0  0  0  0
    3.0747   -5.1617   -0.3797 H   0  0  0  0  0  0  0  0  0  0  0  0
    1.7699   -3.9740   -0.5772 H   0  0  0  0  0  0  0  0  0  0  0  0
    2.4757   -1.7190   -1.3814 H   0  0  0  0  0  0  0  0  0  0  0  0
  1  2  1  0
  1 18  1  0
  1 19  1  0
  1 20  1  0
  2  3  1  0
  2 21  1  0
  2 22  1  0
  3  4  1  0
  4  5  2  0
  4  6  1  0
  6  7  1  0
  6  9  2  3
  7  8  3  0
  9 10  1  0
  9 23  1  0
 10 17  1  0
 10 11  1  0
 11 12  1  0
 11 24  1  0
 11 25  1  0
 12 13  1  0
 12 26  1  0
 12 27  1  0
 13 14  1  0
 13 16  1  0
 13 37  1  0
 14 15  1  0
 14 28  1  0
 14 29  1  0
 15 30  1  0
 15 31  1  0
 15 32  1  0
 16 17  1  0
 16 33  1  0
 16 34  1  0
 17 35  1  0
 17 36  1  0
M  CHG  1  13   1
M  END
>  <i_m_ct_stereo_status>  (136) 
1

>  <s_m_source_file>  (136) 
/var/tmp/pbs.5076255.sched01/tmpguyree9i/45_f3p7e6s.sdf

>  <i_m_source_file_index>  (136) 
15

>  <i_lp_mmshare_version>  (136) 
48012

>  <i_f3d_flags>  (136) 
0

>  <s_epik_input>  (136) 
W0NIM11bQ0gyXU9DKD1PKS9DKEMjTik9W0NIXS9OMVtDSDJdW0NIMl1OKFtDSDJdW0NIM10pW0NIMl1bQ0gyXTE=

>  <s_epik_cmdline>  (136) 
J2VwaWtfcHl0aG9uJywgJy1waHQnLCAnMi4wJywgJy1waCcsICc3LjAnLCAnLXRuJywgJzgnLCAnLW1hJywgJzIwMCcsICctaW1hZScsICc8aW5maWxlLm1hZT4nLCAnLW9tYWUnLCAnPG91dGZpbGUubWFlPic=

>  <r_lp_tautomer_probability>  (136) 
0.5

>  <r_epik_Ionization_Penalty>  (136) 
0.960491

>  <r_epik_Ionization_Penalty_Charging>  (136) 
0.96049

>  <r_epik_Ionization_Penalty_Neutral>  (136) 
9.71887e-07

>  <r_epik_State_Penalty>  (136) 
1.41625

>  <r_epik_Charging_Adjusted_Penalty>  (136) 
2.37674

>  <i_epik_Tot_Q>  (136) 
1

>  <i_epik_Tot_abs_Q>  (136) 
1

>  <s_epik_Chemistry_Notes>  (136) 
This compound has an ester and may undergo hydrolysis at high or low pH.

>  <s_lp_Force_Field>  (136) 
OPLS3e

>  <r_lp_Energy>  (136) 
21.7574

>  <b_lp_Chiralities_Consistent>  (136) 
1

>  <s_lp_Variant>  (136) 
39:0-4

>  <s_i_glide_gridfile>  (136) 
pfpi4k_grid

>  <i_i_glide_lignum>  (136) 
15

>  <i_i_glide_rotatable_bonds>  (136) 
6

>  <r_i_docking_score>  (136) 
-3.51301

>  <r_i_glide_ligand_efficiency>  (136) 
-0.206648

>  <r_i_glide_ligand_efficiency_sa>  (136) 
-0.531349

>  <r_i_glide_ligand_efficiency_ln>  (136) 
-0.916466

>  <r_i_glide_gscore>  (136) 
-3.51301

>  <r_i_glide_lipo>  (136) 
-0.202875

>  <r_i_glide_hbond>  (136) 
-0.36

>  <r_i_glide_metal>  (136) 
-0

>  <r_i_glide_rewards>  (136) 
-1.78428

>  <r_i_glide_evdw>  (136) 
-19.2766

>  <r_i_glide_ecoul>  (136) 
-8.65248

>  <r_i_glide_erotb>  (136) 
1.21557

>  <r_i_glide_esite>  (136) 
-0.119729

>  <r_i_glide_emodel>  (136) 
-33.1758

>  <r_i_glide_energy>  (136) 
-27.9291

>  <r_i_glide_einternal>  (136) 
2.57442

>  <r_i_glide_intrahb_reward>  (136) 
-0

>  <i_i_glide_confnum>  (136) 
3

>  <i_i_glide_posenum>  (136) 
18

>  <r_i_glide_eff_state_penalty>  (136) 
0

>  <ligand_id>  (136) 
39

>  <original_smiles>  (136) 
CCOC(=O)C(C#N)=CN1CCN(CC)CC1

>  <smiles>  (136) 
[H]C(=C(C#N)C(=O)OC([H])([H])C([H])([H])[H])N1C([H])([H])C([H])([H])[N+]([H])(C([H])([H])C([H])([H])[H])C([H])([H])C1([H])[H]

$$$$
39:3:1
     RDKit          3D

 37 37  0  0  1  0  0  0  0  0999 V2000
   -1.7456   -8.2480    2.9546 C   0  0  0  0  0  0  0  0  0  0  0  0
   -0.2397   -8.4621    2.7415 C   0  0  0  0  0  0  0  0  0  0  0  0
    0.5072   -7.3938    3.3035 O   0  0  0  0  0  0  0  0  0  0  0  0
    0.8903   -6.3781    2.5339 C   0  0  0  0  0  0  0  0  0  0  0  0
    0.5658   -6.2635    1.3561 O   0  0  0  0  0  0  0  0  0  0  0  0
    1.6843   -5.3843    3.3153 C   0  0  0  0  0  0  0  0  0  0  0  0
    1.6810   -5.3940    4.7349 C   0  0  0  0  0  0  0  0  0  0  0  0
    1.6094   -5.3649    5.9012 N   0  0  0  0  0  0  0  0  0  0  0  0
    2.4393   -4.4203    2.7230 C   0  0  0  0  0  0  0  0  0  0  0  0
    2.6764   -4.1614    1.3891 N   0  0  0  0  0  0  0  0  0  0  0  0
    2.6110   -2.7972    0.8545 C   0  0  0  0  0  0  0  0  0  0  0  0
    3.9173   -2.4223    0.1353 C   0  0  0  0  0  0  0  0  0  0  0  0
    4.2947   -3.4419   -0.8692 N   0  0  0  0  0  0  0  0  0  0  0  0
    5.5202   -3.0760   -1.6617 C   0  0  0  0  0  0  0  0  0  0  0  0
    6.7523   -2.7870   -0.7833 C   0  0  0  0  0  0  0  0  0  0  0  0
    4.3887   -4.7986   -0.2963 C   0  0  0  0  0  0  0  0  0  0  0  0
    3.0738   -5.1716    0.4083 C   0  0  0  0  0  0  0  0  0  0  0  0
   -2.3061   -9.0808    2.5258 H   0  0  0  0  0  0  0  0  0  0  0  0
   -2.1003   -7.3303    2.4813 H   0  0  0  0  0  0  0  0  0  0  0  0
   -1.9878   -8.1999    4.0174 H   0  0  0  0  0  0  0  0  0  0  0  0
    0.0781   -9.3771    3.2373 H   0  0  0  0  0  0  0  0  0  0  0  0
   -0.0264   -8.5943    1.6771 H   0  0  0  0  0  0  0  0  0  0  0  0
    2.9824   -3.7291    3.3768 H   0  0  0  0  0  0  0  0  0  0  0  0
    1.7679   -2.7180    0.1804 H   0  0  0  0  0  0  0  0  0  0  0  0
    2.4421   -2.0831    1.6631 H   0  0  0  0  0  0  0  0  0  0  0  0
    3.8003   -1.4379   -0.3254 H   0  0  0  0  0  0  0  0  0  0  0  0
    4.6696   -2.3313    0.9135 H   0  0  0  0  0  0  0  0  0  0  0  0
    5.7400   -3.8750   -2.3810 H   0  0  0  0  0  0  0  0  0  0  0  0
    5.2967   -2.2075   -2.2863 H   0  0  0  0  0  0  0  0  0  0  0  0
    7.6595   -2.6539   -1.3956 H   0  0  0  0  0  0  0  0  0  0  0  0
    6.9527   -3.5977   -0.0836 H   0  0  0  0  0  0  0  0  0  0  0  0
    6.6143   -1.8766   -0.2044 H   0  0  0  0  0  0  0  0  0  0  0  0
    4.6016   -5.5387   -1.0710 H   0  0  0  0  0  0  0  0  0  0  0  0
    5.1829   -4.8774    0.4433 H   0  0  0  0  0  0  0  0  0  0  0  0
    3.2220   -6.1247    0.9127 H   0  0  0  0  0  0  0  0  0  0  0  0
    2.2762   -5.3107   -0.3204 H   0  0  0  0  0  0  0  0  0  0  0  0
    3.5473   -3.4889   -1.5353 H   0  0  0  0  0  0  0  0  0  0  0  0
  1  2  1  0
  1 18  1  0
  1 19  1  0
  1 20  1  0
  2  3  1  0
  2 21  1  0
  2 22  1  0
  3  4  1  0
  4  5  2  0
  4  6  1  0
  6  7  1  0
  6  9  2  3
  7  8  3  0
  9 10  1  0
  9 23  1  0
 10 17  1  0
 10 11  1  0
 11 12  1  0
 11 24  1  0
 11 25  1  0
 12 13  1  0
 12 26  1  0
 12 27  1  0
 13 14  1  0
 13 16  1  0
 13 37  1  0
 14 15  1  0
 14 28  1  0
 14 29  1  0
 15 30  1  0
 15 31  1  0
 15 32  1  0
 16 17  1  0
 16 33  1  0
 16 34  1  0
 17 35  1  0
 17 36  1  0
M  CHG  1  13   1
M  END
>  <i_m_ct_stereo_status>  (137) 
1

>  <s_m_source_file>  (137) 
/var/tmp/pbs.5076255.sched01/tmpguyree9i/45_f3p7e6s.sdf

>  <i_m_source_file_index>  (137) 
15

>  <i_lp_mmshare_version>  (137) 
48012

>  <i_f3d_flags>  (137) 
0

>  <s_epik_input>  (137) 
W0NIM11bQ0gyXU9DKD1PKS9DKEMjTik9W0NIXS9OMVtDSDJdW0NIMl1OKFtDSDJdW0NIM10pW0NIMl1bQ0gyXTE=

>  <s_epik_cmdline>  (137) 
J2VwaWtfcHl0aG9uJywgJy1waHQnLCAnMi4wJywgJy1waCcsICc3LjAnLCAnLXRuJywgJzgnLCAnLW1hJywgJzIwMCcsICctaW1hZScsICc8aW5maWxlLm1hZT4nLCAnLW9tYWUnLCAnPG91dGZpbGUubWFlPic=

>  <r_lp_tautomer_probability>  (137) 
0.5

>  <r_epik_Ionization_Penalty>  (137) 
0.960491

>  <r_epik_Ionization_Penalty_Charging>  (137) 
0.96049

>  <r_epik_Ionization_Penalty_Neutral>  (137) 
9.71887e-07

>  <r_epik_State_Penalty>  (137) 
1.41625

>  <r_epik_Charging_Adjusted_Penalty>  (137) 
2.37674

>  <i_epik_Tot_Q>  (137) 
1

>  <i_epik_Tot_abs_Q>  (137) 
1

>  <s_epik_Chemistry_Notes>  (137) 
This compound has an ester and may undergo hydrolysis at high or low pH.

>  <s_lp_Force_Field>  (137) 
OPLS3e

>  <r_lp_Energy>  (137) 
21.7574

>  <b_lp_Chiralities_Consistent>  (137) 
1

>  <s_lp_Variant>  (137) 
39:0-4

>  <s_i_glide_gridfile>  (137) 
pfpi4k_grid

>  <i_i_glide_lignum>  (137) 
15

>  <i_i_glide_rotatable_bonds>  (137) 
6

>  <r_i_docking_score>  (137) 
-2.85864

>  <r_i_glide_ligand_efficiency>  (137) 
-0.168156

>  <r_i_glide_ligand_efficiency_sa>  (137) 
-0.432375

>  <r_i_glide_ligand_efficiency_ln>  (137) 
-0.745757

>  <r_i_glide_gscore>  (137) 
-2.85864

>  <r_i_glide_lipo>  (137) 
-0.0684853

>  <r_i_glide_hbond>  (137) 
-0.16

>  <r_i_glide_metal>  (137) 
-0

>  <r_i_glide_rewards>  (137) 
-1.78428

>  <r_i_glide_evdw>  (137) 
-19.3958

>  <r_i_glide_ecoul>  (137) 
-6.79282

>  <r_i_glide_erotb>  (137) 
1.21557

>  <r_i_glide_esite>  (137) 
-0.0727418

>  <r_i_glide_emodel>  (137) 
-28.0193

>  <r_i_glide_energy>  (137) 
-26.1886

>  <r_i_glide_einternal>  (137) 
7.67255

>  <r_i_glide_intrahb_reward>  (137) 
-0

>  <i_i_glide_confnum>  (137) 
3

>  <i_i_glide_posenum>  (137) 
29

>  <r_i_glide_eff_state_penalty>  (137) 
0

>  <ligand_id>  (137) 
39

>  <original_smiles>  (137) 
CCOC(=O)C(C#N)=CN1CCN(CC)CC1

>  <smiles>  (137) 
[H]C(=C(C#N)C(=O)OC([H])([H])C([H])([H])[H])N1C([H])([H])C([H])([H])[N+]([H])(C([H])([H])C([H])([H])[H])C([H])([H])C1([H])[H]

$$$$
39:3:2
     RDKit          3D

 37 37  0  0  1  0  0  0  0  0999 V2000
    3.4895   -3.3937    4.5116 C   0  0  0  0  0  0  0  0  0  0  0  0
    2.5396   -4.3303    3.7503 C   0  0  0  0  0  0  0  0  0  0  0  0
    3.1594   -4.8227    2.5729 O   0  0  0  0  0  0  0  0  0  0  0  0
    3.1413   -4.0917    1.4448 C   0  0  0  0  0  0  0  0  0  0  0  0
    2.5795   -3.0028    1.3569 O   0  0  0  0  0  0  0  0  0  0  0  0
    3.8860   -4.7647    0.3571 C   0  0  0  0  0  0  0  0  0  0  0  0
    4.5309   -6.0154    0.5847 C   0  0  0  0  0  0  0  0  0  0  0  0
    5.0296   -7.0349    0.8167 N   0  0  0  0  0  0  0  0  0  0  0  0
    3.9951   -4.2454   -0.8923 C   0  0  0  0  0  0  0  0  0  0  0  0
    3.4827   -3.0587   -1.4062 N   0  0  0  0  0  0  0  0  0  0  0  0
    3.8828   -1.7506   -0.9137 C   0  0  0  0  0  0  0  0  0  0  0  0
    4.3909   -0.8613   -2.0491 C   0  0  0  0  0  0  0  0  0  0  0  0
    3.3849   -0.7689   -3.1351 N   0  0  0  0  0  0  0  0  0  0  0  0
    3.8099    0.1706   -4.2038 C   0  0  0  0  0  0  0  0  0  0  0  0
    2.6644    0.5840   -5.1275 C   0  0  0  0  0  0  0  0  0  0  0  0
    3.0416   -2.1208   -3.6418 C   0  0  0  0  0  0  0  0  0  0  0  0
    2.5372   -3.0261   -2.5167 C   0  0  0  0  0  0  0  0  0  0  0  0
    3.0174   -3.0211    5.4204 H   0  0  0  0  0  0  0  0  0  0  0  0
    3.7690   -2.5286    3.9077 H   0  0  0  0  0  0  0  0  0  0  0  0
    4.4051   -3.9120    4.7975 H   0  0  0  0  0  0  0  0  0  0  0  0
    2.2839   -5.1857    4.3763 H   0  0  0  0  0  0  0  0  0  0  0  0
    1.6013   -3.8228    3.5159 H   0  0  0  0  0  0  0  0  0  0  0  0
    4.5645   -4.7862   -1.6383 H   0  0  0  0  0  0  0  0  0  0  0  0
    3.0305   -1.2823   -0.4160 H   0  0  0  0  0  0  0  0  0  0  0  0
    4.6707   -1.8629   -0.1620 H   0  0  0  0  0  0  0  0  0  0  0  0
    4.6174    0.1258   -1.6515 H   0  0  0  0  0  0  0  0  0  0  0  0
    5.3226   -1.2698   -2.4472 H   0  0  0  0  0  0  0  0  0  0  0  0
    4.2097    1.0835   -3.7531 H   0  0  0  0  0  0  0  0  0  0  0  0
    4.6174   -0.2736   -4.7841 H   0  0  0  0  0  0  0  0  0  0  0  0
    3.0047    1.3480   -5.8287 H   0  0  0  0  0  0  0  0  0  0  0  0
    1.8277    0.9997   -4.5696 H   0  0  0  0  0  0  0  0  0  0  0  0
    2.2844   -0.2454   -5.7133 H   0  0  0  0  0  0  0  0  0  0  0  0
    2.2576   -2.0690   -4.3879 H   0  0  0  0  0  0  0  0  0  0  0  0
    3.9202   -2.5691   -4.1111 H   0  0  0  0  0  0  0  0  0  0  0  0
    2.3581   -4.0245   -2.9156 H   0  0  0  0  0  0  0  0  0  0  0  0
    1.5679   -2.6675   -2.1633 H   0  0  0  0  0  0  0  0  0  0  0  0
    2.5470   -0.3923   -2.7085 H   0  0  0  0  0  0  0  0  0  0  0  0
  1  2  1  0
  1 18  1  0
  1 19  1  0
  1 20  1  0
  2  3  1  0
  2 21  1  0
  2 22  1  0
  3  4  1  0
  4  5  2  0
  4  6  1  0
  6  7  1  0
  6  9  2  3
  7  8  3  0
  9 10  1  0
  9 23  1  0
 10 17  1  0
 10 11  1  0
 11 12  1  0
 11 24  1  0
 11 25  1  0
 12 13  1  0
 12 26  1  0
 12 27  1  0
 13 14  1  0
 13 16  1  0
 13 37  1  0
 14 15  1  0
 14 28  1  0
 14 29  1  0
 15 30  1  0
 15 31  1  0
 15 32  1  0
 16 17  1  0
 16 33  1  0
 16 34  1  0
 17 35  1  0
 17 36  1  0
M  CHG  1  13   1
M  END
>  <i_m_ct_stereo_status>  (138) 
1

>  <s_m_source_file>  (138) 
/var/tmp/pbs.5076255.sched01/tmpguyree9i/45_f3p7e6s.sdf

>  <i_m_source_file_index>  (138) 
15

>  <i_lp_mmshare_version>  (138) 
48012

>  <i_f3d_flags>  (138) 
0

>  <s_epik_input>  (138) 
W0NIM11bQ0gyXU9DKD1PKS9DKEMjTik9W0NIXS9OMVtDSDJdW0NIMl1OKFtDSDJdW0NIM10pW0NIMl1bQ0gyXTE=

>  <s_epik_cmdline>  (138) 
J2VwaWtfcHl0aG9uJywgJy1waHQnLCAnMi4wJywgJy1waCcsICc3LjAnLCAnLXRuJywgJzgnLCAnLW1hJywgJzIwMCcsICctaW1hZScsICc8aW5maWxlLm1hZT4nLCAnLW9tYWUnLCAnPG91dGZpbGUubWFlPic=

>  <r_lp_tautomer_probability>  (138) 
0.5

>  <r_epik_Ionization_Penalty>  (138) 
0.960491

>  <r_epik_Ionization_Penalty_Charging>  (138) 
0.96049

>  <r_epik_Ionization_Penalty_Neutral>  (138) 
9.71887e-07

>  <r_epik_State_Penalty>  (138) 
1.41625

>  <r_epik_Charging_Adjusted_Penalty>  (138) 
2.37674

>  <i_epik_Tot_Q>  (138) 
1

>  <i_epik_Tot_abs_Q>  (138) 
1

>  <s_epik_Chemistry_Notes>  (138) 
This compound has an ester and may undergo hydrolysis at high or low pH.

>  <s_lp_Force_Field>  (138) 
OPLS3e

>  <r_lp_Energy>  (138) 
21.7574

>  <b_lp_Chiralities_Consistent>  (138) 
1

>  <s_lp_Variant>  (138) 
39:0-4

>  <s_i_glide_gridfile>  (138) 
pfpi4k_grid

>  <i_i_glide_lignum>  (138) 
15

>  <i_i_glide_rotatable_bonds>  (138) 
6

>  <r_i_docking_score>  (138) 
-2.65986

>  <r_i_glide_ligand_efficiency>  (138) 
-0.156463

>  <r_i_glide_ligand_efficiency_sa>  (138) 
-0.402309

>  <r_i_glide_ligand_efficiency_ln>  (138) 
-0.693899

>  <r_i_glide_gscore>  (138) 
-2.65986

>  <r_i_glide_lipo>  (138) 
-0.406562

>  <r_i_glide_hbond>  (138) 
0

>  <r_i_glide_metal>  (138) 
-0

>  <r_i_glide_rewards>  (138) 
-1.93892

>  <r_i_glide_evdw>  (138) 
-21.6189

>  <r_i_glide_ecoul>  (138) 
-2.97217

>  <r_i_glide_erotb>  (138) 
1.21557

>  <r_i_glide_esite>  (138) 
-0.00318881

>  <r_i_glide_emodel>  (138) 
-28.512

>  <r_i_glide_energy>  (138) 
-24.5911

>  <r_i_glide_einternal>  (138) 
3.05574

>  <r_i_glide_intrahb_reward>  (138) 
-0

>  <i_i_glide_confnum>  (138) 
3

>  <i_i_glide_posenum>  (138) 
23

>  <r_i_glide_eff_state_penalty>  (138) 
0

>  <ligand_id>  (138) 
39

>  <original_smiles>  (138) 
CCOC(=O)C(C#N)=CN1CCN(CC)CC1

>  <smiles>  (138) 
[H]C(=C(C#N)C(=O)OC([H])([H])C([H])([H])[H])N1C([H])([H])C([H])([H])[N+]([H])(C([H])([H])C([H])([H])[H])C([H])([H])C1([H])[H]

$$$$
40:0:0
     RDKit          3D

 55 59  0  0  1  0  0  0  0  0999 V2000
    1.2822  -10.2685    2.7968 C   0  0  0  0  0  0  0  0  0  0  0  0
    1.8855   -9.1127    2.2298 O   0  0  0  0  0  0  0  0  0  0  0  0
    2.9628   -8.5582    2.8153 C   0  0  0  0  0  0  0  0  0  0  0  0
    3.4539   -8.9623    3.8690 O   0  0  0  0  0  0  0  0  0  0  0  0
    3.4531   -7.3938    1.9814 C   0  0  2  0  0  0  0  0  0  0  0  0
    4.6396   -6.5576    2.4890 C   0  0  1  0  0  0  0  0  0  0  0  0
    6.0359   -6.8684    1.9451 C   0  0  0  0  0  0  0  0  0  0  0  0
    7.0816   -5.7563    2.1801 C   0  0  0  0  0  0  0  0  0  0  0  0
    7.1114   -4.6420    1.1072 C   0  0  0  0  0  0  0  0  0  0  0  0
    5.8374   -3.7792    1.0330 C   0  0  2  0  0  0  0  0  0  0  0  0
    4.4856   -4.5216    0.8041 C   0  0  2  0  0  0  0  0  0  0  0  0
    3.9813   -3.1758    0.2234 C   0  0  2  0  0  0  0  0  0  0  0  0
    3.2950   -2.2097    1.2220 C   0  0  0  0  0  0  0  0  0  0  0  0
    3.2085   -3.0205   -1.0751 C   0  0  0  0  0  0  0  0  0  0  0  0
    3.5179   -1.9482   -1.8509 C   0  0  0  0  0  0  0  0  0  0  0  0
    4.6657   -0.9581   -1.5118 C   0  0  0  0  0  0  0  0  0  0  0  0
    5.6477   -1.5088   -0.4351 C   0  0  0  0  0  0  0  0  0  0  0  0
    6.4210   -0.7612    0.1469 O   0  0  0  0  0  0  0  0  0  0  0  0
    5.4661   -2.9825   -0.2381 C   0  0  1  0  0  0  0  0  0  0  0  0
    6.0356   -3.6215   -1.5363 C   0  0  0  0  0  0  0  0  0  0  0  0
    3.8886   -5.2892    2.0236 C   0  0  2  0  0  0  0  0  0  0  0  0
    3.5599   -4.4403    3.2410 C   0  0  0  0  0  0  0  0  0  0  0  0
    2.3554   -4.6808    3.7667 C   0  0  0  0  0  0  0  0  0  0  0  0
    1.6799   -5.7261    3.0008 C   0  0  0  0  0  0  0  0  0  0  0  0
    0.5418   -6.1150    3.2442 O   0  0  0  0  0  0  0  0  0  0  0  0
    2.5918   -6.1144    1.8444 C   0  0  2  0  0  0  0  0  0  0  0  0
    1.8179   -5.9845    0.5388 C   0  0  0  0  0  0  0  0  0  0  0  0
    0.4222  -10.5671    2.1949 H   0  0  0  0  0  0  0  0  0  0  0  0
    0.9362  -10.0719    3.8135 H   0  0  0  0  0  0  0  0  0  0  0  0
    1.9836  -11.1059    2.8213 H   0  0  0  0  0  0  0  0  0  0  0  0
    3.6977   -7.7368    0.9755 H   0  0  0  0  0  0  0  0  0  0  0  0
    4.6528   -6.5822    3.5834 H   0  0  0  0  0  0  0  0  0  0  0  0
    6.3966   -7.7905    2.4006 H   0  0  0  0  0  0  0  0  0  0  0  0
    5.9822   -7.0885    0.8798 H   0  0  0  0  0  0  0  0  0  0  0  0
    6.9728   -5.3346    3.1782 H   0  0  0  0  0  0  0  0  0  0  0  0
    8.0655   -6.2314    2.1700 H   0  0  0  0  0  0  0  0  0  0  0  0
    7.9817   -4.0062    1.2742 H   0  0  0  0  0  0  0  0  0  0  0  0
    7.3075   -5.1426    0.1573 H   0  0  0  0  0  0  0  0  0  0  0  0
    5.7839   -3.1321    1.9118 H   0  0  0  0  0  0  0  0  0  0  0  0
    4.5828   -5.2628    0.0090 H   0  0  0  0  0  0  0  0  0  0  0  0
    3.9083   -2.0021    2.0966 H   0  0  0  0  0  0  0  0  0  0  0  0
    2.3464   -2.6192    1.5637 H   0  0  0  0  0  0  0  0  0  0  0  0
    3.0636   -1.2404    0.7810 H   0  0  0  0  0  0  0  0  0  0  0  0
    2.4205   -3.7138   -1.3276 H   0  0  0  0  0  0  0  0  0  0  0  0
    2.9576   -1.7442   -2.7529 H   0  0  0  0  0  0  0  0  0  0  0  0
    5.2265   -0.7396   -2.4248 H   0  0  0  0  0  0  0  0  0  0  0  0
    4.2298   -0.0235   -1.1638 H   0  0  0  0  0  0  0  0  0  0  0  0
    5.7638   -4.6661   -1.6114 H   0  0  0  0  0  0  0  0  0  0  0  0
    7.1223   -3.5605   -1.5423 H   0  0  0  0  0  0  0  0  0  0  0  0
    5.7012   -3.1776   -2.4731 H   0  0  0  0  0  0  0  0  0  0  0  0
    4.2511   -3.7109    3.6498 H   0  0  0  0  0  0  0  0  0  0  0  0
    1.9204   -4.1794    4.6171 H   0  0  0  0  0  0  0  0  0  0  0  0
    2.4752   -6.1647   -0.3117 H   0  0  0  0  0  0  0  0  0  0  0  0
    1.4165   -4.9874    0.4051 H   0  0  0  0  0  0  0  0  0  0  0  0
    1.0017   -6.7021    0.4859 H   0  0  0  0  0  0  0  0  0  0  0  0
  1  2  1  0
  1 28  1  0
  1 29  1  0
  1 30  1  0
  2  3  1  0
  3  4  2  0
  3  5  1  0
  5 26  1  0
  5  6  1  0
  5 31  1  6
  6 21  1  0
  6  7  1  0
  6 32  1  1
  7  8  1  0
  7 33  1  0
  7 34  1  0
  8  9  1  0
  8 35  1  0
  8 36  1  0
  9 10  1  0
  9 37  1  0
  9 38  1  0
 10 19  1  0
 10 11  1  0
 10 39  1  1
 11 12  1  0
 11 21  1  0
 11 40  1  6
 12 19  1  0
 12 13  1  1
 12 14  1  0
 13 41  1  0
 13 42  1  0
 13 43  1  0
 14 15  2  0
 14 44  1  0
 15 16  1  0
 15 45  1  0
 16 17  1  0
 16 46  1  0
 16 47  1  0
 17 18  2  0
 17 19  1  0
 19 20  1  6
 20 48  1  0
 20 49  1  0
 20 50  1  0
 21 26  1  0
 21 22  1  1
 22 23  2  0
 22 51  1  0
 23 24  1  0
 23 52  1  0
 24 25  2  0
 24 26  1  0
 26 27  1  6
 27 53  1  0
 27 54  1  0
 27 55  1  0
M  END
>  <i_m_ct_stereo_status>  (139) 
1

>  <s_m_source_file>  (139) 
/var/tmp/pbs.5076255.sched01/tmpguyree9i/45_f3p7e6s.sdf

>  <i_m_source_file_index>  (139) 
16

>  <i_lp_mmshare_version>  (139) 
48012

>  <i_f3d_flags>  (139) 
0

>  <s_epik_input>  (139) 
W0NIXTE9W0NIXUMoPU8pW0NAXTIoW0NIM10pW0NASF0oQyg9TylPW0NIM10pW0NASF0oW0NAXTEyMylbQ0gyXVtDSDJdW0NIMl1bQ0BASF00W0NAQEhdM1tDQEBdNShbQ0gzXSlbQ0BAXTQoW0NIM10pQyg9TylbQ0gyXVtDSF09W0NIXTU=

>  <s_epik_cmdline>  (139) 
J2VwaWtfcHl0aG9uJywgJy1waHQnLCAnMi4wJywgJy1waCcsICc3LjAnLCAnLXRuJywgJzgnLCAnLW1hJywgJzIwMCcsICctaW1hZScsICc8aW5maWxlLm1hZT4nLCAnLW9tYWUnLCAnPG91dGZpbGUubWFlPic=

>  <r_lp_tautomer_probability>  (139) 
1

>  <r_epik_Ionization_Penalty>  (139) 
2.74825e-13

>  <r_epik_Ionization_Penalty_Charging>  (139) 
0

>  <r_epik_Ionization_Penalty_Neutral>  (139) 
2.74825e-13

>  <r_epik_State_Penalty>  (139) 
-0

>  <r_epik_Charging_Adjusted_Penalty>  (139) 
0

>  <i_epik_Tot_Q>  (139) 
0

>  <i_epik_Tot_abs_Q>  (139) 
0

>  <s_epik_Chemistry_Notes>  (139) 
This compound has an ester and may undergo hydrolysis at high or low pH.

>  <s_lp_Force_Field>  (139) 
OPLS3e

>  <r_lp_Energy>  (139) 
58.8086

>  <b_lp_Chiralities_Consistent>  (139) 
1

>  <s_lp_Variant>  (139) 
40:0-1

>  <s_i_glide_gridfile>  (139) 
pfpi4k_grid

>  <i_i_glide_lignum>  (139) 
16

>  <i_i_glide_rotatable_bonds>  (139) 
2

>  <r_i_docking_score>  (139) 
-2.79546

>  <r_i_glide_ligand_efficiency>  (139) 
-0.103536

>  <r_i_glide_ligand_efficiency_sa>  (139) 
-0.310607

>  <r_i_glide_ligand_efficiency_ln>  (139) 
-0.650737

>  <r_i_glide_gscore>  (139) 
-2.79546

>  <r_i_glide_lipo>  (139) 
-0.659674

>  <r_i_glide_hbond>  (139) 
-0.0400399

>  <r_i_glide_metal>  (139) 
-0

>  <r_i_glide_rewards>  (139) 
-0.896823

>  <r_i_glide_evdw>  (139) 
-23.3858

>  <r_i_glide_ecoul>  (139) 
-0.731153

>  <r_i_glide_erotb>  (139) 
0.141935

>  <r_i_glide_esite>  (139) 
-0.0618962

>  <r_i_glide_emodel>  (139) 
-28.2467

>  <r_i_glide_energy>  (139) 
-24.117

>  <r_i_glide_einternal>  (139) 
0.0240562

>  <r_i_glide_intrahb_reward>  (139) 
-0

>  <i_i_glide_confnum>  (139) 
4

>  <i_i_glide_posenum>  (139) 
23

>  <r_i_glide_eff_state_penalty>  (139) 
0

>  <ligand_id>  (139) 
40

>  <original_smiles>  (139) 
COC(=O)C1C2CCCC3C(C4(C)C=CCC(=O)C34C)C23C=CC(=O)C13C

>  <smiles>  (139) 
[H]C1=C([H])C23C([H])(C([H])([H])C([H])([H])C([H])([H])C4([H])C2([H])C2(C([H])([H])[H])C([H])=C([H])C([H])([H])C(=O)C42C([H])([H])[H])C([H])(C(=O)OC([H])([H])[H])C3(C([H])([H])[H])C1=O

$$$$
40:0:1
     RDKit          3D

 55 59  0  0  1  0  0  0  0  0999 V2000
    3.1776  -11.0083    3.3040 C   0  0  0  0  0  0  0  0  0  0  0  0
    3.5456   -9.7397    2.7764 O   0  0  0  0  0  0  0  0  0  0  0  0
    2.5958   -8.8065    2.5986 C   0  0  0  0  0  0  0  0  0  0  0  0
    1.4226   -8.9795    2.9293 O   0  0  0  0  0  0  0  0  0  0  0  0
    3.1635   -7.5854    1.8955 C   0  0  2  0  0  0  0  0  0  0  0  0
    4.3150   -6.7892    2.5400 C   0  0  1  0  0  0  0  0  0  0  0  0
    5.7496   -7.0822    2.0867 C   0  0  0  0  0  0  0  0  0  0  0  0
    6.7825   -5.9896    2.4526 C   0  0  0  0  0  0  0  0  0  0  0  0
    6.9042   -4.8314    1.4334 C   0  0  0  0  0  0  0  0  0  0  0  0
    5.6461   -3.9522    1.3021 C   0  0  2  0  0  0  0  0  0  0  0  0
    4.3114   -4.6713    0.9373 C   0  0  2  0  0  0  0  0  0  0  0  0
    3.8643   -3.2929    0.3781 C   0  0  2  0  0  0  0  0  0  0  0  0
    3.1090   -2.3663    1.3643 C   0  0  0  0  0  0  0  0  0  0  0  0
    3.1969   -3.0656   -0.9683 C   0  0  0  0  0  0  0  0  0  0  0  0
    3.5738   -1.9619   -1.6670 C   0  0  0  0  0  0  0  0  0  0  0  0
    4.6964   -1.0006   -1.1940 C   0  0  0  0  0  0  0  0  0  0  0  0
    5.5939   -1.6131   -0.0788 C   0  0  0  0  0  0  0  0  0  0  0  0
    6.3313   -0.8967    0.5885 O   0  0  0  0  0  0  0  0  0  0  0  0
    5.3824   -3.0956    0.0415 C   0  0  1  0  0  0  0  0  0  0  0  0
    6.0460   -3.6947   -1.2335 C   0  0  0  0  0  0  0  0  0  0  0  0
    3.6174   -5.4866    2.0763 C   0  0  2  0  0  0  0  0  0  0  0  0
    3.2068   -4.6848    3.3001 C   0  0  0  0  0  0  0  0  0  0  0  0
    1.9640   -4.9290    3.7190 C   0  0  0  0  0  0  0  0  0  0  0  0
    1.3352   -5.9173    2.8535 C   0  0  0  0  0  0  0  0  0  0  0  0
    0.1572   -6.2470    2.9596 O   0  0  0  0  0  0  0  0  0  0  0  0
    2.3292   -6.2856    1.7644 C   0  0  2  0  0  0  0  0  0  0  0  0
    1.6672   -6.0832    0.4149 C   0  0  0  0  0  0  0  0  0  0  0  0
    4.0579  -11.6453    3.3816 H   0  0  0  0  0  0  0  0  0  0  0  0
    2.4532  -11.5039    2.6541 H   0  0  0  0  0  0  0  0  0  0  0  0
    2.7341  -10.9054    4.2960 H   0  0  0  0  0  0  0  0  0  0  0  0
    3.4989   -7.8701    0.8967 H   0  0  0  0  0  0  0  0  0  0  0  0
    4.2420   -6.8719    3.6283 H   0  0  0  0  0  0  0  0  0  0  0  0
    6.0729   -8.0285    2.5216 H   0  0  0  0  0  0  0  0  0  0  0  0
    5.7766   -7.2473    1.0092 H   0  0  0  0  0  0  0  0  0  0  0  0
    6.6030   -5.6050    3.4563 H   0  0  0  0  0  0  0  0  0  0  0  0
    7.7612   -6.4731    2.4957 H   0  0  0  0  0  0  0  0  0  0  0  0
    7.7660   -4.2109    1.6819 H   0  0  0  0  0  0  0  0  0  0  0  0
    7.1670   -5.2939    0.4805 H   0  0  0  0  0  0  0  0  0  0  0  0
    5.5305   -3.3435    2.2033 H   0  0  0  0  0  0  0  0  0  0  0  0
    4.4663   -5.3767    0.1183 H   0  0  0  0  0  0  0  0  0  0  0  0
    3.6528   -2.2057    2.2932 H   0  0  0  0  0  0  0  0  0  0  0  0
    2.1337   -2.7820    1.6126 H   0  0  0  0  0  0  0  0  0  0  0  0
    2.9175   -1.3752    0.9528 H   0  0  0  0  0  0  0  0  0  0  0  0
    2.4265   -3.7357   -1.3170 H   0  0  0  0  0  0  0  0  0  0  0  0
    3.0873   -1.7129   -2.5993 H   0  0  0  0  0  0  0  0  0  0  0  0
    5.3263   -0.7435   -2.0491 H   0  0  0  0  0  0  0  0  0  0  0  0
    4.2415   -0.0805   -0.8303 H   0  0  0  0  0  0  0  0  0  0  0  0
    5.7803   -4.7378   -1.3767 H   0  0  0  0  0  0  0  0  0  0  0  0
    7.1301   -3.6460   -1.1502 H   0  0  0  0  0  0  0  0  0  0  0  0
    5.7919   -3.2008   -2.1709 H   0  0  0  0  0  0  0  0  0  0  0  0
    3.8713   -3.9823    3.7898 H   0  0  0  0  0  0  0  0  0  0  0  0
    1.4616   -4.4620    4.5508 H   0  0  0  0  0  0  0  0  0  0  0  0
    2.4068   -6.2516   -0.3571 H   0  0  0  0  0  0  0  0  0  0  0  0
    1.3377   -5.0609    0.2713 H   0  0  0  0  0  0  0  0  0  0  0  0
    0.8447   -6.7796    0.2502 H   0  0  0  0  0  0  0  0  0  0  0  0
  1  2  1  0
  1 28  1  0
  1 29  1  0
  1 30  1  0
  2  3  1  0
  3  4  2  0
  3  5  1  0
  5 26  1  0
  5  6  1  0
  5 31  1  6
  6 21  1  0
  6  7  1  0
  6 32  1  1
  7  8  1  0
  7 33  1  0
  7 34  1  0
  8  9  1  0
  8 35  1  0
  8 36  1  0
  9 10  1  0
  9 37  1  0
  9 38  1  0
 10 19  1  0
 10 11  1  0
 10 39  1  1
 11 12  1  0
 11 21  1  0
 11 40  1  6
 12 19  1  0
 12 13  1  1
 12 14  1  0
 13 41  1  0
 13 42  1  0
 13 43  1  0
 14 15  2  0
 14 44  1  0
 15 16  1  0
 15 45  1  0
 16 17  1  0
 16 46  1  0
 16 47  1  0
 17 18  2  0
 17 19  1  0
 19 20  1  6
 20 48  1  0
 20 49  1  0
 20 50  1  0
 21 26  1  0
 21 22  1  1
 22 23  2  0
 22 51  1  0
 23 24  1  0
 23 52  1  0
 24 25  2  0
 24 26  1  0
 26 27  1  6
 27 53  1  0
 27 54  1  0
 27 55  1  0
M  END
>  <i_m_ct_stereo_status>  (140) 
1

>  <s_m_source_file>  (140) 
/var/tmp/pbs.5076255.sched01/tmpguyree9i/45_f3p7e6s.sdf

>  <i_m_source_file_index>  (140) 
16

>  <i_lp_mmshare_version>  (140) 
48012

>  <i_f3d_flags>  (140) 
0

>  <s_epik_input>  (140) 
W0NIXTE9W0NIXUMoPU8pW0NAXTIoW0NIM10pW0NASF0oQyg9TylPW0NIM10pW0NASF0oW0NAXTEyMylbQ0gyXVtDSDJdW0NIMl1bQ0BASF00W0NAQEhdM1tDQEBdNShbQ0gzXSlbQ0BAXTQoW0NIM10pQyg9TylbQ0gyXVtDSF09W0NIXTU=

>  <s_epik_cmdline>  (140) 
J2VwaWtfcHl0aG9uJywgJy1waHQnLCAnMi4wJywgJy1waCcsICc3LjAnLCAnLXRuJywgJzgnLCAnLW1hJywgJzIwMCcsICctaW1hZScsICc8aW5maWxlLm1hZT4nLCAnLW9tYWUnLCAnPG91dGZpbGUubWFlPic=

>  <r_lp_tautomer_probability>  (140) 
1

>  <r_epik_Ionization_Penalty>  (140) 
2.74825e-13

>  <r_epik_Ionization_Penalty_Charging>  (140) 
0

>  <r_epik_Ionization_Penalty_Neutral>  (140) 
2.74825e-13

>  <r_epik_State_Penalty>  (140) 
-0

>  <r_epik_Charging_Adjusted_Penalty>  (140) 
0

>  <i_epik_Tot_Q>  (140) 
0

>  <i_epik_Tot_abs_Q>  (140) 
0

>  <s_epik_Chemistry_Notes>  (140) 
This compound has an ester and may undergo hydrolysis at high or low pH.

>  <s_lp_Force_Field>  (140) 
OPLS3e

>  <r_lp_Energy>  (140) 
58.8086

>  <b_lp_Chiralities_Consistent>  (140) 
1

>  <s_lp_Variant>  (140) 
40:0-1

>  <s_i_glide_gridfile>  (140) 
pfpi4k_grid

>  <i_i_glide_lignum>  (140) 
16

>  <i_i_glide_rotatable_bonds>  (140) 
2

>  <r_i_docking_score>  (140) 
-2.70008

>  <r_i_glide_ligand_efficiency>  (140) 
-0.100003

>  <r_i_glide_ligand_efficiency_sa>  (140) 
-0.300009

>  <r_i_glide_ligand_efficiency_ln>  (140) 
-0.628535

>  <r_i_glide_gscore>  (140) 
-2.70008

>  <r_i_glide_lipo>  (140) 
-0.409437

>  <r_i_glide_hbond>  (140) 
-0.127766

>  <r_i_glide_metal>  (140) 
-0

>  <r_i_glide_rewards>  (140) 
-0.896823

>  <r_i_glide_evdw>  (140) 
-23.4232

>  <r_i_glide_ecoul>  (140) 
-1.26222

>  <r_i_glide_erotb>  (140) 
0.141935

>  <r_i_glide_esite>  (140) 
-0.0475012

>  <r_i_glide_emodel>  (140) 
-28.0964

>  <r_i_glide_energy>  (140) 
-24.6854

>  <r_i_glide_einternal>  (140) 
0.973147

>  <r_i_glide_intrahb_reward>  (140) 
-0

>  <i_i_glide_confnum>  (140) 
4

>  <i_i_glide_posenum>  (140) 
12

>  <r_i_glide_eff_state_penalty>  (140) 
0

>  <ligand_id>  (140) 
40

>  <original_smiles>  (140) 
COC(=O)C1C2CCCC3C(C4(C)C=CCC(=O)C34C)C23C=CC(=O)C13C

>  <smiles>  (140) 
[H]C1=C([H])C23C([H])(C([H])([H])C([H])([H])C([H])([H])C4([H])C2([H])C2(C([H])([H])[H])C([H])=C([H])C([H])([H])C(=O)C42C([H])([H])[H])C([H])(C(=O)OC([H])([H])[H])C3(C([H])([H])[H])C1=O

$$$$
40:0:2
     RDKit          3D

 55 59  0  0  1  0  0  0  0  0999 V2000
    2.3980   -9.5728    4.8579 C   0  0  0  0  0  0  0  0  0  0  0  0
    2.8480   -8.5097    4.0257 O   0  0  0  0  0  0  0  0  0  0  0  0
    2.9646   -8.7123    2.6973 C   0  0  0  0  0  0  0  0  0  0  0  0
    2.7018   -9.7887    2.1635 O   0  0  0  0  0  0  0  0  0  0  0  0
    3.4477   -7.4848    1.9505 C   0  0  2  0  0  0  0  0  0  0  0  0
    4.6317   -6.6734    2.5066 C   0  0  1  0  0  0  0  0  0  0  0  0
    6.0305   -6.9585    1.9548 C   0  0  0  0  0  0  0  0  0  0  0  0
    7.0724   -5.8543    2.2443 C   0  0  0  0  0  0  0  0  0  0  0  0
    7.1025   -4.6968    1.2201 C   0  0  0  0  0  0  0  0  0  0  0  0
    5.8261   -3.8356    1.1748 C   0  0  2  0  0  0  0  0  0  0  0  0
    4.4783   -4.5711    0.9040 C   0  0  2  0  0  0  0  0  0  0  0  0
    3.9746   -3.2029    0.3787 C   0  0  2  0  0  0  0  0  0  0  0  0
    3.2779   -2.2841    1.4143 C   0  0  0  0  0  0  0  0  0  0  0  0
    3.2115   -2.9924   -0.9171 C   0  0  0  0  0  0  0  0  0  0  0  0
    3.5215   -1.8852   -1.6414 C   0  0  0  0  0  0  0  0  0  0  0  0
    4.6632   -0.9059   -1.2496 C   0  0  0  0  0  0  0  0  0  0  0  0
    5.6447   -1.5049   -0.1989 C   0  0  0  0  0  0  0  0  0  0  0  0
    6.4102   -0.7793    0.4216 O   0  0  0  0  0  0  0  0  0  0  0  0
    5.4631   -2.9905   -0.0667 C   0  0  1  0  0  0  0  0  0  0  0  0
    6.0408   -3.5861   -1.3876 C   0  0  0  0  0  0  0  0  0  0  0  0
    3.8763   -5.3887    2.0881 C   0  0  2  0  0  0  0  0  0  0  0  0
    3.5338   -4.5946    3.3376 C   0  0  0  0  0  0  0  0  0  0  0  0
    2.3238   -4.8596    3.8405 C   0  0  0  0  0  0  0  0  0  0  0  0
    1.6538   -5.8633    3.0205 C   0  0  0  0  0  0  0  0  0  0  0  0
    0.5067   -6.2519    3.2268 O   0  0  0  0  0  0  0  0  0  0  0  0
    2.5805   -6.2062    1.8633 C   0  0  2  0  0  0  0  0  0  0  0  0
    1.8172   -6.0296    0.5537 C   0  0  0  0  0  0  0  0  0  0  0  0
    2.3568   -9.2317    5.8919 H   0  0  0  0  0  0  0  0  0  0  0  0
    3.0798  -10.4234    4.8039 H   0  0  0  0  0  0  0  0  0  0  0  0
    1.4008   -9.9112    4.5690 H   0  0  0  0  0  0  0  0  0  0  0  0
    3.7113   -7.7667    0.9282 H   0  0  0  0  0  0  0  0  0  0  0  0
    4.6487   -6.7428    3.5988 H   0  0  0  0  0  0  0  0  0  0  0  0
    6.3926   -7.9006    2.3686 H   0  0  0  0  0  0  0  0  0  0  0  0
    5.9811   -7.1306    0.8809 H   0  0  0  0  0  0  0  0  0  0  0  0
    6.9560   -5.4709    3.2573 H   0  0  0  0  0  0  0  0  0  0  0  0
    8.0563   -6.3260    2.2190 H   0  0  0  0  0  0  0  0  0  0  0  0
    7.9691   -4.0647    1.4172 H   0  0  0  0  0  0  0  0  0  0  0  0
    7.3055   -5.1557    0.2502 H   0  0  0  0  0  0  0  0  0  0  0  0
    5.7653   -3.2258    2.0808 H   0  0  0  0  0  0  0  0  0  0  0  0
    4.5832   -5.2782    0.0783 H   0  0  0  0  0  0  0  0  0  0  0  0
    3.8831   -2.1128    2.3029 H   0  0  0  0  0  0  0  0  0  0  0  0
    2.3280   -2.7104    1.7312 H   0  0  0  0  0  0  0  0  0  0  0  0
    3.0456   -1.2965    1.0159 H   0  0  0  0  0  0  0  0  0  0  0  0
    2.4253   -3.6734   -1.2050 H   0  0  0  0  0  0  0  0  0  0  0  0
    2.9649   -1.6425   -2.5362 H   0  0  0  0  0  0  0  0  0  0  0  0
    5.2253   -0.6397   -2.1491 H   0  0  0  0  0  0  0  0  0  0  0  0
    4.2205    0.0076   -0.8541 H   0  0  0  0  0  0  0  0  0  0  0  0
    5.7915   -4.6384   -1.5165 H   0  0  0  0  0  0  0  0  0  0  0  0
    7.1257   -3.5078   -1.3840 H   0  0  0  0  0  0  0  0  0  0  0  0
    5.7136   -3.0931   -2.3026 H   0  0  0  0  0  0  0  0  0  0  0  0
    4.2232   -3.8903    3.7851 H   0  0  0  0  0  0  0  0  0  0  0  0
    1.8822   -4.4003    4.7086 H   0  0  0  0  0  0  0  0  0  0  0  0
    2.4804   -6.1691   -0.2974 H   0  0  0  0  0  0  0  0  0  0  0  0
    1.4217   -5.0305    0.4611 H   0  0  0  0  0  0  0  0  0  0  0  0
    1.0035   -6.7474    0.4626 H   0  0  0  0  0  0  0  0  0  0  0  0
  1  2  1  0
  1 28  1  0
  1 29  1  0
  1 30  1  0
  2  3  1  0
  3  4  2  0
  3  5  1  0
  5 26  1  0
  5  6  1  0
  5 31  1  6
  6 21  1  0
  6  7  1  0
  6 32  1  1
  7  8  1  0
  7 33  1  0
  7 34  1  0
  8  9  1  0
  8 35  1  0
  8 36  1  0
  9 10  1  0
  9 37  1  0
  9 38  1  0
 10 19  1  0
 10 11  1  0
 10 39  1  1
 11 12  1  0
 11 21  1  0
 11 40  1  6
 12 19  1  0
 12 13  1  1
 12 14  1  0
 13 41  1  0
 13 42  1  0
 13 43  1  0
 14 15  2  0
 14 44  1  0
 15 16  1  0
 15 45  1  0
 16 17  1  0
 16 46  1  0
 16 47  1  0
 17 18  2  0
 17 19  1  0
 19 20  1  6
 20 48  1  0
 20 49  1  0
 20 50  1  0
 21 26  1  0
 21 22  1  1
 22 23  2  0
 22 51  1  0
 23 24  1  0
 23 52  1  0
 24 25  2  0
 24 26  1  0
 26 27  1  6
 27 53  1  0
 27 54  1  0
 27 55  1  0
M  END
>  <i_m_ct_stereo_status>  (141) 
1

>  <s_m_source_file>  (141) 
/var/tmp/pbs.5076255.sched01/tmpguyree9i/45_f3p7e6s.sdf

>  <i_m_source_file_index>  (141) 
16

>  <i_lp_mmshare_version>  (141) 
48012

>  <i_f3d_flags>  (141) 
0

>  <s_epik_input>  (141) 
W0NIXTE9W0NIXUMoPU8pW0NAXTIoW0NIM10pW0NASF0oQyg9TylPW0NIM10pW0NASF0oW0NAXTEyMylbQ0gyXVtDSDJdW0NIMl1bQ0BASF00W0NAQEhdM1tDQEBdNShbQ0gzXSlbQ0BAXTQoW0NIM10pQyg9TylbQ0gyXVtDSF09W0NIXTU=

>  <s_epik_cmdline>  (141) 
J2VwaWtfcHl0aG9uJywgJy1waHQnLCAnMi4wJywgJy1waCcsICc3LjAnLCAnLXRuJywgJzgnLCAnLW1hJywgJzIwMCcsICctaW1hZScsICc8aW5maWxlLm1hZT4nLCAnLW9tYWUnLCAnPG91dGZpbGUubWFlPic=

>  <r_lp_tautomer_probability>  (141) 
1

>  <r_epik_Ionization_Penalty>  (141) 
2.74825e-13

>  <r_epik_Ionization_Penalty_Charging>  (141) 
0

>  <r_epik_Ionization_Penalty_Neutral>  (141) 
2.74825e-13

>  <r_epik_State_Penalty>  (141) 
-0

>  <r_epik_Charging_Adjusted_Penalty>  (141) 
0

>  <i_epik_Tot_Q>  (141) 
0

>  <i_epik_Tot_abs_Q>  (141) 
0

>  <s_epik_Chemistry_Notes>  (141) 
This compound has an ester and may undergo hydrolysis at high or low pH.

>  <s_lp_Force_Field>  (141) 
OPLS3e

>  <r_lp_Energy>  (141) 
58.8086

>  <b_lp_Chiralities_Consistent>  (141) 
1

>  <s_lp_Variant>  (141) 
40:0-1

>  <s_i_glide_gridfile>  (141) 
pfpi4k_grid

>  <i_i_glide_lignum>  (141) 
16

>  <i_i_glide_rotatable_bonds>  (141) 
2

>  <r_i_docking_score>  (141) 
-2.47348

>  <r_i_glide_ligand_efficiency>  (141) 
-0.0916105

>  <r_i_glide_ligand_efficiency_sa>  (141) 
-0.274832

>  <r_i_glide_ligand_efficiency_ln>  (141) 
-0.575786

>  <r_i_glide_gscore>  (141) 
-2.47348

>  <r_i_glide_lipo>  (141) 
-0.494084

>  <r_i_glide_hbond>  (141) 
-0.0148123

>  <r_i_glide_metal>  (141) 
-0

>  <r_i_glide_rewards>  (141) 
-0.896823

>  <r_i_glide_evdw>  (141) 
-23.3502

>  <r_i_glide_ecoul>  (141) 
0.0313917

>  <r_i_glide_erotb>  (141) 
0.141935

>  <r_i_glide_esite>  (141) 
-0.0468996

>  <r_i_glide_emodel>  (141) 
-26.4985

>  <r_i_glide_energy>  (141) 
-23.3188

>  <r_i_glide_einternal>  (141) 
0.933641

>  <r_i_glide_intrahb_reward>  (141) 
-0

>  <i_i_glide_confnum>  (141) 
4

>  <i_i_glide_posenum>  (141) 
9

>  <r_i_glide_eff_state_penalty>  (141) 
0

>  <ligand_id>  (141) 
40

>  <original_smiles>  (141) 
COC(=O)C1C2CCCC3C(C4(C)C=CCC(=O)C34C)C23C=CC(=O)C13C

>  <smiles>  (141) 
[H]C1=C([H])C23C([H])(C([H])([H])C([H])([H])C([H])([H])C4([H])C2([H])C2(C([H])([H])[H])C([H])=C([H])C([H])([H])C(=O)C42C([H])([H])[H])C([H])(C(=O)OC([H])([H])[H])C3(C([H])([H])[H])C1=O

$$$$
41:0:0
     RDKit          3D

 54 61  0  0  1  0  0  0  0  0999 V2000
    6.5964   -5.4105    4.4694 C   0  0  0  0  0  0  0  0  0  0  0  0
    5.5116   -4.6130    4.0396 O   0  0  0  0  0  0  0  0  0  0  0  0
    4.8713   -5.0931    2.8758 C   0  0  2  0  0  0  0  0  0  0  0  0
    5.4963   -4.6505    1.5097 C   0  0  2  0  0  0  0  0  0  0  0  0
    6.2541   -3.2881    1.3799 C   0  0  1  0  0  0  0  0  0  0  0  0
    6.3428   -2.3274    0.2417 O   0  0  0  0  0  0  0  0  0  0  0  0
    5.2375   -1.5406    0.8144 C   0  0  2  0  0  0  0  0  0  0  0  0
    4.9052   -0.2266    1.4995 C   0  0  0  0  0  0  0  0  0  0  0  0
    4.0601   -0.7225    2.7512 C   0  0  1  0  0  0  0  0  0  0  0  0
    2.7443   -1.5731    2.7499 C   0  0  1  0  0  0  0  0  0  0  0  0
    1.7867   -1.5237    1.7370 O   0  0  0  0  0  0  0  0  0  0  0  0
    3.4913   -2.8834    3.1078 C   0  0  2  0  0  0  0  0  0  0  0  0
    4.7241   -2.0091    3.1970 C   0  0  1  0  0  0  0  0  0  0  0  0
    5.7151   -2.1650    2.1300 C   0  0  1  0  0  0  0  0  0  0  0  0
    3.5755   -4.3348    2.4430 C   0  0  2  0  0  0  0  0  0  0  0  0
    2.3478   -5.0491    2.7345 O   0  0  0  0  0  0  0  0  0  0  0  0
    2.1050   -5.4399    4.0888 C   0  0  0  0  0  0  0  0  0  0  0  0
    4.0666   -4.8640    1.0038 C   0  0  2  0  0  0  0  0  0  0  0  0
    3.6645   -6.2659    0.8978 O   0  0  0  0  0  0  0  0  0  0  0  0
    4.5744   -7.1980    0.2973 C   0  0  0  0  0  0  0  0  0  0  0  0
    3.7339   -4.4022   -0.3879 C   0  0  1  0  0  0  0  0  0  0  0  0
    2.4925   -3.6730   -0.7807 C   0  0  0  0  0  0  0  0  0  0  0  0
    3.8766   -3.0567   -0.9140 C   0  0  2  0  0  0  0  0  0  0  0  0
    4.4269   -2.5950   -2.2472 C   0  0  0  0  0  0  0  0  0  0  0  0
    4.5158   -1.1949   -1.6679 C   0  0  0  0  0  0  0  0  0  0  0  0
    4.1474   -1.7421   -0.2723 C   0  0  2  0  0  0  0  0  0  0  0  0
    7.1014   -4.9420    5.3215 H   0  0  0  0  0  0  0  0  0  0  0  0
    7.3411   -5.5385    3.6756 H   0  0  0  0  0  0  0  0  0  0  0  0
    6.2505   -6.3959    4.7924 H   0  0  0  0  0  0  0  0  0  0  0  0
    4.7080   -6.1650    2.9625 H   0  0  0  0  0  0  0  0  0  0  0  0
    6.1978   -5.4134    1.1657 H   0  0  0  0  0  0  0  0  0  0  0  0
    7.2669   -3.4913    1.7171 H   0  0  0  0  0  0  0  0  0  0  0  0
    5.8137    0.2641    1.8354 H   0  0  0  0  0  0  0  0  0  0  0  0
    4.3820    0.4991    0.8650 H   0  0  0  0  0  0  0  0  0  0  0  0
    4.0215   -0.0041    3.5713 H   0  0  0  0  0  0  0  0  0  0  0  0
    2.2180   -1.2932    3.6637 H   0  0  0  0  0  0  0  0  0  0  0  0
    2.2234   -1.5164    0.8923 H   0  0  0  0  0  0  0  0  0  0  0  0
    3.2469   -3.0466    4.1593 H   0  0  0  0  0  0  0  0  0  0  0  0
    5.1518   -1.9638    4.1983 H   0  0  0  0  0  0  0  0  0  0  0  0
    6.6089   -1.6278    2.4854 H   0  0  0  0  0  0  0  0  0  0  0  0
    1.2055   -6.0523    4.0994 H   0  0  0  0  0  0  0  0  0  0  0  0
    1.9097   -4.5839    4.7398 H   0  0  0  0  0  0  0  0  0  0  0  0
    2.9160   -6.0334    4.5141 H   0  0  0  0  0  0  0  0  0  0  0  0
    4.0740   -8.1429    0.1061 H   0  0  0  0  0  0  0  0  0  0  0  0
    5.4141   -7.4211    0.9533 H   0  0  0  0  0  0  0  0  0  0  0  0
    4.9631   -6.8605   -0.6527 H   0  0  0  0  0  0  0  0  0  0  0  0
    4.1578   -5.0635   -1.1314 H   0  0  0  0  0  0  0  0  0  0  0  0
    1.9912   -4.0244   -1.6845 H   0  0  0  0  0  0  0  0  0  0  0  0
    1.8235   -3.3907    0.0338 H   0  0  0  0  0  0  0  0  0  0  0  0
    5.4290   -2.9976   -2.4553 H   0  0  0  0  0  0  0  0  0  0  0  0
    3.7531   -2.6908   -3.1075 H   0  0  0  0  0  0  0  0  0  0  0  0
    5.5073   -0.7470   -1.7337 H   0  0  0  0  0  0  0  0  0  0  0  0
    3.7338   -0.5561   -2.0659 H   0  0  0  0  0  0  0  0  0  0  0  0
    3.2290   -1.1921   -0.0582 H   0  0  0  0  0  0  0  0  0  0  0  0
  1  2  1  0
  1 27  1  0
  1 28  1  0
  1 29  1  0
  2  3  1  0
  3 15  1  0
  3  4  1  0
  3 30  1  1
  4 18  1  0
  4  5  1  0
  4 31  1  6
  5 14  1  0
  5  6  1  0
  5 32  1  1
  7  6  1  6
  7 14  1  0
  7 26  1  0
  7  8  1  0
  8  9  1  0
  8 33  1  0
  8 34  1  0
  9 13  1  0
  9 10  1  0
  9 35  1  1
 10 11  1  0
 10 12  1  0
 10 36  1  1
 11 37  1  0
 12 13  1  0
 12 15  1  0
 12 38  1  1
 13 14  1  0
 13 39  1  1
 14 40  1  1
 15 16  1  1
 15 18  1  0
 16 17  1  0
 17 41  1  0
 17 42  1  0
 17 43  1  0
 18 19  1  6
 18 21  1  0
 19 20  1  0
 20 44  1  0
 20 45  1  0
 20 46  1  0
 21 23  1  0
 21 22  1  0
 21 47  1  6
 23 22  1  6
 22 48  1  0
 22 49  1  0
 23 26  1  0
 23 24  1  0
 24 25  1  0
 24 50  1  0
 24 51  1  0
 25 26  1  0
 25 52  1  0
 25 53  1  0
 26 54  1  1
M  END
>  <i_m_ct_stereo_status>  (142) 
1

>  <s_m_source_file>  (142) 
/var/tmp/pbs.5076255.sched01/tmpguyree9i/45_f3p7e6s.sdf

>  <i_m_source_file_index>  (142) 
17

>  <i_lp_mmshare_version>  (142) 
48012

>  <i_f3d_flags>  (142) 
2

>  <s_epik_input>  (142) 
W09IXVtDQEBIXTFbQ0BIXShbQ0gyXTIpW0NASF0zW0NAQEhdMVtDQEBdKE9bQ0gzXSkoW0NAQEhdNE9bQ0gzXSlbQ0BdKE9bQ0gzXSkoW0NAQEhdNFtDQEBIXShPNSlbQ0BIXTNbQ0BAXTI1NilbQ0BIXTdbQ0BdOChbQ0gyXTcpW0NAQEhdNltDSDJdW0NIMl04

>  <s_epik_cmdline>  (142) 
J2VwaWtfcHl0aG9uJywgJy1waHQnLCAnMi4wJywgJy1waCcsICc3LjAnLCAnLXRuJywgJzgnLCAnLW1hJywgJzIwMCcsICctaW1hZScsICc8aW5maWxlLm1hZT4nLCAnLW9tYWUnLCAnPG91dGZpbGUubWFlPic=

>  <r_lp_tautomer_probability>  (142) 
1

>  <r_epik_Ionization_Penalty>  (142) 
1.08897e-07

>  <r_epik_Ionization_Penalty_Charging>  (142) 
0

>  <r_epik_Ionization_Penalty_Neutral>  (142) 
1.08897e-07

>  <r_epik_State_Penalty>  (142) 
-0

>  <r_epik_Charging_Adjusted_Penalty>  (142) 
0

>  <i_epik_Tot_Q>  (142) 
0

>  <i_epik_Tot_abs_Q>  (142) 
0

>  <s_lp_Force_Field>  (142) 
OPLS3e

>  <r_lp_Energy>  (142) 
191.152

>  <b_lp_Chiralities_Consistent>  (142) 
0

>  <s_lp_Variant>  (142) 
41:0-1

>  <s_i_glide_gridfile>  (142) 
pfpi4k_grid

>  <i_i_glide_lignum>  (142) 
17

>  <i_i_glide_rotatable_bonds>  (142) 
4

>  <r_i_docking_score>  (142) 
-2.45432

>  <r_i_glide_ligand_efficiency>  (142) 
-0.0943968

>  <r_i_glide_ligand_efficiency_sa>  (142) 
-0.27965

>  <r_i_glide_ligand_efficiency_ln>  (142) 
-0.576388

>  <r_i_glide_gscore>  (142) 
-2.45432

>  <r_i_glide_lipo>  (142) 
-0.662649

>  <r_i_glide_hbond>  (142) 
-0.00936855

>  <r_i_glide_metal>  (142) 
-0

>  <r_i_glide_rewards>  (142) 
-0.951518

>  <r_i_glide_evdw>  (142) 
-17.1522

>  <r_i_glide_ecoul>  (142) 
0.178855

>  <r_i_glide_erotb>  (142) 
0

>  <r_i_glide_esite>  (142) 
0

>  <r_i_glide_emodel>  (142) 
-16.3349

>  <r_i_glide_energy>  (142) 
-16.9734

>  <r_i_glide_einternal>  (142) 
5.88365

>  <r_i_glide_intrahb_reward>  (142) 
-0

>  <i_i_glide_confnum>  (142) 
2

>  <i_i_glide_posenum>  (142) 
8

>  <r_i_glide_eff_state_penalty>  (142) 
0

>  <ligand_id>  (142) 
41

>  <original_smiles>  (142) 
COC1C2C3OC45CC6C(O)C(C6C34)C1(OC)C2(OC)C1CC12CCC25

>  <smiles>  (142) 
[H]OC1([H])C2([H])C([H])([H])C34OC5([H])C3([H])C2([H])C1([H])C1(OC([H])([H])[H])C([H])(OC([H])([H])[H])C5([H])C1(OC([H])([H])[H])C1([H])C([H])([H])C12C([H])([H])C([H])([H])C42[H]

$$$$
41:0:1
     RDKit          3D

 54 61  0  0  1  0  0  0  0  0999 V2000
    7.6944   -5.4566    2.1486 C   0  0  0  0  0  0  0  0  0  0  0  0
    6.5449   -4.6744    2.4383 O   0  0  0  0  0  0  0  0  0  0  0  0
    5.3854   -5.0411    1.7010 C   0  0  2  0  0  0  0  0  0  0  0  0
    5.3781   -4.5732    0.2268 C   0  0  2  0  0  0  0  0  0  0  0  0
    6.2018   -3.2887   -0.1971 C   0  0  1  0  0  0  0  0  0  0  0  0
    5.9869   -2.2395   -1.2388 O   0  0  0  0  0  0  0  0  0  0  0  0
    5.2796   -1.3927   -0.2663 C   0  0  2  0  0  0  0  0  0  0  0  0
    5.3519   -0.1264    0.5641 C   0  0  0  0  0  0  0  0  0  0  0  0
    5.0552   -0.6264    2.0173 C   0  0  1  0  0  0  0  0  0  0  0  0
    3.7723   -1.3403    2.5170 C   0  0  1  0  0  0  0  0  0  0  0  0
    2.4995   -1.1083    1.9083 O   0  0  0  0  0  0  0  0  0  0  0  0
    4.4528   -2.7173    2.5460 C   0  0  2  0  0  0  0  0  0  0  0  0
    5.7093   -1.9988    2.1115 C   0  0  1  0  0  0  0  0  0  0  0  0
    6.1682   -2.1755    0.7361 C   0  0  1  0  0  0  0  0  0  0  0  0
    4.1280   -4.1172    1.9322 C   0  0  2  0  0  0  0  0  0  0  0  0
    3.0540   -4.6797    2.6767 O   0  0  0  0  0  0  0  0  0  0  0  0
    3.3611   -5.3208    3.8966 C   0  0  0  0  0  0  0  0  0  0  0  0
    3.8511   -4.5490    0.4327 C   0  0  2  0  0  0  0  0  0  0  0  0
    3.4291   -5.9263    0.3811 O   0  0  0  0  0  0  0  0  0  0  0  0
    2.0447   -6.2494    0.4949 C   0  0  0  0  0  0  0  0  0  0  0  0
    3.1490   -3.9929   -0.7103 C   0  0  1  0  0  0  0  0  0  0  0  0
    1.9182   -3.1405   -0.6487 C   0  0  0  0  0  0  0  0  0  0  0  0
    3.2145   -2.6411   -1.3118 C   0  0  2  0  0  0  0  0  0  0  0  0
    3.2333   -2.2318   -2.7480 C   0  0  0  0  0  0  0  0  0  0  0  0
    3.6930   -0.8902   -2.2687 C   0  0  0  0  0  0  0  0  0  0  0  0
    3.8341   -1.4209   -0.8381 C   0  0  2  0  0  0  0  0  0  0  0  0
    8.5145   -5.1314    2.7827 H   0  0  0  0  0  0  0  0  0  0  0  0
    8.0039   -5.3298    1.1095 H   0  0  0  0  0  0  0  0  0  0  0  0
    7.5134   -6.5172    2.3531 H   0  0  0  0  0  0  0  0  0  0  0  0
    5.1804   -6.1120    1.7732 H   0  0  0  0  0  0  0  0  0  0  0  0
    5.6478   -5.3961   -0.4326 H   0  0  0  0  0  0  0  0  0  0  0  0
    7.2423   -3.6177   -0.2755 H   0  0  0  0  0  0  0  0  0  0  0  0
    6.3462    0.3108    0.4931 H   0  0  0  0  0  0  0  0  0  0  0  0
    4.5902    0.5880    0.2839 H   0  0  0  0  0  0  0  0  0  0  0  0
    5.4297    0.0286    2.8060 H   0  0  0  0  0  0  0  0  0  0  0  0
    3.6732   -1.0538    3.5572 H   0  0  0  0  0  0  0  0  0  0  0  0
    2.5342   -1.3928    1.0272 H   0  0  0  0  0  0  0  0  0  0  0  0
    4.6234   -2.9015    3.6105 H   0  0  0  0  0  0  0  0  0  0  0  0
    6.4792   -2.0086    2.8696 H   0  0  0  0  0  0  0  0  0  0  0  0
    7.1881   -1.7685    0.7027 H   0  0  0  0  0  0  0  0  0  0  0  0
    2.4383   -5.8092    4.2105 H   0  0  0  0  0  0  0  0  0  0  0  0
    3.6459   -4.6042    4.6630 H   0  0  0  0  0  0  0  0  0  0  0  0
    4.1187   -6.0890    3.8002 H   0  0  0  0  0  0  0  0  0  0  0  0
    1.9786   -7.3006    0.7887 H   0  0  0  0  0  0  0  0  0  0  0  0
    1.5242   -6.1080   -0.4541 H   0  0  0  0  0  0  0  0  0  0  0  0
    1.5291   -5.6950    1.2649 H   0  0  0  0  0  0  0  0  0  0  0  0
    3.2969   -4.6387   -1.4897 H   0  0  0  0  0  0  0  0  0  0  0  0
    1.1312   -3.4751   -1.3095 H   0  0  0  0  0  0  0  0  0  0  0  0
    1.6515   -2.7909    0.3457 H   0  0  0  0  0  0  0  0  0  0  0  0
    4.0261   -2.6877   -3.3502 H   0  0  0  0  0  0  0  0  0  0  0  0
    2.2733   -2.1605   -3.2575 H   0  0  0  0  0  0  0  0  0  0  0  0
    4.5893   -0.4656   -2.7113 H   0  0  0  0  0  0  0  0  0  0  0  0
    2.7964   -0.2914   -2.4052 H   0  0  0  0  0  0  0  0  0  0  0  0
    3.1390   -0.7952   -0.2873 H   0  0  0  0  0  0  0  0  0  0  0  0
  1  2  1  0
  1 27  1  0
  1 28  1  0
  1 29  1  0
  2  3  1  0
  3 15  1  0
  3  4  1  0
  3 30  1  6
  4 18  1  0
  4  5  1  0
  4 31  1  6
  5 14  1  0
  5  6  1  0
  5 32  1  6
  7  6  1  6
  7 14  1  0
  7 26  1  0
  7  8  1  0
  8  9  1  0
  8 33  1  0
  8 34  1  0
  9 13  1  0
  9 10  1  0
  9 35  1  1
 10 11  1  0
 10 12  1  0
 10 36  1  1
 11 37  1  0
 12 13  1  0
 12 15  1  0
 12 38  1  1
 13 14  1  0
 13 39  1  1
 14 40  1  1
 15 16  1  1
 15 18  1  0
 16 17  1  0
 17 41  1  0
 17 42  1  0
 17 43  1  0
 18 19  1  1
 18 21  1  0
 19 20  1  0
 20 44  1  0
 20 45  1  0
 20 46  1  0
 21 23  1  0
 21 22  1  0
 21 47  1  6
 23 22  1  1
 22 48  1  0
 22 49  1  0
 23 26  1  0
 23 24  1  0
 24 25  1  0
 24 50  1  0
 24 51  1  0
 25 26  1  0
 25 52  1  0
 25 53  1  0
 26 54  1  1
M  END
>  <i_m_ct_stereo_status>  (143) 
1

>  <s_m_source_file>  (143) 
/var/tmp/pbs.5076255.sched01/tmpguyree9i/45_f3p7e6s.sdf

>  <i_m_source_file_index>  (143) 
17

>  <i_lp_mmshare_version>  (143) 
48012

>  <i_f3d_flags>  (143) 
2

>  <s_epik_input>  (143) 
W09IXVtDQEBIXTFbQ0BIXShbQ0gyXTIpW0NASF0zW0NAQEhdMVtDQEBdKE9bQ0gzXSkoW0NAQEhdNE9bQ0gzXSlbQ0BdKE9bQ0gzXSkoW0NAQEhdNFtDQEBIXShPNSlbQ0BIXTNbQ0BAXTI1NilbQ0BIXTdbQ0BdOChbQ0gyXTcpW0NAQEhdNltDSDJdW0NIMl04

>  <s_epik_cmdline>  (143) 
J2VwaWtfcHl0aG9uJywgJy1waHQnLCAnMi4wJywgJy1waCcsICc3LjAnLCAnLXRuJywgJzgnLCAnLW1hJywgJzIwMCcsICctaW1hZScsICc8aW5maWxlLm1hZT4nLCAnLW9tYWUnLCAnPG91dGZpbGUubWFlPic=

>  <r_lp_tautomer_probability>  (143) 
1

>  <r_epik_Ionization_Penalty>  (143) 
1.08897e-07

>  <r_epik_Ionization_Penalty_Charging>  (143) 
0

>  <r_epik_Ionization_Penalty_Neutral>  (143) 
1.08897e-07

>  <r_epik_State_Penalty>  (143) 
-0

>  <r_epik_Charging_Adjusted_Penalty>  (143) 
0

>  <i_epik_Tot_Q>  (143) 
0

>  <i_epik_Tot_abs_Q>  (143) 
0

>  <s_lp_Force_Field>  (143) 
OPLS3e

>  <r_lp_Energy>  (143) 
191.152

>  <b_lp_Chiralities_Consistent>  (143) 
0

>  <s_lp_Variant>  (143) 
41:0-1

>  <s_i_glide_gridfile>  (143) 
pfpi4k_grid

>  <i_i_glide_lignum>  (143) 
17

>  <i_i_glide_rotatable_bonds>  (143) 
4

>  <r_i_docking_score>  (143) 
-2.43988

>  <r_i_glide_ligand_efficiency>  (143) 
-0.0938414

>  <r_i_glide_ligand_efficiency_sa>  (143) 
-0.278005

>  <r_i_glide_ligand_efficiency_ln>  (143) 
-0.572997

>  <r_i_glide_gscore>  (143) 
-2.43988

>  <r_i_glide_lipo>  (143) 
-0.700776

>  <r_i_glide_hbond>  (143) 
0

>  <r_i_glide_metal>  (143) 
-0

>  <r_i_glide_rewards>  (143) 
-0.951518

>  <r_i_glide_evdw>  (143) 
-12.9419

>  <r_i_glide_ecoul>  (143) 
-0.936593

>  <r_i_glide_erotb>  (143) 
0

>  <r_i_glide_esite>  (143) 
0

>  <r_i_glide_emodel>  (143) 
-15.0004

>  <r_i_glide_energy>  (143) 
-13.8785

>  <r_i_glide_einternal>  (143) 
1.3174

>  <r_i_glide_intrahb_reward>  (143) 
-0

>  <i_i_glide_confnum>  (143) 
2

>  <i_i_glide_posenum>  (143) 
6

>  <r_i_glide_eff_state_penalty>  (143) 
0

>  <ligand_id>  (143) 
41

>  <original_smiles>  (143) 
COC1C2C3OC45CC6C(O)C(C6C34)C1(OC)C2(OC)C1CC12CCC25

>  <smiles>  (143) 
[H]OC1([H])C2([H])C([H])([H])C34OC5([H])C3([H])C2([H])C1([H])C1(OC([H])([H])[H])C([H])(OC([H])([H])[H])C5([H])C1(OC([H])([H])[H])C1([H])C([H])([H])C12C([H])([H])C([H])([H])C42[H]

$$$$
41:0:2
     RDKit          3D

 54 61  0  0  1  0  0  0  0  0999 V2000
    5.6338   -5.4413    4.7266 C   0  0  0  0  0  0  0  0  0  0  0  0
    4.8719   -4.3608    4.2064 O   0  0  0  0  0  0  0  0  0  0  0  0
    3.9605   -4.7372    3.1785 C   0  0  2  0  0  0  0  0  0  0  0  0
    4.5866   -5.0973    1.7951 C   0  0  2  0  0  0  0  0  0  0  0  0
    5.9128   -4.3768    1.3557 C   0  0  1  0  0  0  0  0  0  0  0  0
    6.3951   -3.9464    0.0152 O   0  0  0  0  0  0  0  0  0  0  0  0
    5.8854   -2.5731    0.2477 C   0  0  2  0  0  0  0  0  0  0  0  0
    6.3145   -1.1371    0.5584 C   0  0  0  0  0  0  0  0  0  0  0  0
    5.4374   -0.7822    1.8410 C   0  0  1  0  0  0  0  0  0  0  0  0
    3.8749   -0.8117    1.9703 C   0  0  1  0  0  0  0  0  0  0  0  0
    3.0659   -0.5747    0.8602 O   0  0  0  0  0  0  0  0  0  0  0  0
    3.8721   -2.1661    2.7153 C   0  0  2  0  0  0  0  0  0  0  0  0
    5.3749   -2.0718    2.6506 C   0  0  1  0  0  0  0  0  0  0  0  0
    6.0606   -2.9803    1.7207 C   0  0  1  0  0  0  0  0  0  0  0  0
    3.1629   -3.5861    2.4769 C   0  0  2  0  0  0  0  0  0  0  0  0
    1.7834   -3.4969    2.8753 O   0  0  0  0  0  0  0  0  0  0  0  0
    1.4851   -3.3249    4.2563 C   0  0  0  0  0  0  0  0  0  0  0  0
    3.2031   -4.6605    1.2786 C   0  0  2  0  0  0  0  0  0  0  0  0
    2.1575   -5.6418    1.5467 O   0  0  0  0  0  0  0  0  0  0  0  0
    2.4985   -7.0288    1.4083 C   0  0  0  0  0  0  0  0  0  0  0  0
    3.0548   -4.5151   -0.2187 C   0  0  1  0  0  0  0  0  0  0  0  0
    2.3007   -3.4146   -0.8814 C   0  0  0  0  0  0  0  0  0  0  0  0
    3.7963   -3.5955   -1.0891 C   0  0  2  0  0  0  0  0  0  0  0  0
    4.4077   -3.8503   -2.4472 C   0  0  0  0  0  0  0  0  0  0  0  0
    5.2309   -2.6039   -2.2596 C   0  0  0  0  0  0  0  0  0  0  0  0
    4.7485   -2.4856   -0.8075 C   0  0  2  0  0  0  0  0  0  0  0  0
    6.3471   -5.0723    5.4705 H   0  0  0  0  0  0  0  0  0  0  0  0
    6.2007   -5.9493    3.9421 H   0  0  0  0  0  0  0  0  0  0  0  0
    4.9748   -6.1662    5.2112 H   0  0  0  0  0  0  0  0  0  0  0  0
    3.3108   -5.5162    3.5746 H   0  0  0  0  0  0  0  0  0  0  0  0
    4.7691   -6.1740    1.7261 H   0  0  0  0  0  0  0  0  0  0  0  0
    6.7179   -4.9202    1.8376 H   0  0  0  0  0  0  0  0  0  0  0  0
    7.3774   -1.0995    0.7947 H   0  0  0  0  0  0  0  0  0  0  0  0
    6.1605   -0.4506   -0.2785 H   0  0  0  0  0  0  0  0  0  0  0  0
    5.8308    0.0409    2.4422 H   0  0  0  0  0  0  0  0  0  0  0  0
    3.6145   -0.0512    2.7029 H   0  0  0  0  0  0  0  0  0  0  0  0
    2.1762   -0.4417    1.1595 H   0  0  0  0  0  0  0  0  0  0  0  0
    3.6611   -1.9050    3.7558 H   0  0  0  0  0  0  0  0  0  0  0  0
    5.8118   -1.9895    3.6506 H   0  0  0  0  0  0  0  0  0  0  0  0
    7.1094   -2.9195    1.9914 H   0  0  0  0  0  0  0  0  0  0  0  0
    0.4015   -3.3705    4.3588 H   0  0  0  0  0  0  0  0  0  0  0  0
    1.7973   -2.3505    4.6311 H   0  0  0  0  0  0  0  0  0  0  0  0
    1.9141   -4.1090    4.8814 H   0  0  0  0  0  0  0  0  0  0  0  0
    1.5997   -7.6369    1.3486 H   0  0  0  0  0  0  0  0  0  0  0  0
    3.0723   -7.3655    2.2773 H   0  0  0  0  0  0  0  0  0  0  0  0
    3.1014   -7.2319    0.5198 H   0  0  0  0  0  0  0  0  0  0  0  0
    2.9447   -5.4844   -0.6910 H   0  0  0  0  0  0  0  0  0  0  0  0
    1.6396   -3.6818   -1.6959 H   0  0  0  0  0  0  0  0  0  0  0  0
    1.8851   -2.6531   -0.2052 H   0  0  0  0  0  0  0  0  0  0  0  0
    5.0494   -4.7470   -2.4641 H   0  0  0  0  0  0  0  0  0  0  0  0
    3.7218   -3.8093   -3.2886 H   0  0  0  0  0  0  0  0  0  0  0  0
    6.2998   -2.7534   -2.3766 H   0  0  0  0  0  0  0  0  0  0  0  0
    4.8625   -1.7744   -2.8568 H   0  0  0  0  0  0  0  0  0  0  0  0
    4.2457   -1.5230   -0.8070 H   0  0  0  0  0  0  0  0  0  0  0  0
  1  2  1  0
  1 27  1  0
  1 28  1  0
  1 29  1  0
  2  3  1  0
  3 15  1  0
  3  4  1  0
  3 30  1  1
  4 18  1  0
  4  5  1  0
  4 31  1  1
  5 14  1  0
  5  6  1  0
  5 32  1  1
  7  6  1  6
  7 14  1  0
  7 26  1  0
  7  8  1  0
  8  9  1  0
  8 33  1  0
  8 34  1  0
  9 13  1  0
  9 10  1  0
  9 35  1  1
 10 11  1  0
 10 12  1  0
 10 36  1  1
 11 37  1  0
 12 13  1  0
 12 15  1  0
 12 38  1  1
 13 14  1  0
 13 39  1  1
 14 40  1  1
 15 16  1  1
 15 18  1  0
 16 17  1  0
 17 41  1  0
 17 42  1  0
 17 43  1  0
 18 19  1  1
 18 21  1  0
 19 20  1  0
 20 44  1  0
 20 45  1  0
 20 46  1  0
 21 23  1  0
 21 22  1  0
 21 47  1  6
 23 22  1  6
 22 48  1  0
 22 49  1  0
 23 26  1  0
 23 24  1  0
 24 25  1  0
 24 50  1  0
 24 51  1  0
 25 26  1  0
 25 52  1  0
 25 53  1  0
 26 54  1  6
M  END
>  <i_m_ct_stereo_status>  (144) 
1

>  <s_m_source_file>  (144) 
/var/tmp/pbs.5076255.sched01/tmpguyree9i/45_f3p7e6s.sdf

>  <i_m_source_file_index>  (144) 
17

>  <i_lp_mmshare_version>  (144) 
48012

>  <i_f3d_flags>  (144) 
2

>  <s_epik_input>  (144) 
W09IXVtDQEBIXTFbQ0BIXShbQ0gyXTIpW0NASF0zW0NAQEhdMVtDQEBdKE9bQ0gzXSkoW0NAQEhdNE9bQ0gzXSlbQ0BdKE9bQ0gzXSkoW0NAQEhdNFtDQEBIXShPNSlbQ0BIXTNbQ0BAXTI1NilbQ0BIXTdbQ0BdOChbQ0gyXTcpW0NAQEhdNltDSDJdW0NIMl04

>  <s_epik_cmdline>  (144) 
J2VwaWtfcHl0aG9uJywgJy1waHQnLCAnMi4wJywgJy1waCcsICc3LjAnLCAnLXRuJywgJzgnLCAnLW1hJywgJzIwMCcsICctaW1hZScsICc8aW5maWxlLm1hZT4nLCAnLW9tYWUnLCAnPG91dGZpbGUubWFlPic=

>  <r_lp_tautomer_probability>  (144) 
1

>  <r_epik_Ionization_Penalty>  (144) 
1.08897e-07

>  <r_epik_Ionization_Penalty_Charging>  (144) 
0

>  <r_epik_Ionization_Penalty_Neutral>  (144) 
1.08897e-07

>  <r_epik_State_Penalty>  (144) 
-0

>  <r_epik_Charging_Adjusted_Penalty>  (144) 
0

>  <i_epik_Tot_Q>  (144) 
0

>  <i_epik_Tot_abs_Q>  (144) 
0

>  <s_lp_Force_Field>  (144) 
OPLS3e

>  <r_lp_Energy>  (144) 
191.152

>  <b_lp_Chiralities_Consistent>  (144) 
0

>  <s_lp_Variant>  (144) 
41:0-1

>  <s_i_glide_gridfile>  (144) 
pfpi4k_grid

>  <i_i_glide_lignum>  (144) 
17

>  <i_i_glide_rotatable_bonds>  (144) 
4

>  <r_i_docking_score>  (144) 
-2.3516

>  <r_i_glide_ligand_efficiency>  (144) 
-0.0904463

>  <r_i_glide_ligand_efficiency_sa>  (144) 
-0.267947

>  <r_i_glide_ligand_efficiency_ln>  (144) 
-0.552267

>  <r_i_glide_gscore>  (144) 
-2.3516

>  <r_i_glide_lipo>  (144) 
-0.57233

>  <r_i_glide_hbond>  (144) 
0

>  <r_i_glide_metal>  (144) 
-0

>  <r_i_glide_rewards>  (144) 
-0.951518

>  <r_i_glide_evdw>  (144) 
-15.9062

>  <r_i_glide_ecoul>  (144) 
-0.216312

>  <r_i_glide_erotb>  (144) 
0

>  <r_i_glide_esite>  (144) 
0

>  <r_i_glide_emodel>  (144) 
-14.8596

>  <r_i_glide_energy>  (144) 
-16.1225

>  <r_i_glide_einternal>  (144) 
7.12608

>  <r_i_glide_intrahb_reward>  (144) 
-0

>  <i_i_glide_confnum>  (144) 
2

>  <i_i_glide_posenum>  (144) 
4

>  <r_i_glide_eff_state_penalty>  (144) 
0

>  <ligand_id>  (144) 
41

>  <original_smiles>  (144) 
COC1C2C3OC45CC6C(O)C(C6C34)C1(OC)C2(OC)C1CC12CCC25

>  <smiles>  (144) 
[H]OC1([H])C2([H])C([H])([H])C34OC5([H])C3([H])C2([H])C1([H])C1(OC([H])([H])[H])C([H])(OC([H])([H])[H])C5([H])C1(OC([H])([H])[H])C1([H])C([H])([H])C12C([H])([H])C([H])([H])C42[H]

$$$$
42:0:0
     RDKit          3D

 42 44  0  0  1  0  0  0  0  0999 V2000
    6.0043   -0.5693    2.8838 O   0  0  0  0  0  0  0  0  0  0  0  0
    5.2629   -0.2033    1.7340 C   0  0  0  0  0  0  0  0  0  0  0  0
    4.9675   -1.4380    0.8919 C   0  0  2  0  0  0  0  0  0  0  0  0
    6.0890   -1.6942    0.0343 O   0  0  0  0  0  0  0  0  0  0  0  0
    5.9725   -2.8495   -0.7833 C   0  0  1  0  0  0  0  0  0  0  0  0
    5.8395   -4.0528    0.0311 N   0  0  0  0  0  0  0  0  0  0  0  0
    6.9010   -4.4921    0.6314 C   0  0  0  0  0  0  0  0  0  0  0  0
    8.6134   -3.9477    0.4541 S   0  0  0  0  0  0  0  0  0  0  0  0
    9.1996   -5.1451    1.6444 C   0  0  0  0  0  0  0  0  0  0  0  0
    7.9793   -5.8425    2.2229 C   0  0  0  0  0  0  0  0  0  0  0  0
    8.0761   -6.5927    3.2026 O   0  0  0  0  0  0  0  0  0  0  0  0
    6.8341   -5.5253    1.5880 N   0  0  0  0  0  0  0  0  0  0  0  0
    5.5597   -6.1365    1.9751 C   0  0  0  0  0  0  0  0  0  0  0  0
    5.4634   -7.6172    1.7025 C   0  0  0  0  0  0  0  0  0  0  0  0
    6.4019   -8.6195    1.5792 C   0  0  0  0  0  0  0  0  0  0  0  0
    5.6546   -9.7948    1.3178 C   0  0  0  0  0  0  0  0  0  0  0  0
    4.3418   -9.4523    1.2814 C   0  0  0  0  0  0  0  0  0  0  0  0
    4.2063   -8.1089    1.5253 O   0  0  0  0  0  0  0  0  0  0  0  0
    4.7388   -2.7103   -1.7012 C   0  0  1  0  0  0  0  0  0  0  0  0
    4.6091   -3.8485   -2.5317 O   0  0  0  0  0  0  0  0  0  0  0  0
    3.4436   -2.4049   -0.9249 C   0  0  1  0  0  0  0  0  0  0  0  0
    3.0474   -3.5451   -0.1964 O   0  0  0  0  0  0  0  0  0  0  0  0
    3.7121   -1.2242    0.0285 C   0  0  1  0  0  0  0  0  0  0  0  0
    2.6083   -1.0220    0.8755 O   0  0  0  0  0  0  0  0  0  0  0  0
    6.8862   -0.8020    2.6297 H   0  0  0  0  0  0  0  0  0  0  0  0
    4.3818    0.2801    2.1166 H   0  0  0  0  0  0  0  0  0  0  0  0
    5.8054    0.5378    1.1454 H   0  0  0  0  0  0  0  0  0  0  0  0
    4.8031   -2.2786    1.5663 H   0  0  0  0  0  0  0  0  0  0  0  0
    6.8427   -2.9167   -1.4250 H   0  0  0  0  0  0  0  0  0  0  0  0
    9.7435   -4.6707    2.4618 H   0  0  0  0  0  0  0  0  0  0  0  0
    9.8193   -5.8789    1.1479 H   0  0  0  0  0  0  0  0  0  0  0  0
    4.6615   -5.6773    1.5341 H   0  0  0  0  0  0  0  0  0  0  0  0
    5.3875   -5.9796    3.0553 H   0  0  0  0  0  0  0  0  0  0  0  0
    7.4684   -8.4982    1.6742 H   0  0  0  0  0  0  0  0  0  0  0  0
    6.0458  -10.8022    1.1574 H   0  0  0  0  0  0  0  0  0  0  0  0
    3.4205  -10.0043    1.1103 H   0  0  0  0  0  0  0  0  0  0  0  0
    4.9567   -1.8621   -2.3513 H   0  0  0  0  0  0  0  0  0  0  0  0
    4.1585   -4.5205   -2.0328 H   0  0  0  0  0  0  0  0  0  0  0  0
    2.6356   -2.1620   -1.6212 H   0  0  0  0  0  0  0  0  0  0  0  0
    3.7820   -3.8133    0.3277 H   0  0  0  0  0  0  0  0  0  0  0  0
    3.8611   -0.3252   -0.5703 H   0  0  0  0  0  0  0  0  0  0  0  0
    1.8378   -1.0324    0.2772 H   0  0  0  0  0  0  0  0  0  0  0  0
  1  2  1  0
  1 25  1  0
  2  3  1  0
  2 26  1  0
  2 27  1  0
  3 23  1  0
  3  4  1  0
  3 28  1  1
  4  5  1  0
  5 19  1  0
  5 29  1  6
  5  6  1  0
  6  7  2  0
  7  8  1  0
  7 12  1  0
  8  9  1  0
  9 10  1  0
  9 30  1  0
  9 31  1  0
 10 12  1  0
 10 11  2  0
 12 13  1  0
 13 14  1  0
 13 32  1  0
 13 33  1  0
 14 18  1  0
 14 15  2  0
 15 16  1  0
 15 34  1  0
 16 17  2  0
 16 35  1  0
 17 18  1  0
 17 36  1  0
 19 20  1  0
 19 21  1  0
 19 37  1  6
 20 38  1  0
 21 22  1  0
 21 23  1  0
 21 39  1  6
 22 40  1  0
 23 24  1  0
 23 41  1  6
 24 42  1  0
M  END
>  <i_m_ct_stereo_status>  (145) 
1

>  <s_m_source_file>  (145) 
/var/tmp/pbs.5076255.sched01/tmpguyree9i/45_f3p7e6s.sdf

>  <i_m_source_file_index>  (145) 
18

>  <i_lp_mmshare_version>  (145) 
48012

>  <i_f3d_flags>  (145) 
0

>  <s_epik_input>  (145) 
W09IXVtDSDJdW0NAQEhdMU9bQ0BIXShbQ0BASF0oW09IXSlbQ0BASF0oW09IXSlbQ0BIXTFbT0hdKS9OPWMyXHNbY0hdYyhbT0hdKW4yW0NIMl1jM1tjSF1bY0hdW2NIXW8z

>  <s_epik_cmdline>  (145) 
J2VwaWtfcHl0aG9uJywgJy1waHQnLCAnMi4wJywgJy1waCcsICc3LjAnLCAnLXRuJywgJzgnLCAnLW1hJywgJzIwMCcsICctaW1hZScsICc8aW5maWxlLm1hZT4nLCAnLW9tYWUnLCAnPG91dGZpbGUubWFlPic=

>  <r_lp_tautomer_probability>  (145) 
0.5

>  <r_epik_Ionization_Penalty>  (145) 
0.000139864

>  <r_epik_Ionization_Penalty_Charging>  (145) 
0

>  <r_epik_Ionization_Penalty_Neutral>  (145) 
0.000139864

>  <r_epik_State_Penalty>  (145) 
0.41068

>  <r_epik_Charging_Adjusted_Penalty>  (145) 
0.41068

>  <i_epik_Tot_Q>  (145) 
0

>  <i_epik_Tot_abs_Q>  (145) 
0

>  <s_epik_Chemistry_Notes>  (145) 
This compound has an imine and may undergo hydrolysis. This compound contains an acetal/aminal-like group ( X-CH(R)-Y where X, Y are N, S, or O) that may be acid/base labile, releasing an aldehyde.

>  <s_lp_Force_Field>  (145) 
OPLS3e

>  <r_lp_Energy>  (145) 
11.8819

>  <b_lp_Chiralities_Consistent>  (145) 
1

>  <s_lp_Variant>  (145) 
42:0-1

>  <s_i_glide_gridfile>  (145) 
pfpi4k_grid

>  <i_i_glide_lignum>  (145) 
18

>  <i_i_glide_rotatable_bonds>  (145) 
8

>  <r_i_docking_score>  (145) 
-4.0306

>  <r_i_glide_ligand_efficiency>  (145) 
-0.167942

>  <r_i_glide_ligand_efficiency_sa>  (145) 
-0.484428

>  <r_i_glide_ligand_efficiency_ln>  (145) 
-0.964708

>  <r_i_glide_gscore>  (145) 
-4.0306

>  <r_i_glide_lipo>  (145) 
-0.472582

>  <r_i_glide_hbond>  (145) 
0

>  <r_i_glide_metal>  (145) 
-0

>  <r_i_glide_rewards>  (145) 
-1.75548

>  <r_i_glide_evdw>  (145) 
-22.3678

>  <r_i_glide_ecoul>  (145) 
-8.51128

>  <r_i_glide_erotb>  (145) 
0.596599

>  <r_i_glide_esite>  (145) 
-0.0040612

>  <r_i_glide_emodel>  (145) 
-44.3554

>  <r_i_glide_energy>  (145) 
-30.8791

>  <r_i_glide_einternal>  (145) 
1.91734

>  <r_i_glide_intrahb_reward>  (145) 
-0.5

>  <i_i_glide_confnum>  (145) 
2

>  <i_i_glide_posenum>  (145) 
26

>  <r_i_glide_eff_state_penalty>  (145) 
0

>  <ligand_id>  (145) 
42

>  <original_smiles>  (145) 
OCC1OC(N=c2scc(O)n2Cc2ccco2)C(O)C(O)C1O

>  <smiles>  (145) 
[H]OC([H])([H])C1([H])OC([H])(N=C2SC([H])([H])C(=O)N2C([H])([H])c2oc([H])c([H])c2[H])C([H])(O[H])C([H])(O[H])C1([H])O[H]

$$$$
42:0:1
     RDKit          3D

 42 44  0  0  1  0  0  0  0  0999 V2000
    4.1219   -6.8689    3.5572 O   0  0  0  0  0  0  0  0  0  0  0  0
    3.4527   -7.3640    2.4122 C   0  0  0  0  0  0  0  0  0  0  0  0
    1.9475   -7.5359    2.7326 C   0  0  2  0  0  0  0  0  0  0  0  0
    1.7602   -8.7239    3.4996 O   0  0  0  0  0  0  0  0  0  0  0  0
    0.4464   -8.9211    4.0185 C   0  0  1  0  0  0  0  0  0  0  0  0
    0.0559   -7.8457    4.9213 N   0  0  0  0  0  0  0  0  0  0  0  0
    0.6188   -7.7432    6.0778 C   0  0  0  0  0  0  0  0  0  0  0  0
    1.7751   -8.8622    6.8770 S   0  0  0  0  0  0  0  0  0  0  0  0
    1.9265   -7.8587    8.3422 C   0  0  0  0  0  0  0  0  0  0  0  0
    1.0318   -6.6478    8.1020 C   0  0  0  0  0  0  0  0  0  0  0  0
    0.9324   -5.7617    8.9502 O   0  0  0  0  0  0  0  0  0  0  0  0
    0.3850   -6.6328    6.9202 N   0  0  0  0  0  0  0  0  0  0  0  0
   -0.4658   -5.4801    6.4904 C   0  0  0  0  0  0  0  0  0  0  0  0
    0.2499   -4.4661    5.6357 C   0  0  0  0  0  0  0  0  0  0  0  0
    1.3796   -4.5354    4.8574 C   0  0  0  0  0  0  0  0  0  0  0  0
    1.4786   -3.2869    4.1908 C   0  0  0  0  0  0  0  0  0  0  0  0
    0.5279   -2.4715    4.7425 C   0  0  0  0  0  0  0  0  0  0  0  0
   -0.2569   -3.1908    5.6032 O   0  0  0  0  0  0  0  0  0  0  0  0
   -0.5201   -9.0070    2.8183 C   0  0  1  0  0  0  0  0  0  0  0  0
   -1.8423   -9.1997    3.2644 O   0  0  0  0  0  0  0  0  0  0  0  0
   -0.4199   -7.7921    1.8730 C   0  0  1  0  0  0  0  0  0  0  0  0
   -0.9519   -6.6683    2.5513 O   0  0  0  0  0  0  0  0  0  0  0  0
    1.0528   -7.5485    1.4882 C   0  0  1  0  0  0  0  0  0  0  0  0
    1.1234   -6.2951    0.8154 O   0  0  0  0  0  0  0  0  0  0  0  0
    4.1166   -7.5318    4.2316 H   0  0  0  0  0  0  0  0  0  0  0  0
    3.6022   -6.5751    1.6679 H   0  0  0  0  0  0  0  0  0  0  0  0
    3.9490   -8.2639    2.0244 H   0  0  0  0  0  0  0  0  0  0  0  0
    1.6063   -6.6833    3.2944 H   0  0  0  0  0  0  0  0  0  0  0  0
    0.4178   -9.8683    4.5564 H   0  0  0  0  0  0  0  0  0  0  0  0
    2.9673   -7.5491    8.4652 H   0  0  0  0  0  0  0  0  0  0  0  0
    1.5762   -8.4124    9.2159 H   0  0  0  0  0  0  0  0  0  0  0  0
   -0.8511   -4.9467    7.3667 H   0  0  0  0  0  0  0  0  0  0  0  0
   -1.3739   -5.8410    5.9861 H   0  0  0  0  0  0  0  0  0  0  0  0
    2.0280   -5.3915    4.7787 H   0  0  0  0  0  0  0  0  0  0  0  0
    2.2135   -2.9876    3.4593 H   0  0  0  0  0  0  0  0  0  0  0  0
    0.3135   -1.4054    4.6654 H   0  0  0  0  0  0  0  0  0  0  0  0
   -0.2169   -9.8894    2.2627 H   0  0  0  0  0  0  0  0  0  0  0  0
   -1.8556   -9.9149    3.9249 H   0  0  0  0  0  0  0  0  0  0  0  0
   -0.9973   -7.9514    0.9653 H   0  0  0  0  0  0  0  0  0  0  0  0
   -0.6685   -6.7688    3.4535 H   0  0  0  0  0  0  0  0  0  0  0  0
    1.3923   -8.3311    0.8114 H   0  0  0  0  0  0  0  0  0  0  0  0
    2.0244   -6.1066    0.5926 H   0  0  0  0  0  0  0  0  0  0  0  0
  1  2  1  0
  1 25  1  0
  2  3  1  0
  2 26  1  0
  2 27  1  0
  3 23  1  0
  3  4  1  0
  3 28  1  1
  4  5  1  0
  5 19  1  0
  5 29  1  1
  5  6  1  0
  6  7  2  0
  7  8  1  0
  7 12  1  0
  8  9  1  0
  9 10  1  0
  9 30  1  0
  9 31  1  0
 10 12  1  0
 10 11  2  0
 12 13  1  0
 13 14  1  0
 13 32  1  0
 13 33  1  0
 14 18  1  0
 14 15  2  0
 15 16  1  0
 15 34  1  0
 16 17  2  0
 16 35  1  0
 17 18  1  0
 17 36  1  0
 19 20  1  0
 19 21  1  0
 19 37  1  6
 20 38  1  0
 21 22  1  0
 21 23  1  0
 21 39  1  6
 22 40  1  0
 23 24  1  0
 23 41  1  6
 24 42  1  0
M  END
>  <i_m_ct_stereo_status>  (146) 
1

>  <s_m_source_file>  (146) 
/var/tmp/pbs.5076255.sched01/tmpguyree9i/45_f3p7e6s.sdf

>  <i_m_source_file_index>  (146) 
18

>  <i_lp_mmshare_version>  (146) 
48012

>  <i_f3d_flags>  (146) 
0

>  <s_epik_input>  (146) 
W09IXVtDSDJdW0NAQEhdMU9bQ0BIXShbQ0BASF0oW09IXSlbQ0BASF0oW09IXSlbQ0BIXTFbT0hdKS9OPWMyXHNbY0hdYyhbT0hdKW4yW0NIMl1jM1tjSF1bY0hdW2NIXW8z

>  <s_epik_cmdline>  (146) 
J2VwaWtfcHl0aG9uJywgJy1waHQnLCAnMi4wJywgJy1waCcsICc3LjAnLCAnLXRuJywgJzgnLCAnLW1hJywgJzIwMCcsICctaW1hZScsICc8aW5maWxlLm1hZT4nLCAnLW9tYWUnLCAnPG91dGZpbGUubWFlPic=

>  <r_lp_tautomer_probability>  (146) 
0.5

>  <r_epik_Ionization_Penalty>  (146) 
0.000139864

>  <r_epik_Ionization_Penalty_Charging>  (146) 
0

>  <r_epik_Ionization_Penalty_Neutral>  (146) 
0.000139864

>  <r_epik_State_Penalty>  (146) 
0.41068

>  <r_epik_Charging_Adjusted_Penalty>  (146) 
0.41068

>  <i_epik_Tot_Q>  (146) 
0

>  <i_epik_Tot_abs_Q>  (146) 
0

>  <s_epik_Chemistry_Notes>  (146) 
This compound has an imine and may undergo hydrolysis. This compound contains an acetal/aminal-like group ( X-CH(R)-Y where X, Y are N, S, or O) that may be acid/base labile, releasing an aldehyde.

>  <s_lp_Force_Field>  (146) 
OPLS3e

>  <r_lp_Energy>  (146) 
11.8819

>  <b_lp_Chiralities_Consistent>  (146) 
1

>  <s_lp_Variant>  (146) 
42:0-1

>  <s_i_glide_gridfile>  (146) 
pfpi4k_grid

>  <i_i_glide_lignum>  (146) 
18

>  <i_i_glide_rotatable_bonds>  (146) 
8

>  <r_i_docking_score>  (146) 
-3.98324

>  <r_i_glide_ligand_efficiency>  (146) 
-0.165968

>  <r_i_glide_ligand_efficiency_sa>  (146) 
-0.478736

>  <r_i_glide_ligand_efficiency_ln>  (146) 
-0.953373

>  <r_i_glide_gscore>  (146) 
-3.98324

>  <r_i_glide_lipo>  (146) 
-0.0985786

>  <r_i_glide_hbond>  (146) 
0

>  <r_i_glide_metal>  (146) 
-0

>  <r_i_glide_rewards>  (146) 
-1.46567

>  <r_i_glide_evdw>  (146) 
-17.3992

>  <r_i_glide_ecoul>  (146) 
-13.8685

>  <r_i_glide_erotb>  (146) 
0.596599

>  <r_i_glide_esite>  (146) 
-0.0653537

>  <r_i_glide_emodel>  (146) 
-44.0166

>  <r_i_glide_energy>  (146) 
-31.2677

>  <r_i_glide_einternal>  (146) 
1.24432

>  <r_i_glide_intrahb_reward>  (146) 
-0.5

>  <i_i_glide_confnum>  (146) 
3

>  <i_i_glide_posenum>  (146) 
36

>  <r_i_glide_eff_state_penalty>  (146) 
0

>  <ligand_id>  (146) 
42

>  <original_smiles>  (146) 
OCC1OC(N=c2scc(O)n2Cc2ccco2)C(O)C(O)C1O

>  <smiles>  (146) 
[H]OC([H])([H])C1([H])OC([H])(N=C2SC([H])([H])C(=O)N2C([H])([H])c2oc([H])c([H])c2[H])C([H])(O[H])C([H])(O[H])C1([H])O[H]

$$$$
42:0:2
     RDKit          3D

 42 44  0  0  1  0  0  0  0  0999 V2000
    4.1507   -6.7221    3.2124 O   0  0  0  0  0  0  0  0  0  0  0  0
    3.4374   -7.3011    2.1380 C   0  0  0  0  0  0  0  0  0  0  0  0
    1.9393   -7.4699    2.5128 C   0  0  2  0  0  0  0  0  0  0  0  0
    1.7825   -8.6560    3.3116 O   0  0  0  0  0  0  0  0  0  0  0  0
    0.4788   -8.8530    3.8724 C   0  0  1  0  0  0  0  0  0  0  0  0
    0.0806   -7.7649    4.7583 N   0  0  0  0  0  0  0  0  0  0  0  0
    0.6877   -7.6387    5.8902 C   0  0  0  0  0  0  0  0  0  0  0  0
    1.9004   -8.7152    6.6857 S   0  0  0  0  0  0  0  0  0  0  0  0
    2.0743   -7.6600    8.1127 C   0  0  0  0  0  0  0  0  0  0  0  0
    1.1559   -6.4759    7.8584 C   0  0  0  0  0  0  0  0  0  0  0  0
    1.0736   -5.5592    8.6840 O   0  0  0  0  0  0  0  0  0  0  0  0
    0.4690   -6.5058    6.7031 N   0  0  0  0  0  0  0  0  0  0  0  0
   -0.4054   -5.3815    6.2636 C   0  0  0  0  0  0  0  0  0  0  0  0
    0.2936   -4.3523    5.4047 C   0  0  0  0  0  0  0  0  0  0  0  0
    1.4135   -4.3846    4.6275 C   0  0  0  0  0  0  0  0  0  0  0  0
    1.5152   -3.1099    3.9913 C   0  0  0  0  0  0  0  0  0  0  0  0
    0.5365   -2.3438    4.5432 C   0  0  0  0  0  0  0  0  0  0  0  0
   -0.2373   -3.0848    5.3961 O   0  0  0  0  0  0  0  0  0  0  0  0
   -0.5065   -8.9991    2.6962 C   0  0  1  0  0  0  0  0  0  0  0  0
   -1.8263   -9.1987    3.1787 O   0  0  0  0  0  0  0  0  0  0  0  0
   -0.4467   -7.7949    1.7236 C   0  0  1  0  0  0  0  0  0  0  0  0
   -0.9488   -6.6706    2.3928 O   0  0  0  0  0  0  0  0  0  0  0  0
    1.0068   -7.5170    1.2938 C   0  0  1  0  0  0  0  0  0  0  0  0
    1.0356   -6.2819    0.5748 O   0  0  0  0  0  0  0  0  0  0  0  0
    5.0620   -6.6312    2.9715 H   0  0  0  0  0  0  0  0  0  0  0  0
    3.5419   -6.5736    1.3344 H   0  0  0  0  0  0  0  0  0  0  0  0
    3.9025   -8.2308    1.8035 H   0  0  0  0  0  0  0  0  0  0  0  0
    1.6110   -6.6135    3.0716 H   0  0  0  0  0  0  0  0  0  0  0  0
    0.4916   -9.7970    4.4187 H   0  0  0  0  0  0  0  0  0  0  0  0
    3.1146   -7.3342    8.1918 H   0  0  0  0  0  0  0  0  0  0  0  0
    1.7569   -8.1962    9.0104 H   0  0  0  0  0  0  0  0  0  0  0  0
   -0.8059   -4.8550    7.1299 H   0  0  0  0  0  0  0  0  0  0  0  0
   -1.2928   -5.7597    5.7485 H   0  0  0  0  0  0  0  0  0  0  0  0
    2.0860   -5.2217    4.5256 H   0  0  0  0  0  0  0  0  0  0  0  0
    2.2615   -2.7902    3.2759 H   0  0  0  0  0  0  0  0  0  0  0  0
    0.2827   -1.2943    4.4581 H   0  0  0  0  0  0  0  0  0  0  0  0
   -0.2070   -9.8885    2.1512 H   0  0  0  0  0  0  0  0  0  0  0  0
   -1.8226   -9.8880    3.8533 H   0  0  0  0  0  0  0  0  0  0  0  0
   -1.0354   -7.9922    0.8379 H   0  0  0  0  0  0  0  0  0  0  0  0
   -0.6414   -6.7723    3.2930 H   0  0  0  0  0  0  0  0  0  0  0  0
    1.3686   -8.3077    0.6582 H   0  0  0  0  0  0  0  0  0  0  0  0
    1.9253   -6.1273    0.2844 H   0  0  0  0  0  0  0  0  0  0  0  0
  1  2  1  0
  1 25  1  0
  2  3  1  0
  2 26  1  0
  2 27  1  0
  3 23  1  0
  3  4  1  0
  3 28  1  1
  4  5  1  0
  5 19  1  0
  5 29  1  1
  5  6  1  0
  6  7  2  0
  7  8  1  0
  7 12  1  0
  8  9  1  0
  9 10  1  0
  9 30  1  0
  9 31  1  0
 10 12  1  0
 10 11  2  0
 12 13  1  0
 13 14  1  0
 13 32  1  0
 13 33  1  0
 14 18  1  0
 14 15  2  0
 15 16  1  0
 15 34  1  0
 16 17  2  0
 16 35  1  0
 17 18  1  0
 17 36  1  0
 19 20  1  0
 19 21  1  0
 19 37  1  6
 20 38  1  0
 21 22  1  0
 21 23  1  0
 21 39  1  6
 22 40  1  0
 23 24  1  0
 23 41  1  6
 24 42  1  0
M  END
>  <i_m_ct_stereo_status>  (147) 
1

>  <s_m_source_file>  (147) 
/var/tmp/pbs.5076255.sched01/tmpguyree9i/45_f3p7e6s.sdf

>  <i_m_source_file_index>  (147) 
18

>  <i_lp_mmshare_version>  (147) 
48012

>  <i_f3d_flags>  (147) 
0

>  <s_epik_input>  (147) 
W09IXVtDSDJdW0NAQEhdMU9bQ0BIXShbQ0BASF0oW09IXSlbQ0BASF0oW09IXSlbQ0BIXTFbT0hdKS9OPWMyXHNbY0hdYyhbT0hdKW4yW0NIMl1jM1tjSF1bY0hdW2NIXW8z

>  <s_epik_cmdline>  (147) 
J2VwaWtfcHl0aG9uJywgJy1waHQnLCAnMi4wJywgJy1waCcsICc3LjAnLCAnLXRuJywgJzgnLCAnLW1hJywgJzIwMCcsICctaW1hZScsICc8aW5maWxlLm1hZT4nLCAnLW9tYWUnLCAnPG91dGZpbGUubWFlPic=

>  <r_lp_tautomer_probability>  (147) 
0.5

>  <r_epik_Ionization_Penalty>  (147) 
0.000139864

>  <r_epik_Ionization_Penalty_Charging>  (147) 
0

>  <r_epik_Ionization_Penalty_Neutral>  (147) 
0.000139864

>  <r_epik_State_Penalty>  (147) 
0.41068

>  <r_epik_Charging_Adjusted_Penalty>  (147) 
0.41068

>  <i_epik_Tot_Q>  (147) 
0

>  <i_epik_Tot_abs_Q>  (147) 
0

>  <s_epik_Chemistry_Notes>  (147) 
This compound has an imine and may undergo hydrolysis. This compound contains an acetal/aminal-like group ( X-CH(R)-Y where X, Y are N, S, or O) that may be acid/base labile, releasing an aldehyde.

>  <s_lp_Force_Field>  (147) 
OPLS3e

>  <r_lp_Energy>  (147) 
11.8819

>  <b_lp_Chiralities_Consistent>  (147) 
1

>  <s_lp_Variant>  (147) 
42:0-1

>  <s_i_glide_gridfile>  (147) 
pfpi4k_grid

>  <i_i_glide_lignum>  (147) 
18

>  <i_i_glide_rotatable_bonds>  (147) 
8

>  <r_i_docking_score>  (147) 
-3.95961

>  <r_i_glide_ligand_efficiency>  (147) 
-0.164984

>  <r_i_glide_ligand_efficiency_sa>  (147) 
-0.475896

>  <r_i_glide_ligand_efficiency_ln>  (147) 
-0.947717

>  <r_i_glide_gscore>  (147) 
-3.95961

>  <r_i_glide_lipo>  (147) 
-0.127804

>  <r_i_glide_hbond>  (147) 
0

>  <r_i_glide_metal>  (147) 
-0

>  <r_i_glide_rewards>  (147) 
-1.46567

>  <r_i_glide_evdw>  (147) 
-16.9979

>  <r_i_glide_ecoul>  (147) 
-13.7243

>  <r_i_glide_erotb>  (147) 
0.596599

>  <r_i_glide_esite>  (147) 
-0.0541975

>  <r_i_glide_emodel>  (147) 
-43.6427

>  <r_i_glide_energy>  (147) 
-30.7222

>  <r_i_glide_einternal>  (147) 
1.45564

>  <r_i_glide_intrahb_reward>  (147) 
-0.5

>  <i_i_glide_confnum>  (147) 
3

>  <i_i_glide_posenum>  (147) 
1

>  <r_i_glide_eff_state_penalty>  (147) 
0

>  <ligand_id>  (147) 
42

>  <original_smiles>  (147) 
OCC1OC(N=c2scc(O)n2Cc2ccco2)C(O)C(O)C1O

>  <smiles>  (147) 
[H]OC([H])([H])C1([H])OC([H])(N=C2SC([H])([H])C(=O)N2C([H])([H])c2oc([H])c([H])c2[H])C([H])(O[H])C([H])(O[H])C1([H])O[H]

$$$$
42:1:0
     RDKit          3D

 42 44  0  0  1  0  0  0  0  0999 V2000
    4.6156   -4.1789   -3.2643 O   0  0  0  0  0  0  0  0  0  0  0  0
    3.9945   -2.9645   -2.8924 C   0  0  0  0  0  0  0  0  0  0  0  0
    4.1495   -2.6924   -1.3702 C   0  0  2  0  0  0  0  0  0  0  0  0
    3.0172   -3.2240   -0.6494 O   0  0  0  0  0  0  0  0  0  0  0  0
    3.0725   -3.0830    0.7847 C   0  0  1  0  0  0  0  0  0  0  0  0
    4.2189   -3.7744    1.3368 N   0  0  0  0  0  0  0  0  0  0  0  0
    4.4570   -5.0431    1.4070 C   0  0  0  0  0  0  0  0  0  0  0  0
    6.1100   -5.6403    1.8257 S   0  0  0  0  0  0  0  0  0  0  0  0
    5.6894   -7.3584    1.6869 C   0  0  0  0  0  0  0  0  0  0  0  0
    4.1961   -7.3794    1.3520 C   0  0  0  0  0  0  0  0  0  0  0  0
    3.6228   -8.4573    1.2780 O   0  0  0  0  0  0  0  0  0  0  0  0
    3.6042   -6.1715    1.1971 N   0  0  0  0  0  0  0  0  0  0  0  0
    2.1270   -6.0791    1.0106 C   0  0  0  0  0  0  0  0  0  0  0  0
    1.3357   -6.5162    2.2208 C   0  0  0  0  0  0  0  0  0  0  0  0
    1.6185   -6.6808    3.5550 C   0  0  0  0  0  0  0  0  0  0  0  0
    0.4145   -7.1011    4.1888 C   0  0  0  0  0  0  0  0  0  0  0  0
   -0.5206   -7.1840    3.1954 C   0  0  0  0  0  0  0  0  0  0  0  0
    0.0170   -6.8174    1.9978 O   0  0  0  0  0  0  0  0  0  0  0  0
    3.1850   -1.5868    1.1442 C   0  0  1  0  0  0  0  0  0  0  0  0
    3.2689   -1.4239    2.5517 O   0  0  0  0  0  0  0  0  0  0  0  0
    4.3366   -0.8494    0.4266 C   0  0  1  0  0  0  0  0  0  0  0  0
    5.6045   -1.1848    0.9812 O   0  0  0  0  0  0  0  0  0  0  0  0
    4.2575   -1.1862   -1.0752 C   0  0  1  0  0  0  0  0  0  0  0  0
    5.4233   -0.6610   -1.7153 O   0  0  0  0  0  0  0  0  0  0  0  0
    4.0705   -4.8839   -2.9198 H   0  0  0  0  0  0  0  0  0  0  0  0
    4.5044   -2.1994   -3.4885 H   0  0  0  0  0  0  0  0  0  0  0  0
    2.9424   -2.9392   -3.1965 H   0  0  0  0  0  0  0  0  0  0  0  0
    5.0749   -3.1669   -1.0394 H   0  0  0  0  0  0  0  0  0  0  0  0
    2.1296   -3.3484    1.2626 H   0  0  0  0  0  0  0  0  0  0  0  0
    5.8915   -7.8592    2.6369 H   0  0  0  0  0  0  0  0  0  0  0  0
    6.2750   -7.8221    0.8973 H   0  0  0  0  0  0  0  0  0  0  0  0
    1.8514   -6.7132    0.1684 H   0  0  0  0  0  0  0  0  0  0  0  0
    1.7247   -5.1567    0.6421 H   0  0  0  0  0  0  0  0  0  0  0  0
    2.5829   -6.5089    4.0149 H   0  0  0  0  0  0  0  0  0  0  0  0
    0.2504   -7.3358    5.2333 H   0  0  0  0  0  0  0  0  0  0  0  0
   -1.5631   -7.4736    3.1723 H   0  0  0  0  0  0  0  0  0  0  0  0
    2.2417   -1.1240    0.8535 H   0  0  0  0  0  0  0  0  0  0  0  0
    3.1438   -0.5171    2.7608 H   0  0  0  0  0  0  0  0  0  0  0  0
    4.2281    0.2234    0.5932 H   0  0  0  0  0  0  0  0  0  0  0  0
    5.4904   -1.2716    1.9123 H   0  0  0  0  0  0  0  0  0  0  0  0
    3.3862   -0.6862   -1.4955 H   0  0  0  0  0  0  0  0  0  0  0  0
    5.4054    0.2596   -1.5350 H   0  0  0  0  0  0  0  0  0  0  0  0
  1  2  1  0
  1 25  1  0
  2  3  1  0
  2 26  1  0
  2 27  1  0
  3 23  1  0
  3  4  1  0
  3 28  1  1
  4  5  1  0
  5 19  1  0
  5 29  1  1
  5  6  1  0
  6  7  2  0
  7  8  1  0
  7 12  1  0
  8  9  1  0
  9 10  1  0
  9 30  1  0
  9 31  1  0
 10 12  1  0
 10 11  2  0
 12 13  1  0
 13 14  1  0
 13 32  1  0
 13 33  1  0
 14 18  1  0
 14 15  2  0
 15 16  1  0
 15 34  1  0
 16 17  2  0
 16 35  1  0
 17 18  1  0
 17 36  1  0
 19 20  1  0
 19 21  1  0
 19 37  1  6
 20 38  1  0
 21 22  1  0
 21 23  1  0
 21 39  1  6
 22 40  1  0
 23 24  1  0
 23 41  1  6
 24 42  1  0
M  END
>  <i_m_ct_stereo_status>  (148) 
1

>  <s_m_source_file>  (148) 
/var/tmp/pbs.5076255.sched01/tmpguyree9i/45_f3p7e6s.sdf

>  <i_m_source_file_index>  (148) 
19

>  <i_lp_mmshare_version>  (148) 
48012

>  <i_f3d_flags>  (148) 
0

>  <s_epik_input>  (148) 
W09IXVtDSDJdW0NAQEhdMU9bQ0BIXShbQ0BASF0oW09IXSlbQ0BASF0oW09IXSlbQ0BIXTFbT0hdKS9OPWMyXHNbY0hdYyhbT0hdKW4yW0NIMl1jM1tjSF1bY0hdW2NIXW8z

>  <s_epik_cmdline>  (148) 
J2VwaWtfcHl0aG9uJywgJy1waHQnLCAnMi4wJywgJy1waCcsICc3LjAnLCAnLXRuJywgJzgnLCAnLW1hJywgJzIwMCcsICctaW1hZScsICc8aW5maWxlLm1hZT4nLCAnLW9tYWUnLCAnPG91dGZpbGUubWFlPic=

>  <r_lp_tautomer_probability>  (148) 
0.5

>  <r_epik_Ionization_Penalty>  (148) 
0.000139864

>  <r_epik_Ionization_Penalty_Charging>  (148) 
0

>  <r_epik_Ionization_Penalty_Neutral>  (148) 
0.000139864

>  <r_epik_State_Penalty>  (148) 
0.41068

>  <r_epik_Charging_Adjusted_Penalty>  (148) 
0.41068

>  <i_epik_Tot_Q>  (148) 
0

>  <i_epik_Tot_abs_Q>  (148) 
0

>  <s_epik_Chemistry_Notes>  (148) 
This compound has an imine and may undergo hydrolysis. This compound contains an acetal/aminal-like group ( X-CH(R)-Y where X, Y are N, S, or O) that may be acid/base labile, releasing an aldehyde.

>  <s_lp_Force_Field>  (148) 
OPLS3e

>  <r_lp_Energy>  (148) 
15.8421

>  <b_lp_Chiralities_Consistent>  (148) 
1

>  <s_lp_Variant>  (148) 
42:0-2

>  <s_i_glide_gridfile>  (148) 
pfpi4k_grid

>  <i_i_glide_lignum>  (148) 
19

>  <i_i_glide_rotatable_bonds>  (148) 
8

>  <r_i_docking_score>  (148) 
-3.54426

>  <r_i_glide_ligand_efficiency>  (148) 
-0.147677

>  <r_i_glide_ligand_efficiency_sa>  (148) 
-0.425975

>  <r_i_glide_ligand_efficiency_ln>  (148) 
-0.848303

>  <r_i_glide_gscore>  (148) 
-3.54426

>  <r_i_glide_lipo>  (148) 
-0.213271

>  <r_i_glide_hbond>  (148) 
-0.0737563

>  <r_i_glide_metal>  (148) 
-0

>  <r_i_glide_rewards>  (148) 
-1.18807

>  <r_i_glide_evdw>  (148) 
-23.3239

>  <r_i_glide_ecoul>  (148) 
-9.89086

>  <r_i_glide_erotb>  (148) 
0.596599

>  <r_i_glide_esite>  (148) 
-0.0159388

>  <r_i_glide_emodel>  (148) 
-40.2337

>  <r_i_glide_energy>  (148) 
-33.2147

>  <r_i_glide_einternal>  (148) 
2.11002

>  <r_i_glide_intrahb_reward>  (148) 
-0

>  <i_i_glide_confnum>  (148) 
3

>  <i_i_glide_posenum>  (148) 
3

>  <r_i_glide_eff_state_penalty>  (148) 
0

>  <ligand_id>  (148) 
42

>  <original_smiles>  (148) 
OCC1OC(N=c2scc(O)n2Cc2ccco2)C(O)C(O)C1O

>  <smiles>  (148) 
[H]OC([H])([H])C1([H])OC([H])(N=C2SC([H])([H])C(=O)N2C([H])([H])c2oc([H])c([H])c2[H])C([H])(O[H])C([H])(O[H])C1([H])O[H]

$$$$
42:1:1
     RDKit          3D

 42 44  0  0  1  0  0  0  0  0999 V2000
    4.1971   -3.8528   -3.7868 O   0  0  0  0  0  0  0  0  0  0  0  0
    3.2459   -3.0646   -3.1059 C   0  0  0  0  0  0  0  0  0  0  0  0
    3.6696   -2.8235   -1.6257 C   0  0  2  0  0  0  0  0  0  0  0  0
    2.6611   -3.3298   -0.7153 O   0  0  0  0  0  0  0  0  0  0  0  0
    2.9377   -3.1998    0.6884 C   0  0  1  0  0  0  0  0  0  0  0  0
    4.1312   -3.9350    1.0567 N   0  0  0  0  0  0  0  0  0  0  0  0
    4.2947   -5.2189    1.1577 C   0  0  0  0  0  0  0  0  0  0  0  0
    5.9660   -5.9150    1.2708 S   0  0  0  0  0  0  0  0  0  0  0  0
    5.4176   -7.6103    1.3617 C   0  0  0  0  0  0  0  0  0  0  0  0
    3.9026   -7.5339    1.3461 C   0  0  0  0  0  0  0  0  0  0  0  0
    3.2457   -8.5672    1.4588 O   0  0  0  0  0  0  0  0  0  0  0  0
    3.3594   -6.2875    1.2057 N   0  0  0  0  0  0  0  0  0  0  0  0
    1.8805   -6.1351    1.3053 C   0  0  0  0  0  0  0  0  0  0  0  0
    1.3590   -6.2573    2.7176 C   0  0  0  0  0  0  0  0  0  0  0  0
    1.8949   -6.0773    3.9730 C   0  0  0  0  0  0  0  0  0  0  0  0
    0.8663   -6.3837    4.9147 C   0  0  0  0  0  0  0  0  0  0  0  0
   -0.2203   -6.7536    4.1722 C   0  0  0  0  0  0  0  0  0  0  0  0
    0.0636   -6.6694    2.8407 O   0  0  0  0  0  0  0  0  0  0  0  0
    3.1860   -1.7095    1.0001 C   0  0  1  0  0  0  0  0  0  0  0  0
    3.5363   -1.5697    2.3570 O   0  0  0  0  0  0  0  0  0  0  0  0
    4.2487   -1.0183    0.1149 C   0  0  1  0  0  0  0  0  0  0  0  0
    5.5713   -1.4346    0.4354 O   0  0  0  0  0  0  0  0  0  0  0  0
    3.9238   -1.3175   -1.3597 C   0  0  1  0  0  0  0  0  0  0  0  0
    4.9527   -0.7994   -2.1846 O   0  0  0  0  0  0  0  0  0  0  0  0
    4.1911   -4.7134   -3.3638 H   0  0  0  0  0  0  0  0  0  0  0  0
    3.1425   -2.1322   -3.6676 H   0  0  0  0  0  0  0  0  0  0  0  0
    2.2880   -3.5745   -3.1741 H   0  0  0  0  0  0  0  0  0  0  0  0
    4.5980   -3.3681   -1.4390 H   0  0  0  0  0  0  0  0  0  0  0  0
    2.0669   -3.4552    1.2980 H   0  0  0  0  0  0  0  0  0  0  0  0
    5.7923   -8.0612    2.2890 H   0  0  0  0  0  0  0  0  0  0  0  0
    5.7674   -8.1859    0.4940 H   0  0  0  0  0  0  0  0  0  0  0  0
    1.4383   -6.9717    0.7476 H   0  0  0  0  0  0  0  0  0  0  0  0
    1.4662   -5.2426    0.8317 H   0  0  0  0  0  0  0  0  0  0  0  0
    2.9019   -5.7537    4.1891 H   0  0  0  0  0  0  0  0  0  0  0  0
    0.9065   -6.3611    6.0013 H   0  0  0  0  0  0  0  0  0  0  0  0
   -1.2206   -7.0891    4.4221 H   0  0  0  0  0  0  0  0  0  0  0  0
    2.2384   -1.1891    0.8781 H   0  0  0  0  0  0  0  0  0  0  0  0
    4.2249   -2.1996    2.5295 H   0  0  0  0  0  0  0  0  0  0  0  0
    4.2085    0.0582    0.3052 H   0  0  0  0  0  0  0  0  0  0  0  0
    5.6823   -1.3517    1.3737 H   0  0  0  0  0  0  0  0  0  0  0  0
    3.0103   -0.7897   -1.6189 H   0  0  0  0  0  0  0  0  0  0  0  0
    4.9099    0.1468   -2.1324 H   0  0  0  0  0  0  0  0  0  0  0  0
  1  2  1  0
  1 25  1  0
  2  3  1  0
  2 26  1  0
  2 27  1  0
  3 23  1  0
  3  4  1  0
  3 28  1  1
  4  5  1  0
  5 19  1  0
  5 29  1  1
  5  6  1  0
  6  7  2  0
  7  8  1  0
  7 12  1  0
  8  9  1  0
  9 10  1  0
  9 30  1  0
  9 31  1  0
 10 12  1  0
 10 11  2  0
 12 13  1  0
 13 14  1  0
 13 32  1  0
 13 33  1  0
 14 18  1  0
 14 15  2  0
 15 16  1  0
 15 34  1  0
 16 17  2  0
 16 35  1  0
 17 18  1  0
 17 36  1  0
 19 20  1  0
 19 21  1  0
 19 37  1  1
 20 38  1  0
 21 22  1  0
 21 23  1  0
 21 39  1  6
 22 40  1  0
 23 24  1  0
 23 41  1  6
 24 42  1  0
M  END
>  <i_m_ct_stereo_status>  (149) 
1

>  <s_m_source_file>  (149) 
/var/tmp/pbs.5076255.sched01/tmpguyree9i/45_f3p7e6s.sdf

>  <i_m_source_file_index>  (149) 
19

>  <i_lp_mmshare_version>  (149) 
48012

>  <i_f3d_flags>  (149) 
0

>  <s_epik_input>  (149) 
W09IXVtDSDJdW0NAQEhdMU9bQ0BIXShbQ0BASF0oW09IXSlbQ0BASF0oW09IXSlbQ0BIXTFbT0hdKS9OPWMyXHNbY0hdYyhbT0hdKW4yW0NIMl1jM1tjSF1bY0hdW2NIXW8z

>  <s_epik_cmdline>  (149) 
J2VwaWtfcHl0aG9uJywgJy1waHQnLCAnMi4wJywgJy1waCcsICc3LjAnLCAnLXRuJywgJzgnLCAnLW1hJywgJzIwMCcsICctaW1hZScsICc8aW5maWxlLm1hZT4nLCAnLW9tYWUnLCAnPG91dGZpbGUubWFlPic=

>  <r_lp_tautomer_probability>  (149) 
0.5

>  <r_epik_Ionization_Penalty>  (149) 
0.000139864

>  <r_epik_Ionization_Penalty_Charging>  (149) 
0

>  <r_epik_Ionization_Penalty_Neutral>  (149) 
0.000139864

>  <r_epik_State_Penalty>  (149) 
0.41068

>  <r_epik_Charging_Adjusted_Penalty>  (149) 
0.41068

>  <i_epik_Tot_Q>  (149) 
0

>  <i_epik_Tot_abs_Q>  (149) 
0

>  <s_epik_Chemistry_Notes>  (149) 
This compound has an imine and may undergo hydrolysis. This compound contains an acetal/aminal-like group ( X-CH(R)-Y where X, Y are N, S, or O) that may be acid/base labile, releasing an aldehyde.

>  <s_lp_Force_Field>  (149) 
OPLS3e

>  <r_lp_Energy>  (149) 
15.8421

>  <b_lp_Chiralities_Consistent>  (149) 
1

>  <s_lp_Variant>  (149) 
42:0-2

>  <s_i_glide_gridfile>  (149) 
pfpi4k_grid

>  <i_i_glide_lignum>  (149) 
19

>  <i_i_glide_rotatable_bonds>  (149) 
8

>  <r_i_docking_score>  (149) 
-3.28346

>  <r_i_glide_ligand_efficiency>  (149) 
-0.136811

>  <r_i_glide_ligand_efficiency_sa>  (149) 
-0.39463

>  <r_i_glide_ligand_efficiency_ln>  (149) 
-0.785882

>  <r_i_glide_gscore>  (149) 
-3.28346

>  <r_i_glide_lipo>  (149) 
-0.22884

>  <r_i_glide_hbond>  (149) 
-0.103875

>  <r_i_glide_metal>  (149) 
-0

>  <r_i_glide_rewards>  (149) 
-1.15091

>  <r_i_glide_evdw>  (149) 
-27.7546

>  <r_i_glide_ecoul>  (149) 
-6.59849

>  <r_i_glide_erotb>  (149) 
0.596599

>  <r_i_glide_esite>  (149) 
-0.0189299

>  <r_i_glide_emodel>  (149) 
-40.3587

>  <r_i_glide_energy>  (149) 
-34.3531

>  <r_i_glide_einternal>  (149) 
2.72016

>  <r_i_glide_intrahb_reward>  (149) 
-0

>  <i_i_glide_confnum>  (149) 
3

>  <i_i_glide_posenum>  (149) 
9

>  <r_i_glide_eff_state_penalty>  (149) 
0

>  <ligand_id>  (149) 
42

>  <original_smiles>  (149) 
OCC1OC(N=c2scc(O)n2Cc2ccco2)C(O)C(O)C1O

>  <smiles>  (149) 
[H]OC([H])([H])C1([H])OC([H])(N=C2SC([H])([H])C(=O)N2C([H])([H])c2oc([H])c([H])c2[H])C([H])(O[H])C([H])(O[H])C1([H])O[H]

$$$$
42:1:2
     RDKit          3D

 42 44  0  0  1  0  0  0  0  0999 V2000
    2.8766   -2.3891   -3.2415 O   0  0  0  0  0  0  0  0  0  0  0  0
    3.8443   -3.1559   -2.5589 C   0  0  0  0  0  0  0  0  0  0  0  0
    4.0222   -2.6619   -1.1161 C   0  0  2  0  0  0  0  0  0  0  0  0
    2.8889   -3.0505   -0.3379 O   0  0  0  0  0  0  0  0  0  0  0  0
    2.9618   -2.7508    1.0605 C   0  0  1  0  0  0  0  0  0  0  0  0
    4.0667   -3.4254    1.7022 N   0  0  0  0  0  0  0  0  0  0  0  0
    4.3670   -4.6879    1.6640 C   0  0  0  0  0  0  0  0  0  0  0  0
    5.9710   -5.2400    2.2608 S   0  0  0  0  0  0  0  0  0  0  0  0
    5.7273   -6.9325    1.7812 C   0  0  0  0  0  0  0  0  0  0  0  0
    4.3159   -6.9935    1.2278 C   0  0  0  0  0  0  0  0  0  0  0  0
    3.8472   -8.0791    0.8885 O   0  0  0  0  0  0  0  0  0  0  0  0
    3.6455   -5.8114    1.1790 N   0  0  0  0  0  0  0  0  0  0  0  0
    2.2273   -5.7914    0.7526 C   0  0  0  0  0  0  0  0  0  0  0  0
    1.2922   -6.4454    1.7255 C   0  0  0  0  0  0  0  0  0  0  0  0
    1.3185   -6.6427    3.0787 C   0  0  0  0  0  0  0  0  0  0  0  0
    0.0972   -7.2948    3.4162 C   0  0  0  0  0  0  0  0  0  0  0  0
   -0.5802   -7.4553    2.2410 C   0  0  0  0  0  0  0  0  0  0  0  0
    0.1231   -6.9184    1.2041 O   0  0  0  0  0  0  0  0  0  0  0  0
    3.1377   -1.2197    1.2378 C   0  0  1  0  0  0  0  0  0  0  0  0
    3.2087   -0.8737    2.6087 O   0  0  0  0  0  0  0  0  0  0  0  0
    4.3462   -0.6575    0.4469 C   0  0  1  0  0  0  0  0  0  0  0  0
    5.5688   -1.0972    1.0163 O   0  0  0  0  0  0  0  0  0  0  0  0
    4.2521   -1.1433   -1.0124 C   0  0  1  0  0  0  0  0  0  0  0  0
    5.4084   -0.7908   -1.7545 O   0  0  0  0  0  0  0  0  0  0  0  0
    2.1161   -2.3157   -2.6785 H   0  0  0  0  0  0  0  0  0  0  0  0
    3.5664   -4.2004   -2.5624 H   0  0  0  0  0  0  0  0  0  0  0  0
    4.7834   -3.0914   -3.1128 H   0  0  0  0  0  0  0  0  0  0  0  0
    4.9011   -3.1819   -0.7406 H   0  0  0  0  0  0  0  0  0  0  0  0
    2.0171   -3.0112    1.5375 H   0  0  0  0  0  0  0  0  0  0  0  0
    5.8262   -7.5735    2.6601 H   0  0  0  0  0  0  0  0  0  0  0  0
    6.4571   -7.2291    1.0235 H   0  0  0  0  0  0  0  0  0  0  0  0
    2.1506   -6.2584   -0.2293 H   0  0  0  0  0  0  0  0  0  0  0  0
    1.7991   -4.8283    0.5413 H   0  0  0  0  0  0  0  0  0  0  0  0
    2.1200   -6.3441    3.7385 H   0  0  0  0  0  0  0  0  0  0  0  0
   -0.2314   -7.6226    4.3930 H   0  0  0  0  0  0  0  0  0  0  0  0
   -1.5294   -7.9064    1.9825 H   0  0  0  0  0  0  0  0  0  0  0  0
    2.2308   -0.7367    0.8768 H   0  0  0  0  0  0  0  0  0  0  0  0
    3.3308    0.0593    2.6772 H   0  0  0  0  0  0  0  0  0  0  0  0
    4.3445    0.4338    0.4816 H   0  0  0  0  0  0  0  0  0  0  0  0
    5.4822   -2.0303    1.1591 H   0  0  0  0  0  0  0  0  0  0  0  0
    3.3953   -0.6563   -1.4723 H   0  0  0  0  0  0  0  0  0  0  0  0
    5.2641   -1.0965   -2.6375 H   0  0  0  0  0  0  0  0  0  0  0  0
  1  2  1  0
  1 25  1  0
  2  3  1  0
  2 26  1  0
  2 27  1  0
  3 23  1  0
  3  4  1  0
  3 28  1  1
  4  5  1  0
  5 19  1  0
  5 29  1  1
  5  6  1  0
  6  7  2  0
  7  8  1  0
  7 12  1  0
  8  9  1  0
  9 10  1  0
  9 30  1  0
  9 31  1  0
 10 12  1  0
 10 11  2  0
 12 13  1  0
 13 14  1  0
 13 32  1  0
 13 33  1  0
 14 18  1  0
 14 15  2  0
 15 16  1  0
 15 34  1  0
 16 17  2  0
 16 35  1  0
 17 18  1  0
 17 36  1  0
 19 20  1  0
 19 21  1  0
 19 37  1  6
 20 38  1  0
 21 22  1  0
 21 23  1  0
 21 39  1  6
 22 40  1  0
 23 24  1  0
 23 41  1  6
 24 42  1  0
M  END
>  <i_m_ct_stereo_status>  (150) 
1

>  <s_m_source_file>  (150) 
/var/tmp/pbs.5076255.sched01/tmpguyree9i/45_f3p7e6s.sdf

>  <i_m_source_file_index>  (150) 
19

>  <i_lp_mmshare_version>  (150) 
48012

>  <i_f3d_flags>  (150) 
0

>  <s_epik_input>  (150) 
W09IXVtDSDJdW0NAQEhdMU9bQ0BIXShbQ0BASF0oW09IXSlbQ0BASF0oW09IXSlbQ0BIXTFbT0hdKS9OPWMyXHNbY0hdYyhbT0hdKW4yW0NIMl1jM1tjSF1bY0hdW2NIXW8z

>  <s_epik_cmdline>  (150) 
J2VwaWtfcHl0aG9uJywgJy1waHQnLCAnMi4wJywgJy1waCcsICc3LjAnLCAnLXRuJywgJzgnLCAnLW1hJywgJzIwMCcsICctaW1hZScsICc8aW5maWxlLm1hZT4nLCAnLW9tYWUnLCAnPG91dGZpbGUubWFlPic=

>  <r_lp_tautomer_probability>  (150) 
0.5

>  <r_epik_Ionization_Penalty>  (150) 
0.000139864

>  <r_epik_Ionization_Penalty_Charging>  (150) 
0

>  <r_epik_Ionization_Penalty_Neutral>  (150) 
0.000139864

>  <r_epik_State_Penalty>  (150) 
0.41068

>  <r_epik_Charging_Adjusted_Penalty>  (150) 
0.41068

>  <i_epik_Tot_Q>  (150) 
0

>  <i_epik_Tot_abs_Q>  (150) 
0

>  <s_epik_Chemistry_Notes>  (150) 
This compound has an imine and may undergo hydrolysis. This compound contains an acetal/aminal-like group ( X-CH(R)-Y where X, Y are N, S, or O) that may be acid/base labile, releasing an aldehyde.

>  <s_lp_Force_Field>  (150) 
OPLS3e

>  <r_lp_Energy>  (150) 
15.8421

>  <b_lp_Chiralities_Consistent>  (150) 
1

>  <s_lp_Variant>  (150) 
42:0-2

>  <s_i_glide_gridfile>  (150) 
pfpi4k_grid

>  <i_i_glide_lignum>  (150) 
19

>  <i_i_glide_rotatable_bonds>  (150) 
8

>  <r_i_docking_score>  (150) 
-3.18493

>  <r_i_glide_ligand_efficiency>  (150) 
-0.132705

>  <r_i_glide_ligand_efficiency_sa>  (150) 
-0.382788

>  <r_i_glide_ligand_efficiency_ln>  (150) 
-0.762299

>  <r_i_glide_gscore>  (150) 
-3.18493

>  <r_i_glide_lipo>  (150) 
-0.191112

>  <r_i_glide_hbond>  (150) 
-0.0450581

>  <r_i_glide_metal>  (150) 
-0

>  <r_i_glide_rewards>  (150) 
-1.66043

>  <r_i_glide_evdw>  (150) 
-26.0064

>  <r_i_glide_ecoul>  (150) 
-3.74488

>  <r_i_glide_erotb>  (150) 
0.596599

>  <r_i_glide_esite>  (150) 
-0.022875

>  <r_i_glide_emodel>  (150) 
-40.3823

>  <r_i_glide_energy>  (150) 
-29.7512

>  <r_i_glide_einternal>  (150) 
4.07995

>  <r_i_glide_intrahb_reward>  (150) 
-0.5

>  <i_i_glide_confnum>  (150) 
2

>  <i_i_glide_posenum>  (150) 
23

>  <r_i_glide_eff_state_penalty>  (150) 
0

>  <ligand_id>  (150) 
42

>  <original_smiles>  (150) 
OCC1OC(N=c2scc(O)n2Cc2ccco2)C(O)C(O)C1O

>  <smiles>  (150) 
[H]OC([H])([H])C1([H])OC([H])(N=C2SC([H])([H])C(=O)N2C([H])([H])c2oc([H])c([H])c2[H])C([H])(O[H])C([H])(O[H])C1([H])O[H]

$$$$
43:0:0
     RDKit          3D

 79 83  0  0  1  0  0  0  0  0999 V2000
    0.1082   -7.3881    4.7197 C   0  0  0  0  0  0  0  0  0  0  0  0
    0.5241   -8.8040    5.1483 C   0  0  2  0  0  0  0  0  0  0  0  0
    1.3415   -8.7802    6.4559 C   0  0  0  0  0  0  0  0  0  0  0  0
    2.8276   -8.4391    6.2295 C   0  0  0  0  0  0  0  0  0  0  0  0
    3.5094   -9.3808    5.2060 C   0  0  2  0  0  0  0  0  0  0  0  0
    3.5689  -10.8183    5.7814 C   0  0  0  0  0  0  0  0  0  0  0  0
    4.9943   -9.0315    4.9978 C   0  0  0  0  0  0  0  0  0  0  0  0
    5.2169   -7.6488    4.4021 C   0  0  0  0  0  0  0  0  0  0  0  0
    4.5282   -7.4291    3.0262 C   0  0  1  0  0  0  0  0  0  0  0  0
    5.3257   -8.2497    1.9727 C   0  0  0  0  0  0  0  0  0  0  0  0
    3.0805   -7.9997    3.0024 C   0  0  0  0  0  0  0  0  0  0  0  0
    2.2033   -7.4317    2.1389 C   0  0  0  0  0  0  0  0  0  0  0  0
    2.5685   -6.3631    1.2328 C   0  0  0  0  0  0  0  0  0  0  0  0
    3.6718   -5.6105    1.4001 C   0  0  0  0  0  0  0  0  0  0  0  0
    4.1295   -4.5373    0.3671 C   0  0  1  0  0  0  0  0  0  0  0  0
    5.0110   -5.2672   -0.6705 C   0  0  0  0  0  0  0  0  0  0  0  0
    2.9074   -3.9173   -0.3718 C   0  0  0  0  0  0  0  0  0  0  0  0
    3.2214   -2.6812   -1.2414 C   0  0  0  0  0  0  0  0  0  0  0  0
    3.9380   -1.5760   -0.4507 C   0  0  1  0  0  0  0  0  0  0  0  0
    3.0159   -1.0455    0.4825 O   0  0  0  0  0  0  0  0  0  0  0  0
    5.2275   -2.0985    0.2432 C   0  0  0  0  0  0  0  0  0  0  0  0
    6.3036   -2.3391   -0.8431 C   0  0  0  0  0  0  0  0  0  0  0  0
    5.7824   -0.9896    1.1711 C   0  0  0  0  0  0  0  0  0  0  0  0
    4.8779   -3.3727    1.0876 C   0  0  2  0  0  0  0  0  0  0  0  0
    6.0429   -3.8631    1.9769 C   0  0  0  0  0  0  0  0  0  0  0  0
    5.9693   -5.3316    2.4305 C   0  0  0  0  0  0  0  0  0  0  0  0
    4.5324   -5.8693    2.6564 C   0  0  2  0  0  0  0  0  0  0  0  0
    3.8822   -5.0482    3.8095 C   0  0  0  0  0  0  0  0  0  0  0  0
    2.7491   -9.2827    3.8409 C   0  0  2  0  0  0  0  0  0  0  0  0
    1.2139   -9.6088    4.0103 C   0  0  1  0  0  0  0  0  0  0  0  0
    0.8832  -11.1160    4.0847 C   0  0  0  0  0  0  0  0  0  0  0  0
    0.9772   -6.7588    4.5347 H   0  0  0  0  0  0  0  0  0  0  0  0
   -0.4897   -6.9052    5.4928 H   0  0  0  0  0  0  0  0  0  0  0  0
   -0.4946   -7.4167    3.8120 H   0  0  0  0  0  0  0  0  0  0  0  0
   -0.4155   -9.3084    5.3764 H   0  0  0  0  0  0  0  0  0  0  0  0
    0.9091   -8.0530    7.1432 H   0  0  0  0  0  0  0  0  0  0  0  0
    1.2438   -9.7389    6.9659 H   0  0  0  0  0  0  0  0  0  0  0  0
    2.8650   -7.4158    5.8643 H   0  0  0  0  0  0  0  0  0  0  0  0
    3.3652   -8.4476    7.1795 H   0  0  0  0  0  0  0  0  0  0  0  0
    3.8581  -11.5534    5.0295 H   0  0  0  0  0  0  0  0  0  0  0  0
    2.6330  -11.1510    6.2056 H   0  0  0  0  0  0  0  0  0  0  0  0
    4.2800  -10.8892    6.6056 H   0  0  0  0  0  0  0  0  0  0  0  0
    5.5357   -9.0964    5.9440 H   0  0  0  0  0  0  0  0  0  0  0  0
    5.4521   -9.7762    4.3457 H   0  0  0  0  0  0  0  0  0  0  0  0
    4.8839   -6.9341    5.1471 H   0  0  0  0  0  0  0  0  0  0  0  0
    6.2917   -7.4872    4.3094 H   0  0  0  0  0  0  0  0  0  0  0  0
    6.4008   -8.0713    2.0338 H   0  0  0  0  0  0  0  0  0  0  0  0
    5.0063   -8.0235    0.9535 H   0  0  0  0  0  0  0  0  0  0  0  0
    5.1874   -9.3233    2.1099 H   0  0  0  0  0  0  0  0  0  0  0  0
    1.1960   -7.7949    2.0271 H   0  0  0  0  0  0  0  0  0  0  0  0
    1.9670   -6.2429    0.3417 H   0  0  0  0  0  0  0  0  0  0  0  0
    4.9838   -4.8180   -1.6618 H   0  0  0  0  0  0  0  0  0  0  0  0
    4.6460   -6.2849   -0.8255 H   0  0  0  0  0  0  0  0  0  0  0  0
    6.0507   -5.3370   -0.3640 H   0  0  0  0  0  0  0  0  0  0  0  0
    2.4389   -4.6565   -1.0221 H   0  0  0  0  0  0  0  0  0  0  0  0
    2.1679   -3.6373    0.3783 H   0  0  0  0  0  0  0  0  0  0  0  0
    3.8078   -2.9625   -2.1152 H   0  0  0  0  0  0  0  0  0  0  0  0
    2.2896   -2.2942   -1.6548 H   0  0  0  0  0  0  0  0  0  0  0  0
    4.1896   -0.7634   -1.1366 H   0  0  0  0  0  0  0  0  0  0  0  0
    2.1590   -0.9503    0.0453 H   0  0  0  0  0  0  0  0  0  0  0  0
    7.2164   -2.7844   -0.4510 H   0  0  0  0  0  0  0  0  0  0  0  0
    6.5761   -1.3956   -1.3022 H   0  0  0  0  0  0  0  0  0  0  0  0
    5.9616   -2.9554   -1.6672 H   0  0  0  0  0  0  0  0  0  0  0  0
    6.7801   -1.2271    1.5414 H   0  0  0  0  0  0  0  0  0  0  0  0
    5.1429   -0.8464    2.0432 H   0  0  0  0  0  0  0  0  0  0  0  0
    5.8473   -0.0278    0.6590 H   0  0  0  0  0  0  0  0  0  0  0  0
    4.1362   -2.9985    1.7926 H   0  0  0  0  0  0  0  0  0  0  0  0
    7.0182   -3.6778    1.5240 H   0  0  0  0  0  0  0  0  0  0  0  0
    6.0188   -3.2425    2.8689 H   0  0  0  0  0  0  0  0  0  0  0  0
    6.4710   -5.9276    1.6728 H   0  0  0  0  0  0  0  0  0  0  0  0
    6.5739   -5.4522    3.3327 H   0  0  0  0  0  0  0  0  0  0  0  0
    4.5758   -4.8715    4.6317 H   0  0  0  0  0  0  0  0  0  0  0  0
    3.0028   -5.5452    4.2198 H   0  0  0  0  0  0  0  0  0  0  0  0
    3.5448   -4.0662    3.4897 H   0  0  0  0  0  0  0  0  0  0  0  0
    3.1585  -10.0777    3.2161 H   0  0  0  0  0  0  0  0  0  0  0  0
    0.6943   -9.3748    3.0904 H   0  0  0  0  0  0  0  0  0  0  0  0
    0.9628  -11.5445    5.0809 H   0  0  0  0  0  0  0  0  0  0  0  0
    1.4863  -11.7128    3.3976 H   0  0  0  0  0  0  0  0  0  0  0  0
   -0.1560  -11.2648    3.8018 H   0  0  0  0  0  0  0  0  0  0  0  0
  1  2  1  0
  1 32  1  0
  1 33  1  0
  1 34  1  0
  2 30  1  0
  2  3  1  0
  2 35  1  1
  3  4  1  0
  3 36  1  0
  3 37  1  0
  4  5  1  0
  4 38  1  0
  4 39  1  0
  5 29  1  0
  5  6  1  1
  5  7  1  0
  6 40  1  0
  6 41  1  0
  6 42  1  0
  7  8  1  0
  7 43  1  0
  7 44  1  0
  8  9  1  0
  8 45  1  0
  8 46  1  0
  9 27  1  0
  9 10  1  6
  9 11  1  0
 10 47  1  0
 10 48  1  0
 10 49  1  0
 11 12  2  0
 11 29  1  0
 12 13  1  0
 12 50  1  0
 13 14  2  0
 13 51  1  0
 14 27  1  0
 14 15  1  0
 15 24  1  0
 15 16  1  6
 15 17  1  0
 16 52  1  0
 16 53  1  0
 16 54  1  0
 17 18  1  0
 17 55  1  0
 17 56  1  0
 18 19  1  0
 18 57  1  0
 18 58  1  0
 19 20  1  0
 19 21  1  0
 19 59  1  6
 20 60  1  0
 21 22  1  0
 21 23  1  0
 21 24  1  0
 22 61  1  0
 22 62  1  0
 22 63  1  0
 23 64  1  0
 23 65  1  0
 23 66  1  0
 24 25  1  0
 24 67  1  1
 25 26  1  0
 25 68  1  0
 25 69  1  0
 26 27  1  0
 26 70  1  0
 26 71  1  0
 27 28  1  1
 28 72  1  0
 28 73  1  0
 28 74  1  0
 29 30  1  0
 29 75  1  6
 30 31  1  0
 30 76  1  6
 31 77  1  0
 31 78  1  0
 31 79  1  0
M  END
>  <i_m_ct_stereo_status>  (151) 
1

>  <s_m_source_file>  (151) 
/var/tmp/pbs.5076255.sched01/tmpguyree9i/45_f3p7e6s.sdf

>  <i_m_source_file_index>  (151) 
20

>  <i_lp_mmshare_version>  (151) 
48012

>  <i_f3d_flags>  (151) 
0

>  <s_epik_input>  (151) 
W0NIMl0xW0NIMl1bQ0BASF0oW0NIM10pW0NASF0oW0NIM10pW0NASF0oW0NAXTEyW0NIM10pQz0zW0NAXShbQ0gzXSkoW0NIMl1bQ0gyXTIpW0NAXTQoW0NIM10pQyg9W0NIXVtDSF0zKVtDQF01KFtDSDNdKVtDQEBIXShbQ0gyXVtDSDJdNClDKFtDSDNdKShbQ0gzXSlbQ0BIXShbT0hdKVtDSDJdW0NIMl01

>  <s_epik_cmdline>  (151) 
J2VwaWtfcHl0aG9uJywgJy1waHQnLCAnMi4wJywgJy1waCcsICc3LjAnLCAnLXRuJywgJzgnLCAnLW1hJywgJzIwMCcsICctaW1hZScsICc8aW5maWxlLm1hZT4nLCAnLW9tYWUnLCAnPG91dGZpbGUubWFlPic=

>  <r_lp_tautomer_probability>  (151) 
1

>  <r_epik_Ionization_Penalty>  (151) 
2.16736e-06

>  <r_epik_Ionization_Penalty_Charging>  (151) 
0

>  <r_epik_Ionization_Penalty_Neutral>  (151) 
2.16736e-06

>  <r_epik_State_Penalty>  (151) 
-0

>  <r_epik_Charging_Adjusted_Penalty>  (151) 
0

>  <i_epik_Tot_Q>  (151) 
0

>  <i_epik_Tot_abs_Q>  (151) 
0

>  <s_lp_Force_Field>  (151) 
OPLS3e

>  <r_lp_Energy>  (151) 
88.613

>  <b_lp_Chiralities_Consistent>  (151) 
1

>  <s_lp_Variant>  (151) 
43:0-1

>  <s_i_glide_gridfile>  (151) 
pfpi4k_grid

>  <i_i_glide_lignum>  (151) 
20

>  <i_i_glide_rotatable_bonds>  (151) 
1

>  <r_i_docking_score>  (151) 
-3.0825

>  <r_i_glide_ligand_efficiency>  (151) 
-0.0994354

>  <r_i_glide_ligand_efficiency_sa>  (151) 
-0.312365

>  <r_i_glide_ligand_efficiency_ln>  (151) 
-0.695198

>  <r_i_glide_gscore>  (151) 
-3.0825

>  <r_i_glide_lipo>  (151) 
-0.399726

>  <r_i_glide_hbond>  (151) 
-0.16

>  <r_i_glide_metal>  (151) 
-0

>  <r_i_glide_rewards>  (151) 
-0.513399

>  <r_i_glide_evdw>  (151) 
-27.4186

>  <r_i_glide_ecoul>  (151) 
-4.2563

>  <r_i_glide_erotb>  (151) 
0

>  <r_i_glide_esite>  (151) 
0

>  <r_i_glide_emodel>  (151) 
-37.6288

>  <r_i_glide_energy>  (151) 
-31.6749

>  <r_i_glide_einternal>  (151) 
0.586081

>  <r_i_glide_intrahb_reward>  (151) 
-0

>  <i_i_glide_confnum>  (151) 
2

>  <i_i_glide_posenum>  (151) 
29

>  <r_i_glide_eff_state_penalty>  (151) 
0

>  <ligand_id>  (151) 
43

>  <original_smiles>  (151) 
CC1CCC2(C)CCC3(C)C(=CC=C4C5(C)CCC(O)C(C)(C)C5CCC43C)C2C1C

>  <smiles>  (151) 
[H]OC1([H])C([H])([H])C([H])([H])C2(C([H])([H])[H])C3=C([H])C([H])=C4C5([H])C([H])(C([H])([H])[H])C([H])(C([H])([H])[H])C([H])([H])C([H])([H])C5(C([H])([H])[H])C([H])([H])C([H])([H])C4(C([H])([H])[H])C3(C([H])([H])[H])C([H])([H])C([H])([H])C2([H])C1(C([H])([H])[H])C([H])([H])[H]

$$$$
43:0:1
     RDKit          3D

 79 83  0  0  1  0  0  0  0  0999 V2000
   -0.6296   -7.5897    2.1251 C   0  0  0  0  0  0  0  0  0  0  0  0
   -0.4782   -8.7044    3.1692 C   0  0  2  0  0  0  0  0  0  0  0  0
   -0.8536   -8.1945    4.5764 C   0  0  0  0  0  0  0  0  0  0  0  0
    0.2849   -7.4143    5.2581 C   0  0  0  0  0  0  0  0  0  0  0  0
    1.6009   -8.2266    5.3400 C   0  0  2  0  0  0  0  0  0  0  0  0
    1.4049   -9.4534    6.2730 C   0  0  0  0  0  0  0  0  0  0  0  0
    2.7300   -7.4337    6.0262 C   0  0  0  0  0  0  0  0  0  0  0  0
    3.1312   -6.1698    5.2775 C   0  0  0  0  0  0  0  0  0  0  0  0
    3.6179   -6.4228    3.8211 C   0  0  1  0  0  0  0  0  0  0  0  0
    5.0199   -7.0818    3.9076 C   0  0  0  0  0  0  0  0  0  0  0  0
    2.7112   -7.4436    3.0763 C   0  0  0  0  0  0  0  0  0  0  0  0
    2.6524   -7.3434    1.7241 C   0  0  0  0  0  0  0  0  0  0  0  0
    3.4314   -6.3813    0.9688 C   0  0  0  0  0  0  0  0  0  0  0  0
    3.9750   -5.2839    1.5293 C   0  0  0  0  0  0  0  0  0  0  0  0
    4.9006   -4.3047    0.7452 C   0  0  1  0  0  0  0  0  0  0  0  0
    6.3463   -4.8649    0.8532 C   0  0  0  0  0  0  0  0  0  0  0  0
    4.5043   -4.2605   -0.7596 C   0  0  0  0  0  0  0  0  0  0  0  0
    5.1613   -3.1438   -1.5960 C   0  0  0  0  0  0  0  0  0  0  0  0
    4.9606   -1.7490   -0.9880 C   0  0  1  0  0  0  0  0  0  0  0  0
    3.6127   -1.3808   -1.1728 O   0  0  0  0  0  0  0  0  0  0  0  0
    5.4108   -1.6799    0.4961 C   0  0  0  0  0  0  0  0  0  0  0  0
    6.9576   -1.6945    0.5224 C   0  0  0  0  0  0  0  0  0  0  0  0
    4.9802   -0.3282    1.1106 C   0  0  0  0  0  0  0  0  0  0  0  0
    4.7486   -2.8514    1.3097 C   0  0  2  0  0  0  0  0  0  0  0  0
    4.9457   -2.7555    2.8437 C   0  0  0  0  0  0  0  0  0  0  0  0
    4.7730   -4.0821    3.6091 C   0  0  0  0  0  0  0  0  0  0  0  0
    3.6863   -5.0297    3.0238 C   0  0  2  0  0  0  0  0  0  0  0  0
    2.3114   -4.3042    3.1006 C   0  0  0  0  0  0  0  0  0  0  0  0
    2.0439   -8.6112    3.8835 C   0  0  2  0  0  0  0  0  0  0  0  0
    0.9122   -9.4025    3.1239 C   0  0  1  0  0  0  0  0  0  0  0  0
    0.8145  -10.9030    3.4825 C   0  0  0  0  0  0  0  0  0  0  0  0
    0.0212   -6.7454    2.3382 H   0  0  0  0  0  0  0  0  0  0  0  0
   -1.6577   -7.2306    2.1030 H   0  0  0  0  0  0  0  0  0  0  0  0
   -0.3999   -7.9538    1.1249 H   0  0  0  0  0  0  0  0  0  0  0  0
   -1.2280   -9.4519    2.9016 H   0  0  0  0  0  0  0  0  0  0  0  0
   -1.7365   -7.5586    4.5109 H   0  0  0  0  0  0  0  0  0  0  0  0
   -1.1588   -9.0366    5.1968 H   0  0  0  0  0  0  0  0  0  0  0  0
    0.4449   -6.5031    4.6828 H   0  0  0  0  0  0  0  0  0  0  0  0
   -0.0250   -7.0933    6.2559 H   0  0  0  0  0  0  0  0  0  0  0  0
    2.2379  -10.1521    6.2081 H   0  0  0  0  0  0  0  0  0  0  0  0
    0.4991  -10.0191    6.0935 H   0  0  0  0  0  0  0  0  0  0  0  0
    1.3264   -9.1454    7.3161 H   0  0  0  0  0  0  0  0  0  0  0  0
    2.4314   -7.1556    7.0394 H   0  0  0  0  0  0  0  0  0  0  0  0
    3.6030   -8.0759    6.1438 H   0  0  0  0  0  0  0  0  0  0  0  0
    2.2835   -5.4941    5.3231 H   0  0  0  0  0  0  0  0  0  0  0  0
    3.9178   -5.6751    5.8488 H   0  0  0  0  0  0  0  0  0  0  0  0
    5.6944   -6.5424    4.5718 H   0  0  0  0  0  0  0  0  0  0  0  0
    5.4997   -7.1435    2.9313 H   0  0  0  0  0  0  0  0  0  0  0  0
    4.9627   -8.0987    4.2911 H   0  0  0  0  0  0  0  0  0  0  0  0
    2.0845   -8.0328    1.1290 H   0  0  0  0  0  0  0  0  0  0  0  0
    3.6315   -6.6136   -0.0661 H   0  0  0  0  0  0  0  0  0  0  0  0
    6.9639   -4.6073   -0.0016 H   0  0  0  0  0  0  0  0  0  0  0  0
    6.3409   -5.9546    0.8747 H   0  0  0  0  0  0  0  0  0  0  0  0
    6.8769   -4.5288    1.7410 H   0  0  0  0  0  0  0  0  0  0  0  0
    4.7546   -5.2083   -1.2394 H   0  0  0  0  0  0  0  0  0  0  0  0
    3.4195   -4.1537   -0.8386 H   0  0  0  0  0  0  0  0  0  0  0  0
    6.2235   -3.3469   -1.7299 H   0  0  0  0  0  0  0  0  0  0  0  0
    4.7450   -3.1560   -2.6032 H   0  0  0  0  0  0  0  0  0  0  0  0
    5.5336   -1.0250   -1.5656 H   0  0  0  0  0  0  0  0  0  0  0  0
    3.0574   -1.9260   -0.6353 H   0  0  0  0  0  0  0  0  0  0  0  0
    7.3380   -1.7364    1.5360 H   0  0  0  0  0  0  0  0  0  0  0  0
    7.3580   -0.7794    0.0895 H   0  0  0  0  0  0  0  0  0  0  0  0
    7.4024   -2.5140   -0.0351 H   0  0  0  0  0  0  0  0  0  0  0  0
    5.4396   -0.1614    2.0845 H   0  0  0  0  0  0  0  0  0  0  0  0
    3.8991   -0.2643    1.2363 H   0  0  0  0  0  0  0  0  0  0  0  0
    5.2814    0.5157    0.4876 H   0  0  0  0  0  0  0  0  0  0  0  0
    3.6873   -2.6489    1.1813 H   0  0  0  0  0  0  0  0  0  0  0  0
    5.9192   -2.3368    3.0875 H   0  0  0  0  0  0  0  0  0  0  0  0
    4.2199   -2.0402    3.2310 H   0  0  0  0  0  0  0  0  0  0  0  0
    5.7376   -4.5839    3.6199 H   0  0  0  0  0  0  0  0  0  0  0  0
    4.5563   -3.8470    4.6517 H   0  0  0  0  0  0  0  0  0  0  0  0
    2.1773   -3.7756    4.0436 H   0  0  0  0  0  0  0  0  0  0  0  0
    1.4782   -4.9959    2.9896 H   0  0  0  0  0  0  0  0  0  0  0  0
    2.1799   -3.5587    2.3231 H   0  0  0  0  0  0  0  0  0  0  0  0
    2.8733   -9.3070    3.9996 H   0  0  0  0  0  0  0  0  0  0  0  0
    1.1804   -9.5087    2.0784 H   0  0  0  0  0  0  0  0  0  0  0  0
    0.2173  -11.1106    4.3673 H   0  0  0  0  0  0  0  0  0  0  0  0
    1.7960  -11.3580    3.6196 H   0  0  0  0  0  0  0  0  0  0  0  0
    0.3265  -11.4469    2.6727 H   0  0  0  0  0  0  0  0  0  0  0  0
  1  2  1  0
  1 32  1  0
  1 33  1  0
  1 34  1  0
  2 30  1  0
  2  3  1  0
  2 35  1  6
  3  4  1  0
  3 36  1  0
  3 37  1  0
  4  5  1  0
  4 38  1  0
  4 39  1  0
  5 29  1  0
  5  6  1  1
  5  7  1  0
  6 40  1  0
  6 41  1  0
  6 42  1  0
  7  8  1  0
  7 43  1  0
  7 44  1  0
  8  9  1  0
  8 45  1  0
  8 46  1  0
  9 27  1  0
  9 10  1  1
  9 11  1  0
 10 47  1  0
 10 48  1  0
 10 49  1  0
 11 12  2  0
 11 29  1  0
 12 13  1  0
 12 50  1  0
 13 14  2  0
 13 51  1  0
 14 27  1  0
 14 15  1  0
 15 24  1  0
 15 16  1  6
 15 17  1  0
 16 52  1  0
 16 53  1  0
 16 54  1  0
 17 18  1  0
 17 55  1  0
 17 56  1  0
 18 19  1  0
 18 57  1  0
 18 58  1  0
 19 20  1  0
 19 21  1  0
 19 59  1  6
 20 60  1  0
 21 22  1  0
 21 23  1  0
 21 24  1  0
 22 61  1  0
 22 62  1  0
 22 63  1  0
 23 64  1  0
 23 65  1  0
 23 66  1  0
 24 25  1  0
 24 67  1  1
 25 26  1  0
 25 68  1  0
 25 69  1  0
 26 27  1  0
 26 70  1  0
 26 71  1  0
 27 28  1  6
 28 72  1  0
 28 73  1  0
 28 74  1  0
 29 30  1  0
 29 75  1  1
 30 31  1  0
 30 76  1  6
 31 77  1  0
 31 78  1  0
 31 79  1  0
M  END
>  <i_m_ct_stereo_status>  (152) 
1

>  <s_m_source_file>  (152) 
/var/tmp/pbs.5076255.sched01/tmpguyree9i/45_f3p7e6s.sdf

>  <i_m_source_file_index>  (152) 
20

>  <i_lp_mmshare_version>  (152) 
48012

>  <i_f3d_flags>  (152) 
0

>  <s_epik_input>  (152) 
W0NIMl0xW0NIMl1bQ0BASF0oW0NIM10pW0NASF0oW0NIM10pW0NASF0oW0NAXTEyW0NIM10pQz0zW0NAXShbQ0gzXSkoW0NIMl1bQ0gyXTIpW0NAXTQoW0NIM10pQyg9W0NIXVtDSF0zKVtDQF01KFtDSDNdKVtDQEBIXShbQ0gyXVtDSDJdNClDKFtDSDNdKShbQ0gzXSlbQ0BIXShbT0hdKVtDSDJdW0NIMl01

>  <s_epik_cmdline>  (152) 
J2VwaWtfcHl0aG9uJywgJy1waHQnLCAnMi4wJywgJy1waCcsICc3LjAnLCAnLXRuJywgJzgnLCAnLW1hJywgJzIwMCcsICctaW1hZScsICc8aW5maWxlLm1hZT4nLCAnLW9tYWUnLCAnPG91dGZpbGUubWFlPic=

>  <r_lp_tautomer_probability>  (152) 
1

>  <r_epik_Ionization_Penalty>  (152) 
2.16736e-06

>  <r_epik_Ionization_Penalty_Charging>  (152) 
0

>  <r_epik_Ionization_Penalty_Neutral>  (152) 
2.16736e-06

>  <r_epik_State_Penalty>  (152) 
-0

>  <r_epik_Charging_Adjusted_Penalty>  (152) 
0

>  <i_epik_Tot_Q>  (152) 
0

>  <i_epik_Tot_abs_Q>  (152) 
0

>  <s_lp_Force_Field>  (152) 
OPLS3e

>  <r_lp_Energy>  (152) 
88.613

>  <b_lp_Chiralities_Consistent>  (152) 
1

>  <s_lp_Variant>  (152) 
43:0-1

>  <s_i_glide_gridfile>  (152) 
pfpi4k_grid

>  <i_i_glide_lignum>  (152) 
20

>  <i_i_glide_rotatable_bonds>  (152) 
1

>  <r_i_docking_score>  (152) 
-2.99285

>  <r_i_glide_ligand_efficiency>  (152) 
-0.0965436

>  <r_i_glide_ligand_efficiency_sa>  (152) 
-0.30328

>  <r_i_glide_ligand_efficiency_ln>  (152) 
-0.674979

>  <r_i_glide_gscore>  (152) 
-2.99285

>  <r_i_glide_lipo>  (152) 
-0.697996

>  <r_i_glide_hbond>  (152) 
0

>  <r_i_glide_metal>  (152) 
-0

>  <r_i_glide_rewards>  (152) 
-0.513399

>  <r_i_glide_evdw>  (152) 
-33.8015

>  <r_i_glide_ecoul>  (152) 
-0.609209

>  <r_i_glide_erotb>  (152) 
0

>  <r_i_glide_esite>  (152) 
0

>  <r_i_glide_emodel>  (152) 
-40.5173

>  <r_i_glide_energy>  (152) 
-34.4107

>  <r_i_glide_einternal>  (152) 
0.00993827

>  <r_i_glide_intrahb_reward>  (152) 
-0

>  <i_i_glide_confnum>  (152) 
1

>  <i_i_glide_posenum>  (152) 
13

>  <r_i_glide_eff_state_penalty>  (152) 
0

>  <ligand_id>  (152) 
43

>  <original_smiles>  (152) 
CC1CCC2(C)CCC3(C)C(=CC=C4C5(C)CCC(O)C(C)(C)C5CCC43C)C2C1C

>  <smiles>  (152) 
[H]OC1([H])C([H])([H])C([H])([H])C2(C([H])([H])[H])C3=C([H])C([H])=C4C5([H])C([H])(C([H])([H])[H])C([H])(C([H])([H])[H])C([H])([H])C([H])([H])C5(C([H])([H])[H])C([H])([H])C([H])([H])C4(C([H])([H])[H])C3(C([H])([H])[H])C([H])([H])C([H])([H])C2([H])C1(C([H])([H])[H])C([H])([H])[H]

$$$$
43:0:2
     RDKit          3D

 79 83  0  0  1  0  0  0  0  0999 V2000
   -0.5819   -7.8395    2.2265 C   0  0  0  0  0  0  0  0  0  0  0  0
   -0.4234   -8.8473    3.3731 C   0  0  2  0  0  0  0  0  0  0  0  0
   -0.9447   -8.2428    4.6925 C   0  0  0  0  0  0  0  0  0  0  0  0
    0.0755   -7.3093    5.3719 C   0  0  0  0  0  0  0  0  0  0  0  0
    1.4341   -8.0034    5.6343 C   0  0  2  0  0  0  0  0  0  0  0  0
    1.2508   -9.1459    6.6710 C   0  0  0  0  0  0  0  0  0  0  0  0
    2.4400   -7.0593    6.3212 C   0  0  0  0  0  0  0  0  0  0  0  0
    2.8050   -5.8435    5.4809 C   0  0  0  0  0  0  0  0  0  0  0  0
    3.4250   -6.1929    4.0968 C   0  0  1  0  0  0  0  0  0  0  0  0
    4.8599   -6.7241    4.3523 C   0  0  0  0  0  0  0  0  0  0  0  0
    2.6604   -7.3500    3.3901 C   0  0  0  0  0  0  0  0  0  0  0  0
    2.7018   -7.3804    2.0359 C   0  0  0  0  0  0  0  0  0  0  0  0
    3.4674   -6.4347    1.2470 C   0  0  0  0  0  0  0  0  0  0  0  0
    3.8814   -5.2480    1.7347 C   0  0  0  0  0  0  0  0  0  0  0  0
    4.7941   -4.2756    0.9276 C   0  0  1  0  0  0  0  0  0  0  0  0
    6.2615   -4.7042    1.1919 C   0  0  0  0  0  0  0  0  0  0  0  0
    4.5201   -4.4040   -0.5997 C   0  0  0  0  0  0  0  0  0  0  0  0
    5.1588   -3.3136   -1.4879 C   0  0  0  0  0  0  0  0  0  0  0  0
    4.7985   -1.8945   -1.0284 C   0  0  1  0  0  0  0  0  0  0  0  0
    3.4252   -1.7213   -1.3161 O   0  0  0  0  0  0  0  0  0  0  0  0
    5.1251   -1.6508    0.4705 C   0  0  0  0  0  0  0  0  0  0  0  0
    6.6629   -1.5354    0.6244 C   0  0  0  0  0  0  0  0  0  0  0  0
    4.5370   -0.2874    0.9117 C   0  0  0  0  0  0  0  0  0  0  0  0
    4.4905   -2.7946    1.3384 C   0  0  2  0  0  0  0  0  0  0  0  0
    4.5592   -2.5401    2.8645 C   0  0  0  0  0  0  0  0  0  0  0  0
    4.4196   -3.7983    3.7402 C   0  0  0  0  0  0  0  0  0  0  0  0
    3.4563   -4.8797    3.1716 C   0  0  2  0  0  0  0  0  0  0  0  0
    2.0303   -4.2629    3.0784 C   0  0  0  0  0  0  0  0  0  0  0  0
    2.0190   -8.4866    4.2612 C   0  0  2  0  0  0  0  0  0  0  0  0
    1.0140   -9.4343    3.5006 C   0  0  1  0  0  0  0  0  0  0  0  0
    0.9973  -10.8989    4.0013 C   0  0  0  0  0  0  0  0  0  0  0  0
   -0.0178   -6.9303    2.4058 H   0  0  0  0  0  0  0  0  0  0  0  0
   -1.6283   -7.5737    2.0970 H   0  0  0  0  0  0  0  0  0  0  0  0
   -0.2412   -8.2522    1.2794 H   0  0  0  0  0  0  0  0  0  0  0  0
   -1.0926   -9.6749    3.1268 H   0  0  0  0  0  0  0  0  0  0  0  0
   -1.8613   -7.6871    4.4992 H   0  0  0  0  0  0  0  0  0  0  0  0
   -1.2380   -9.0464    5.3683 H   0  0  0  0  0  0  0  0  0  0  0  0
    0.2141   -6.4480    4.7199 H   0  0  0  0  0  0  0  0  0  0  0  0
   -0.3275   -6.9157    6.3073 H   0  0  0  0  0  0  0  0  0  0  0  0
    2.1354   -9.7781    6.7366 H   0  0  0  0  0  0  0  0  0  0  0  0
    0.4083   -9.7983    6.4798 H   0  0  0  0  0  0  0  0  0  0  0  0
    1.0644   -8.7483    7.6682 H   0  0  0  0  0  0  0  0  0  0  0  0
    2.0388   -6.7133    7.2759 H   0  0  0  0  0  0  0  0  0  0  0  0
    3.3454   -7.6148    6.5667 H   0  0  0  0  0  0  0  0  0  0  0  0
    1.9081   -5.2369    5.3982 H   0  0  0  0  0  0  0  0  0  0  0  0
    3.5040   -5.2358    6.0568 H   0  0  0  0  0  0  0  0  0  0  0  0
    5.4351   -6.0717    5.0070 H   0  0  0  0  0  0  0  0  0  0  0  0
    5.4196   -6.8366    3.4256 H   0  0  0  0  0  0  0  0  0  0  0  0
    4.8462   -7.7011    4.8301 H   0  0  0  0  0  0  0  0  0  0  0  0
    2.2392   -8.1658    1.4673 H   0  0  0  0  0  0  0  0  0  0  0  0
    3.7628   -6.7456    0.2576 H   0  0  0  0  0  0  0  0  0  0  0  0
    6.9262   -4.4770    0.3641 H   0  0  0  0  0  0  0  0  0  0  0  0
    6.3348   -5.7824    1.3254 H   0  0  0  0  0  0  0  0  0  0  0  0
    6.6907   -4.2427    2.0784 H   0  0  0  0  0  0  0  0  0  0  0  0
    4.8683   -5.3673   -0.9723 H   0  0  0  0  0  0  0  0  0  0  0  0
    3.4395   -4.3837   -0.7629 H   0  0  0  0  0  0  0  0  0  0  0  0
    6.2395   -3.4369   -1.5267 H   0  0  0  0  0  0  0  0  0  0  0  0
    4.8204   -3.4492   -2.5160 H   0  0  0  0  0  0  0  0  0  0  0  0
    5.3414   -1.1661   -1.6320 H   0  0  0  0  0  0  0  0  0  0  0  0
    3.0694   -1.0257   -0.7845 H   0  0  0  0  0  0  0  0  0  0  0  0
    6.9829   -1.4647    1.6635 H   0  0  0  0  0  0  0  0  0  0  0  0
    7.0264   -0.6358    0.1304 H   0  0  0  0  0  0  0  0  0  0  0  0
    7.2069   -2.3616    0.1736 H   0  0  0  0  0  0  0  0  0  0  0  0
    4.9092    0.0106    1.8943 H   0  0  0  0  0  0  0  0  0  0  0  0
    3.4471   -0.3089    0.9657 H   0  0  0  0  0  0  0  0  0  0  0  0
    4.8084    0.5050    0.2196 H   0  0  0  0  0  0  0  0  0  0  0  0
    3.4313   -2.6919    1.1108 H   0  0  0  0  0  0  0  0  0  0  0  0
    5.4800   -2.0272    3.1361 H   0  0  0  0  0  0  0  0  0  0  0  0
    3.7557   -1.8500    3.1232 H   0  0  0  0  0  0  0  0  0  0  0  0
    5.4156   -4.2165    3.8747 H   0  0  0  0  0  0  0  0  0  0  0  0
    4.1004   -3.4822    4.7336 H   0  0  0  0  0  0  0  0  0  0  0  0
    1.7820   -3.6625    3.9517 H   0  0  0  0  0  0  0  0  0  0  0  0
    1.2631   -5.0271    2.9755 H   0  0  0  0  0  0  0  0  0  0  0  0
    1.9080   -3.6061    2.2242 H   0  0  0  0  0  0  0  0  0  0  0  0
    2.8845   -9.0985    4.5066 H   0  0  0  0  0  0  0  0  0  0  0  0
    1.3715   -9.6137    2.4930 H   0  0  0  0  0  0  0  0  0  0  0  0
    0.3433  -11.0690    4.8537 H   0  0  0  0  0  0  0  0  0  0  0  0
    1.9953  -11.2564    4.2592 H   0  0  0  0  0  0  0  0  0  0  0  0
    0.6185  -11.5588    3.2182 H   0  0  0  0  0  0  0  0  0  0  0  0
  1  2  1  0
  1 32  1  0
  1 33  1  0
  1 34  1  0
  2 30  1  0
  2  3  1  0
  2 35  1  6
  3  4  1  0
  3 36  1  0
  3 37  1  0
  4  5  1  0
  4 38  1  0
  4 39  1  0
  5 29  1  0
  5  6  1  1
  5  7  1  0
  6 40  1  0
  6 41  1  0
  6 42  1  0
  7  8  1  0
  7 43  1  0
  7 44  1  0
  8  9  1  0
  8 45  1  0
  8 46  1  0
  9 27  1  0
  9 10  1  1
  9 11  1  0
 10 47  1  0
 10 48  1  0
 10 49  1  0
 11 12  2  0
 11 29  1  0
 12 13  1  0
 12 50  1  0
 13 14  2  0
 13 51  1  0
 14 27  1  0
 14 15  1  0
 15 24  1  0
 15 16  1  6
 15 17  1  0
 16 52  1  0
 16 53  1  0
 16 54  1  0
 17 18  1  0
 17 55  1  0
 17 56  1  0
 18 19  1  0
 18 57  1  0
 18 58  1  0
 19 20  1  0
 19 21  1  0
 19 59  1  6
 20 60  1  0
 21 22  1  0
 21 23  1  0
 21 24  1  0
 22 61  1  0
 22 62  1  0
 22 63  1  0
 23 64  1  0
 23 65  1  0
 23 66  1  0
 24 25  1  0
 24 67  1  6
 25 26  1  0
 25 68  1  0
 25 69  1  0
 26 27  1  0
 26 70  1  0
 26 71  1  0
 27 28  1  6
 28 72  1  0
 28 73  1  0
 28 74  1  0
 29 30  1  0
 29 75  1  1
 30 31  1  0
 30 76  1  6
 31 77  1  0
 31 78  1  0
 31 79  1  0
M  END
>  <i_m_ct_stereo_status>  (153) 
1

>  <s_m_source_file>  (153) 
/var/tmp/pbs.5076255.sched01/tmpguyree9i/45_f3p7e6s.sdf

>  <i_m_source_file_index>  (153) 
20

>  <i_lp_mmshare_version>  (153) 
48012

>  <i_f3d_flags>  (153) 
0

>  <s_epik_input>  (153) 
W0NIMl0xW0NIMl1bQ0BASF0oW0NIM10pW0NASF0oW0NIM10pW0NASF0oW0NAXTEyW0NIM10pQz0zW0NAXShbQ0gzXSkoW0NIMl1bQ0gyXTIpW0NAXTQoW0NIM10pQyg9W0NIXVtDSF0zKVtDQF01KFtDSDNdKVtDQEBIXShbQ0gyXVtDSDJdNClDKFtDSDNdKShbQ0gzXSlbQ0BIXShbT0hdKVtDSDJdW0NIMl01

>  <s_epik_cmdline>  (153) 
J2VwaWtfcHl0aG9uJywgJy1waHQnLCAnMi4wJywgJy1waCcsICc3LjAnLCAnLXRuJywgJzgnLCAnLW1hJywgJzIwMCcsICctaW1hZScsICc8aW5maWxlLm1hZT4nLCAnLW9tYWUnLCAnPG91dGZpbGUubWFlPic=

>  <r_lp_tautomer_probability>  (153) 
1

>  <r_epik_Ionization_Penalty>  (153) 
2.16736e-06

>  <r_epik_Ionization_Penalty_Charging>  (153) 
0

>  <r_epik_Ionization_Penalty_Neutral>  (153) 
2.16736e-06

>  <r_epik_State_Penalty>  (153) 
-0

>  <r_epik_Charging_Adjusted_Penalty>  (153) 
0

>  <i_epik_Tot_Q>  (153) 
0

>  <i_epik_Tot_abs_Q>  (153) 
0

>  <s_lp_Force_Field>  (153) 
OPLS3e

>  <r_lp_Energy>  (153) 
88.613

>  <b_lp_Chiralities_Consistent>  (153) 
1

>  <s_lp_Variant>  (153) 
43:0-1

>  <s_i_glide_gridfile>  (153) 
pfpi4k_grid

>  <i_i_glide_lignum>  (153) 
20

>  <i_i_glide_rotatable_bonds>  (153) 
1

>  <r_i_docking_score>  (153) 
-2.87923

>  <r_i_glide_ligand_efficiency>  (153) 
-0.0928784

>  <r_i_glide_ligand_efficiency_sa>  (153) 
-0.291766

>  <r_i_glide_ligand_efficiency_ln>  (153) 
-0.649355

>  <r_i_glide_gscore>  (153) 
-2.87923

>  <r_i_glide_lipo>  (153) 
-0.599577

>  <r_i_glide_hbond>  (153) 
-0.00914277

>  <r_i_glide_metal>  (153) 
-0

>  <r_i_glide_rewards>  (153) 
-0.513399

>  <r_i_glide_evdw>  (153) 
-33.4361

>  <r_i_glide_ecoul>  (153) 
-0.568706

>  <r_i_glide_erotb>  (153) 
0

>  <r_i_glide_esite>  (153) 
0

>  <r_i_glide_emodel>  (153) 
-39.3493

>  <r_i_glide_energy>  (153) 
-34.0048

>  <r_i_glide_einternal>  (153) 
0.907154

>  <r_i_glide_intrahb_reward>  (153) 
-0

>  <i_i_glide_confnum>  (153) 
1

>  <i_i_glide_posenum>  (153) 
32

>  <r_i_glide_eff_state_penalty>  (153) 
0

>  <ligand_id>  (153) 
43

>  <original_smiles>  (153) 
CC1CCC2(C)CCC3(C)C(=CC=C4C5(C)CCC(O)C(C)(C)C5CCC43C)C2C1C

>  <smiles>  (153) 
[H]OC1([H])C([H])([H])C([H])([H])C2(C([H])([H])[H])C3=C([H])C([H])=C4C5([H])C([H])(C([H])([H])[H])C([H])(C([H])([H])[H])C([H])([H])C([H])([H])C5(C([H])([H])[H])C([H])([H])C([H])([H])C4(C([H])([H])[H])C3(C([H])([H])[H])C([H])([H])C([H])([H])C2([H])C1(C([H])([H])[H])C([H])([H])[H]

$$$$
44:0:0
     RDKit          3D

 70 75  0  0  1  0  0  0  0  0999 V2000
    2.7412   -1.2060    6.7019 C   0  0  0  0  0  0  0  0  0  0  0  0
    3.4313   -1.2107    5.3207 C   0  0  2  0  0  0  0  0  0  0  0  0
    4.0894    0.1240    4.9740 C   0  0  0  0  0  0  0  0  0  0  0  0
    3.8072    0.3563    3.4806 C   0  0  0  0  0  0  0  0  0  0  0  0
    3.3229   -0.9896    2.8451 C   0  0  2  0  0  0  0  0  0  0  0  0
    2.3367   -0.6625    1.8897 O   0  0  0  0  0  0  0  0  0  0  0  0
    2.5687   -1.5811    4.0863 C   0  0  2  0  0  0  0  0  0  0  0  0
    1.3361   -0.8778    4.2709 O   0  0  0  0  0  0  0  0  0  0  0  0
    2.2738   -3.0865    4.0220 C   0  0  1  0  0  0  0  0  0  0  0  0
    1.0831   -3.3635    3.3209 O   0  0  0  0  0  0  0  0  0  0  0  0
    3.4623   -3.9090    3.4776 C   0  0  1  0  0  0  0  0  0  0  0  0
    3.1494   -5.4181    3.7119 C   0  0  0  0  0  0  0  0  0  0  0  0
    4.0492   -3.4780    2.0542 C   0  0  2  0  0  0  0  0  0  0  0  0
    2.9113   -3.8349    1.0401 C   0  0  0  0  0  0  0  0  0  0  0  0
    3.2430   -4.2838   -0.4048 C   0  0  2  0  0  0  0  0  0  0  0  0
    4.5742   -4.7485   -0.5634 O   0  0  0  0  0  0  0  0  0  0  0  0
    5.1381   -5.3309    0.6043 C   0  0  1  0  0  0  0  0  0  0  0  0
    5.0077   -6.7298    0.8121 O   0  0  0  0  0  0  0  0  0  0  0  0
    6.4559   -4.7248    0.9218 C   0  0  1  0  0  0  0  0  0  0  0  0
    6.8973   -3.6931    0.0772 O   0  0  0  0  0  0  0  0  0  0  0  0
    5.2645   -4.4602    1.8581 C   0  0  1  0  0  0  0  0  0  0  0  0
    2.9510   -3.1544   -1.3435 C   0  0  1  0  0  0  0  0  0  0  0  0
    4.1692   -2.2890   -1.4523 C   0  0  2  0  0  0  0  0  0  0  0  0
    4.0592   -1.0650   -0.5948 C   0  0  0  0  0  0  0  0  0  0  0  0
    4.9061   -1.2088    0.7096 C   0  0  1  0  0  0  0  0  0  0  0  0
    5.4150    0.0730    0.9042 O   0  0  0  0  0  0  0  0  0  0  0  0
    4.4449   -1.8931    2.1057 C   0  0  1  0  0  0  0  0  0  0  0  0
    5.7659   -1.8240    2.9291 C   0  0  0  0  0  0  0  0  0  0  0  0
    3.4746   -2.7375   -2.7023 C   0  0  1  0  0  0  0  0  0  0  0  0
    4.0707   -3.7936   -3.6145 C   0  0  0  0  0  0  0  0  0  0  0  0
    2.7171   -1.7119   -3.5082 C   0  0  0  0  0  0  0  0  0  0  0  0
    3.5733   -1.0082   -4.3896 O   0  0  0  0  0  0  0  0  0  0  0  0
    1.9642   -0.4412    6.7811 H   0  0  0  0  0  0  0  0  0  0  0  0
    3.4707   -1.0071    7.4905 H   0  0  0  0  0  0  0  0  0  0  0  0
    2.2838   -2.1711    6.9286 H   0  0  0  0  0  0  0  0  0  0  0  0
    4.2343   -1.9346    5.4122 H   0  0  0  0  0  0  0  0  0  0  0  0
    3.6889    0.9488    5.5700 H   0  0  0  0  0  0  0  0  0  0  0  0
    5.1620    0.0756    5.1760 H   0  0  0  0  0  0  0  0  0  0  0  0
    3.0140    1.1028    3.4261 H   0  0  0  0  0  0  0  0  0  0  0  0
    4.6580    0.8321    3.0194 H   0  0  0  0  0  0  0  0  0  0  0  0
    1.7263   -0.0482    2.2698 H   0  0  0  0  0  0  0  0  0  0  0  0
    1.5329    0.0408    4.3587 H   0  0  0  0  0  0  0  0  0  0  0  0
    2.0604   -3.4266    5.0346 H   0  0  0  0  0  0  0  0  0  0  0  0
    1.1365   -2.9203    2.4852 H   0  0  0  0  0  0  0  0  0  0  0  0
    4.2592   -3.7524    4.1954 H   0  0  0  0  0  0  0  0  0  0  0  0
    2.2644   -5.7803    3.1932 H   0  0  0  0  0  0  0  0  0  0  0  0
    2.9545   -5.5803    4.7727 H   0  0  0  0  0  0  0  0  0  0  0  0
    3.9666   -6.0887    3.4573 H   0  0  0  0  0  0  0  0  0  0  0  0
    2.3022   -4.6525    1.4179 H   0  0  0  0  0  0  0  0  0  0  0  0
    2.2131   -3.0047    0.9914 H   0  0  0  0  0  0  0  0  0  0  0  0
    2.5525   -5.0893   -0.6593 H   0  0  0  0  0  0  0  0  0  0  0  0
    5.3162   -7.1388    0.0239 H   0  0  0  0  0  0  0  0  0  0  0  0
    7.2634   -5.3925    1.2457 H   0  0  0  0  0  0  0  0  0  0  0  0
    6.1149   -3.3095   -0.3031 H   0  0  0  0  0  0  0  0  0  0  0  0
    5.5749   -4.8929    2.8032 H   0  0  0  0  0  0  0  0  0  0  0  0
    1.9719   -2.7240   -1.1801 H   0  0  0  0  0  0  0  0  0  0  0  0
    5.1778   -2.6793   -1.4925 H   0  0  0  0  0  0  0  0  0  0  0  0
    4.4707   -0.2690   -1.2132 H   0  0  0  0  0  0  0  0  0  0  0  0
    3.0218   -0.7948   -0.4150 H   0  0  0  0  0  0  0  0  0  0  0  0
    5.8251   -1.6820    0.4017 H   0  0  0  0  0  0  0  0  0  0  0  0
    5.3725    0.5895    0.1016 H   0  0  0  0  0  0  0  0  0  0  0  0
    6.5799   -2.3191    2.4055 H   0  0  0  0  0  0  0  0  0  0  0  0
    5.7109   -2.2821    3.9071 H   0  0  0  0  0  0  0  0  0  0  0  0
    6.1369   -0.8129    3.0967 H   0  0  0  0  0  0  0  0  0  0  0  0
    4.7678   -3.3550   -4.3270 H   0  0  0  0  0  0  0  0  0  0  0  0
    3.2692   -4.2841   -4.1690 H   0  0  0  0  0  0  0  0  0  0  0  0
    4.6192   -4.5354   -3.0369 H   0  0  0  0  0  0  0  0  0  0  0  0
    1.9062   -2.1994   -4.0562 H   0  0  0  0  0  0  0  0  0  0  0  0
    2.2737   -0.9956   -2.8102 H   0  0  0  0  0  0  0  0  0  0  0  0
    3.0617   -0.3207   -4.7884 H   0  0  0  0  0  0  0  0  0  0  0  0
  1  2  1  0
  1 33  1  0
  1 34  1  0
  1 35  1  0
  2  7  1  0
  2  3  1  0
  2 36  1  1
  3  4  1  0
  3 37  1  0
  3 38  1  0
  4  5  1  0
  4 39  1  0
  4 40  1  0
  5 27  1  0
  5  6  1  6
  5  7  1  0
  6 41  1  0
  7  8  1  1
  7  9  1  0
  8 42  1  0
  9 10  1  0
  9 11  1  0
  9 43  1  1
 10 44  1  0
 11 12  1  0
 11 13  1  0
 11 45  1  1
 12 46  1  0
 12 47  1  0
 12 48  1  0
 13 21  1  0
 13 27  1  0
 13 14  1  6
 14 15  1  0
 14 49  1  0
 14 50  1  0
 15 16  1  0
 15 22  1  0
 15 51  1  6
 16 17  1  0
 17 21  1  0
 17 18  1  1
 17 19  1  0
 18 52  1  0
 19 20  1  0
 19 21  1  0
 19 53  1  1
 20 54  1  0
 21 55  1  1
 22 29  1  0
 22 23  1  0
 22 56  1  1
 23 24  1  0
 23 29  1  0
 23 57  1  6
 24 25  1  0
 24 58  1  0
 24 59  1  0
 25 26  1  0
 25 27  1  0
 25 60  1  6
 26 61  1  0
 27 28  1  1
 28 62  1  0
 28 63  1  0
 28 64  1  0
 29 30  1  6
 29 31  1  0
 30 65  1  0
 30 66  1  0
 30 67  1  0
 31 32  1  0
 31 68  1  0
 31 69  1  0
 32 70  1  0
M  END
>  <i_m_ct_stereo_status>  (154) 
1

>  <s_m_source_file>  (154) 
/var/tmp/pbs.5076255.sched01/tmpguyree9i/45_f3p7e6s.sdf

>  <i_m_source_file_index>  (154) 
21

>  <i_lp_mmshare_version>  (154) 
48012

>  <i_f3d_flags>  (154) 
0

>  <s_epik_input>  (154) 
W0NIMl0xW0NIMl1bQ0BASF0oW0NIM10pW0NAXShbT0hdKShbQ0BASF0oW09IXSlbQ0BIXTJbQ0gzXSlbQ0BdMShbT0hdKVtDQF0zKFtDSDNdKVtDQEhdKFtPSF0pW0NIMl1bQ0BIXShbQ0BdNChbQ0gzXSlbQ0gyXVtPSF0pW0NAQEhdNFtDQEhdKFtDSDJdNSlPW0NAXShbT0hdKShbQ0BASF02W0NAQF0yMzUpW0NASF02W09IXQ==

>  <s_epik_cmdline>  (154) 
J2VwaWtfcHl0aG9uJywgJy1waHQnLCAnMi4wJywgJy1waCcsICc3LjAnLCAnLXRuJywgJzgnLCAnLW1hJywgJzIwMCcsICctaW1hZScsICc8aW5maWxlLm1hZT4nLCAnLW9tYWUnLCAnPG91dGZpbGUubWFlPic=

>  <r_lp_tautomer_probability>  (154) 
1

>  <r_epik_Ionization_Penalty>  (154) 
3.3616e-06

>  <r_epik_Ionization_Penalty_Charging>  (154) 
0

>  <r_epik_Ionization_Penalty_Neutral>  (154) 
3.3616e-06

>  <r_epik_State_Penalty>  (154) 
-0

>  <r_epik_Charging_Adjusted_Penalty>  (154) 
0

>  <i_epik_Tot_Q>  (154) 
0

>  <i_epik_Tot_abs_Q>  (154) 
0

>  <s_lp_Force_Field>  (154) 
OPLS3e

>  <r_lp_Energy>  (154) 
141.119

>  <b_lp_Chiralities_Consistent>  (154) 
1

>  <s_lp_Variant>  (154) 
44:0-1

>  <s_i_glide_gridfile>  (154) 
pfpi4k_grid

>  <i_i_glide_lignum>  (154) 
21

>  <i_i_glide_rotatable_bonds>  (154) 
8

>  <r_i_docking_score>  (154) 
-2.68285

>  <r_i_glide_ligand_efficiency>  (154) 
-0.083839

>  <r_i_glide_ligand_efficiency_sa>  (154) 
-0.266172

>  <r_i_glide_ligand_efficiency_ln>  (154) 
-0.600763

>  <r_i_glide_gscore>  (154) 
-2.68285

>  <r_i_glide_lipo>  (154) 
-0.467721

>  <r_i_glide_hbond>  (154) 
-0.0792658

>  <r_i_glide_metal>  (154) 
-0

>  <r_i_glide_rewards>  (154) 
-0.428891

>  <r_i_glide_evdw>  (154) 
-22.8259

>  <r_i_glide_ecoul>  (154) 
-4.41913

>  <r_i_glide_erotb>  (154) 
0.0971935

>  <r_i_glide_esite>  (154) 
0

>  <r_i_glide_emodel>  (154) 
-31.1786

>  <r_i_glide_energy>  (154) 
-27.245

>  <r_i_glide_einternal>  (154) 
1.5494

>  <r_i_glide_intrahb_reward>  (154) 
-0

>  <i_i_glide_confnum>  (154) 
1

>  <i_i_glide_posenum>  (154) 
1

>  <r_i_glide_eff_state_penalty>  (154) 
0

>  <ligand_id>  (154) 
44

>  <original_smiles>  (154) 
CC1CCC2(O)C1(O)C(O)C(C)C13CC(OC4(O)C(O)C41)C1C(CC(O)C32C)C1(C)CO

>  <smiles>  (154) 
[H]OC([H])([H])C1(C([H])([H])[H])C2([H])C([H])([H])C([H])(O[H])C3(C([H])([H])[H])C4(O[H])C([H])([H])C([H])([H])C([H])(C([H])([H])[H])C4(O[H])C([H])(O[H])C([H])(C([H])([H])[H])C34C([H])([H])C([H])(OC3(O[H])C([H])(O[H])C34[H])C21[H]

$$$$
44:0:1
     RDKit          3D

 70 75  0  0  1  0  0  0  0  0999 V2000
    2.7261   -1.2538    6.7304 C   0  0  0  0  0  0  0  0  0  0  0  0
    3.4288   -1.2530    5.3569 C   0  0  2  0  0  0  0  0  0  0  0  0
    4.0697    0.0926    5.0115 C   0  0  0  0  0  0  0  0  0  0  0  0
    3.7820    0.3277    3.5203 C   0  0  0  0  0  0  0  0  0  0  0  0
    3.3068   -1.0157    2.8752 C   0  0  2  0  0  0  0  0  0  0  0  0
    2.3058   -0.6588    1.9418 O   0  0  0  0  0  0  0  0  0  0  0  0
    2.5692   -1.6214    4.1230 C   0  0  2  0  0  0  0  0  0  0  0  0
    1.3399   -0.9444    4.3283 O   0  0  0  0  0  0  0  0  0  0  0  0
    2.2729   -3.1209    4.0337 C   0  0  1  0  0  0  0  0  0  0  0  0
    1.0683   -3.3826    3.3503 O   0  0  0  0  0  0  0  0  0  0  0  0
    3.4668   -3.9382    3.4866 C   0  0  1  0  0  0  0  0  0  0  0  0
    3.1730   -5.4505    3.7180 C   0  0  0  0  0  0  0  0  0  0  0  0
    4.0558   -3.4925    2.0711 C   0  0  2  0  0  0  0  0  0  0  0  0
    2.9249   -3.8607    1.0534 C   0  0  0  0  0  0  0  0  0  0  0  0
    3.2613   -4.3101   -0.3913 C   0  0  2  0  0  0  0  0  0  0  0  0
    4.5806   -4.7807   -0.5546 O   0  0  0  0  0  0  0  0  0  0  0  0
    5.1562   -5.3401    0.6166 C   0  0  1  0  0  0  0  0  0  0  0  0
    5.0467   -6.7395    0.8352 O   0  0  0  0  0  0  0  0  0  0  0  0
    6.4690   -4.7218    0.9244 C   0  0  1  0  0  0  0  0  0  0  0  0
    6.9191   -3.6727    0.1066 O   0  0  0  0  0  0  0  0  0  0  0  0
    5.2806   -4.4650    1.8687 C   0  0  1  0  0  0  0  0  0  0  0  0
    2.9715   -3.1735   -1.3309 C   0  0  1  0  0  0  0  0  0  0  0  0
    4.1848   -2.3002   -1.4215 C   0  0  2  0  0  0  0  0  0  0  0  0
    4.0650   -1.0716   -0.5664 C   0  0  0  0  0  0  0  0  0  0  0  0
    4.9025   -1.2025    0.7429 C   0  0  1  0  0  0  0  0  0  0  0  0
    5.3500    0.1107    0.9339 O   0  0  0  0  0  0  0  0  0  0  0  0
    4.4381   -1.8994    2.1265 C   0  0  1  0  0  0  0  0  0  0  0  0
    5.7620   -1.8292    2.9496 C   0  0  0  0  0  0  0  0  0  0  0  0
    3.4949   -2.7478   -2.6834 C   0  0  1  0  0  0  0  0  0  0  0  0
    4.1011   -3.7972   -3.5954 C   0  0  0  0  0  0  0  0  0  0  0  0
    2.7224   -1.7240   -3.4907 C   0  0  0  0  0  0  0  0  0  0  0  0
    3.5750   -1.0279   -4.3819 O   0  0  0  0  0  0  0  0  0  0  0  0
    1.9421   -0.4952    6.7960 H   0  0  0  0  0  0  0  0  0  0  0  0
    3.4460   -1.0468    7.5234 H   0  0  0  0  0  0  0  0  0  0  0  0
    2.2684   -2.2211    6.9484 H   0  0  0  0  0  0  0  0  0  0  0  0
    4.2398   -1.9742    5.4467 H   0  0  0  0  0  0  0  0  0  0  0  0
    3.6544    0.9119    5.6029 H   0  0  0  0  0  0  0  0  0  0  0  0
    5.1430    0.0575    5.2111 H   0  0  0  0  0  0  0  0  0  0  0  0
    2.9728    1.0583    3.4667 H   0  0  0  0  0  0  0  0  0  0  0  0
    4.6274    0.8234    3.0640 H   0  0  0  0  0  0  0  0  0  0  0  0
    2.1485   -1.3820    1.3428 H   0  0  0  0  0  0  0  0  0  0  0  0
    0.8819   -0.9751    3.4990 H   0  0  0  0  0  0  0  0  0  0  0  0
    2.0628   -3.4761    5.0418 H   0  0  0  0  0  0  0  0  0  0  0  0
    1.1401   -3.0683    2.4550 H   0  0  0  0  0  0  0  0  0  0  0  0
    4.2610   -3.7744    4.2041 H   0  0  0  0  0  0  0  0  0  0  0  0
    2.2939   -5.8175    3.1969 H   0  0  0  0  0  0  0  0  0  0  0  0
    2.9788   -5.6168    4.7791 H   0  0  0  0  0  0  0  0  0  0  0  0
    3.9954   -6.1120    3.4664 H   0  0  0  0  0  0  0  0  0  0  0  0
    2.3361   -4.6927    1.4270 H   0  0  0  0  0  0  0  0  0  0  0  0
    2.2057   -3.0485    1.0072 H   0  0  0  0  0  0  0  0  0  0  0  0
    2.5742   -5.1137   -0.6489 H   0  0  0  0  0  0  0  0  0  0  0  0
    5.3672   -7.1458    0.0423 H   0  0  0  0  0  0  0  0  0  0  0  0
    7.2895   -5.3757    1.2549 H   0  0  0  0  0  0  0  0  0  0  0  0
    7.5071   -3.1398    0.6157 H   0  0  0  0  0  0  0  0  0  0  0  0
    5.5985   -4.9057    2.8136 H   0  0  0  0  0  0  0  0  0  0  0  0
    1.9936   -2.7480   -1.1618 H   0  0  0  0  0  0  0  0  0  0  0  0
    5.1904   -2.6939   -1.4430 H   0  0  0  0  0  0  0  0  0  0  0  0
    4.4794   -0.2739   -1.1859 H   0  0  0  0  0  0  0  0  0  0  0  0
    3.0264   -0.8030   -0.3989 H   0  0  0  0  0  0  0  0  0  0  0  0
    5.8341   -1.6538    0.4406 H   0  0  0  0  0  0  0  0  0  0  0  0
    4.5925    0.6842    0.9452 H   0  0  0  0  0  0  0  0  0  0  0  0
    6.5779   -2.3125    2.4179 H   0  0  0  0  0  0  0  0  0  0  0  0
    5.7144   -2.2981    3.9241 H   0  0  0  0  0  0  0  0  0  0  0  0
    6.1226   -0.8180    3.1239 H   0  0  0  0  0  0  0  0  0  0  0  0
    4.8026   -3.3544   -4.3010 H   0  0  0  0  0  0  0  0  0  0  0  0
    3.3106   -4.2942   -4.1611 H   0  0  0  0  0  0  0  0  0  0  0  0
    4.6360   -4.5428   -3.0132 H   0  0  0  0  0  0  0  0  0  0  0  0
    1.9170   -2.2243   -4.0356 H   0  0  0  0  0  0  0  0  0  0  0  0
    2.2758   -1.0100   -2.8013 H   0  0  0  0  0  0  0  0  0  0  0  0
    3.0521   -0.3582   -4.8062 H   0  0  0  0  0  0  0  0  0  0  0  0
  1  2  1  0
  1 33  1  0
  1 34  1  0
  1 35  1  0
  2  7  1  0
  2  3  1  0
  2 36  1  1
  3  4  1  0
  3 37  1  0
  3 38  1  0
  4  5  1  0
  4 39  1  0
  4 40  1  0
  5 27  1  0
  5  6  1  6
  5  7  1  0
  6 41  1  0
  7  8  1  1
  7  9  1  0
  8 42  1  0
  9 10  1  0
  9 11  1  0
  9 43  1  1
 10 44  1  0
 11 12  1  0
 11 13  1  0
 11 45  1  1
 12 46  1  0
 12 47  1  0
 12 48  1  0
 13 21  1  0
 13 27  1  0
 13 14  1  6
 14 15  1  0
 14 49  1  0
 14 50  1  0
 15 16  1  0
 15 22  1  0
 15 51  1  6
 16 17  1  0
 17 21  1  0
 17 18  1  1
 17 19  1  0
 18 52  1  0
 19 20  1  0
 19 21  1  0
 19 53  1  1
 20 54  1  0
 21 55  1  1
 22 29  1  0
 22 23  1  0
 22 56  1  1
 23 24  1  0
 23 29  1  0
 23 57  1  6
 24 25  1  0
 24 58  1  0
 24 59  1  0
 25 26  1  0
 25 27  1  0
 25 60  1  6
 26 61  1  0
 27 28  1  1
 28 62  1  0
 28 63  1  0
 28 64  1  0
 29 30  1  6
 29 31  1  0
 30 65  1  0
 30 66  1  0
 30 67  1  0
 31 32  1  0
 31 68  1  0
 31 69  1  0
 32 70  1  0
M  END
>  <i_m_ct_stereo_status>  (155) 
1

>  <s_m_source_file>  (155) 
/var/tmp/pbs.5076255.sched01/tmpguyree9i/45_f3p7e6s.sdf

>  <i_m_source_file_index>  (155) 
21

>  <i_lp_mmshare_version>  (155) 
48012

>  <i_f3d_flags>  (155) 
0

>  <s_epik_input>  (155) 
W0NIMl0xW0NIMl1bQ0BASF0oW0NIM10pW0NAXShbT0hdKShbQ0BASF0oW09IXSlbQ0BIXTJbQ0gzXSlbQ0BdMShbT0hdKVtDQF0zKFtDSDNdKVtDQEhdKFtPSF0pW0NIMl1bQ0BIXShbQ0BdNChbQ0gzXSlbQ0gyXVtPSF0pW0NAQEhdNFtDQEhdKFtDSDJdNSlPW0NAXShbT0hdKShbQ0BASF02W0NAQF0yMzUpW0NASF02W09IXQ==

>  <s_epik_cmdline>  (155) 
J2VwaWtfcHl0aG9uJywgJy1waHQnLCAnMi4wJywgJy1waCcsICc3LjAnLCAnLXRuJywgJzgnLCAnLW1hJywgJzIwMCcsICctaW1hZScsICc8aW5maWxlLm1hZT4nLCAnLW9tYWUnLCAnPG91dGZpbGUubWFlPic=

>  <r_lp_tautomer_probability>  (155) 
1

>  <r_epik_Ionization_Penalty>  (155) 
3.3616e-06

>  <r_epik_Ionization_Penalty_Charging>  (155) 
0

>  <r_epik_Ionization_Penalty_Neutral>  (155) 
3.3616e-06

>  <r_epik_State_Penalty>  (155) 
-0

>  <r_epik_Charging_Adjusted_Penalty>  (155) 
0

>  <i_epik_Tot_Q>  (155) 
0

>  <i_epik_Tot_abs_Q>  (155) 
0

>  <s_lp_Force_Field>  (155) 
OPLS3e

>  <r_lp_Energy>  (155) 
141.119

>  <b_lp_Chiralities_Consistent>  (155) 
1

>  <s_lp_Variant>  (155) 
44:0-1

>  <s_i_glide_gridfile>  (155) 
pfpi4k_grid

>  <i_i_glide_lignum>  (155) 
21

>  <i_i_glide_rotatable_bonds>  (155) 
8

>  <r_i_docking_score>  (155) 
-2.64718

>  <r_i_glide_ligand_efficiency>  (155) 
-0.0827243

>  <r_i_glide_ligand_efficiency_sa>  (155) 
-0.262633

>  <r_i_glide_ligand_efficiency_ln>  (155) 
-0.592775

>  <r_i_glide_gscore>  (155) 
-2.64718

>  <r_i_glide_lipo>  (155) 
-0.468329

>  <r_i_glide_hbond>  (155) 
-0.0882984

>  <r_i_glide_metal>  (155) 
-0

>  <r_i_glide_rewards>  (155) 
-0.429501

>  <r_i_glide_evdw>  (155) 
-22.671

>  <r_i_glide_ecoul>  (155) 
-4.1646

>  <r_i_glide_erotb>  (155) 
0.0971935

>  <r_i_glide_esite>  (155) 
0

>  <r_i_glide_emodel>  (155) 
-31.0288

>  <r_i_glide_energy>  (155) 
-26.8356

>  <r_i_glide_einternal>  (155) 
1.20248

>  <r_i_glide_intrahb_reward>  (155) 
-0

>  <i_i_glide_confnum>  (155) 
3

>  <i_i_glide_posenum>  (155) 
4

>  <r_i_glide_eff_state_penalty>  (155) 
0

>  <ligand_id>  (155) 
44

>  <original_smiles>  (155) 
CC1CCC2(O)C1(O)C(O)C(C)C13CC(OC4(O)C(O)C41)C1C(CC(O)C32C)C1(C)CO

>  <smiles>  (155) 
[H]OC([H])([H])C1(C([H])([H])[H])C2([H])C([H])([H])C([H])(O[H])C3(C([H])([H])[H])C4(O[H])C([H])([H])C([H])([H])C([H])(C([H])([H])[H])C4(O[H])C([H])(O[H])C([H])(C([H])([H])[H])C34C([H])([H])C([H])(OC3(O[H])C([H])(O[H])C34[H])C21[H]

$$$$
44:0:2
     RDKit          3D

 70 75  0  0  1  0  0  0  0  0999 V2000
    1.7868   -2.2777    6.7887 C   0  0  0  0  0  0  0  0  0  0  0  0
    2.5711   -1.9998    5.4866 C   0  0  2  0  0  0  0  0  0  0  0  0
    2.7173   -0.5047    5.1878 C   0  0  0  0  0  0  0  0  0  0  0  0
    2.5267   -0.3480    3.6713 C   0  0  0  0  0  0  0  0  0  0  0  0
    2.6320   -1.7627    3.0097 C   0  0  2  0  0  0  0  0  0  0  0  0
    1.6680   -1.7707    1.9789 O   0  0  0  0  0  0  0  0  0  0  0  0
    2.0311   -2.6329    4.1777 C   0  0  2  0  0  0  0  0  0  0  0  0
    0.6231   -2.4534    4.2736 O   0  0  0  0  0  0  0  0  0  0  0  0
    2.3117   -4.1426    4.0790 C   0  0  1  0  0  0  0  0  0  0  0  0
    1.3994   -4.8187    3.2368 O   0  0  0  0  0  0  0  0  0  0  0  0
    3.7733   -4.4510    3.6913 C   0  0  1  0  0  0  0  0  0  0  0  0
    4.0226   -5.9751    3.9225 C   0  0  0  0  0  0  0  0  0  0  0  0
    4.3004   -3.7909    2.3311 C   0  0  2  0  0  0  0  0  0  0  0  0
    3.4856   -4.5314    1.2107 C   0  0  0  0  0  0  0  0  0  0  0  0
    4.1008   -4.8025   -0.1836 C   0  0  2  0  0  0  0  0  0  0  0  0
    5.5125   -4.7676   -0.1946 O   0  0  0  0  0  0  0  0  0  0  0  0
    6.1305   -5.1036    1.0447 C   0  0  1  0  0  0  0  0  0  0  0  0
    6.4878   -6.4561    1.3124 O   0  0  0  0  0  0  0  0  0  0  0  0
    7.0978   -4.0600    1.4467 C   0  0  1  0  0  0  0  0  0  0  0  0
    7.2206   -2.9125    0.6458 O   0  0  0  0  0  0  0  0  0  0  0  0
    5.8128   -4.2437    2.2731 C   0  0  1  0  0  0  0  0  0  0  0  0
    3.5029   -3.8279   -1.1615 C   0  0  1  0  0  0  0  0  0  0  0  0
    4.3283   -2.5787   -1.1571 C   0  0  2  0  0  0  0  0  0  0  0  0
    3.6996   -1.4963   -0.3275 C   0  0  0  0  0  0  0  0  0  0  0  0
    4.3943   -1.3183    1.0614 C   0  0  1  0  0  0  0  0  0  0  0  0
    4.3258    0.0722    1.2730 O   0  0  0  0  0  0  0  0  0  0  0  0
    4.0796   -2.1685    2.4008 C   0  0  1  0  0  0  0  0  0  0  0  0
    5.1978   -1.6471    3.3629 C   0  0  0  0  0  0  0  0  0  0  0  0
    3.9600   -3.2209   -2.4688 C   0  0  1  0  0  0  0  0  0  0  0  0
    4.9894   -3.9777   -3.2787 C   0  0  0  0  0  0  0  0  0  0  0  0
    2.9516   -2.5308   -3.3780 C   0  0  0  0  0  0  0  0  0  0  0  0
    3.5870   -1.6818   -4.3177 O   0  0  0  0  0  0  0  0  0  0  0  0
    0.7784   -1.8543    6.7715 H   0  0  0  0  0  0  0  0  0  0  0  0
    2.3052   -1.8389    7.6433 H   0  0  0  0  0  0  0  0  0  0  0  0
    1.6941   -3.3490    6.9806 H   0  0  0  0  0  0  0  0  0  0  0  0
    3.5712   -2.3800    5.6692 H   0  0  0  0  0  0  0  0  0  0  0  0
    1.9753    0.0985    5.7198 H   0  0  0  0  0  0  0  0  0  0  0  0
    3.7051   -0.1571    5.5008 H   0  0  0  0  0  0  0  0  0  0  0  0
    1.5198    0.0435    3.5256 H   0  0  0  0  0  0  0  0  0  0  0  0
    3.1780    0.4358    3.3011 H   0  0  0  0  0  0  0  0  0  0  0  0
    1.9468   -1.2380    1.2454 H   0  0  0  0  0  0  0  0  0  0  0  0
    0.4500   -1.5415    4.0802 H   0  0  0  0  0  0  0  0  0  0  0  0
    2.1246   -4.5664    5.0609 H   0  0  0  0  0  0  0  0  0  0  0  0
    1.5634   -5.7500    3.3099 H   0  0  0  0  0  0  0  0  0  0  0  0
    4.3733   -4.0241    4.4870 H   0  0  0  0  0  0  0  0  0  0  0  0
    3.4019   -6.6322    3.3210 H   0  0  0  0  0  0  0  0  0  0  0  0
    3.7929   -6.2196    4.9601 H   0  0  0  0  0  0  0  0  0  0  0  0
    5.0534   -6.2863    3.7755 H   0  0  0  0  0  0  0  0  0  0  0  0
    3.2013   -5.5236    1.5361 H   0  0  0  0  0  0  0  0  0  0  0  0
    2.5259   -4.0309    1.0905 H   0  0  0  0  0  0  0  0  0  0  0  0
    3.8079   -5.8093   -0.4843 H   0  0  0  0  0  0  0  0  0  0  0  0
    5.6850   -6.9485    1.3591 H   0  0  0  0  0  0  0  0  0  0  0  0
    8.0640   -4.3899    1.8520 H   0  0  0  0  0  0  0  0  0  0  0  0
    6.3402   -2.6473    0.3957 H   0  0  0  0  0  0  0  0  0  0  0  0
    6.1582   -4.5726    3.2490 H   0  0  0  0  0  0  0  0  0  0  0  0
    2.4213   -3.7760   -1.0869 H   0  0  0  0  0  0  0  0  0  0  0  0
    5.4095   -2.5812   -1.0824 H   0  0  0  0  0  0  0  0  0  0  0  0
    3.8492   -0.6008   -0.9224 H   0  0  0  0  0  0  0  0  0  0  0  0
    2.6297   -1.6508   -0.2621 H   0  0  0  0  0  0  0  0  0  0  0  0
    5.4510   -1.3978    0.8680 H   0  0  0  0  0  0  0  0  0  0  0  0
    3.4256    0.3397    1.3883 H   0  0  0  0  0  0  0  0  0  0  0  0
    6.1952   -1.7902    2.9394 H   0  0  0  0  0  0  0  0  0  0  0  0
    5.2225   -2.1179    4.3370 H   0  0  0  0  0  0  0  0  0  0  0  0
    5.1509   -0.5799    3.5541 H   0  0  0  0  0  0  0  0  0  0  0  0
    5.5637   -3.3038   -3.9150 H   0  0  0  0  0  0  0  0  0  0  0  0
    4.5244   -4.7441   -3.8978 H   0  0  0  0  0  0  0  0  0  0  0  0
    5.6973   -4.4434   -2.6061 H   0  0  0  0  0  0  0  0  0  0  0  0
    2.3467   -3.2863   -3.8853 H   0  0  0  0  0  0  0  0  0  0  0  0
    2.2815   -1.9243   -2.7620 H   0  0  0  0  0  0  0  0  0  0  0  0
    2.9019   -1.2159   -4.7885 H   0  0  0  0  0  0  0  0  0  0  0  0
  1  2  1  0
  1 33  1  0
  1 34  1  0
  1 35  1  0
  2  7  1  0
  2  3  1  0
  2 36  1  1
  3  4  1  0
  3 37  1  0
  3 38  1  0
  4  5  1  0
  4 39  1  0
  4 40  1  0
  5 27  1  0
  5  6  1  6
  5  7  1  0
  6 41  1  0
  7  8  1  1
  7  9  1  0
  8 42  1  0
  9 10  1  0
  9 11  1  0
  9 43  1  1
 10 44  1  0
 11 12  1  0
 11 13  1  0
 11 45  1  1
 12 46  1  0
 12 47  1  0
 12 48  1  0
 13 21  1  0
 13 27  1  0
 13 14  1  6
 14 15  1  0
 14 49  1  0
 14 50  1  0
 15 16  1  0
 15 22  1  0
 15 51  1  6
 16 17  1  0
 17 21  1  0
 17 18  1  1
 17 19  1  0
 18 52  1  0
 19 20  1  0
 19 21  1  0
 19 53  1  1
 20 54  1  0
 21 55  1  1
 22 29  1  0
 22 23  1  0
 22 56  1  6
 23 24  1  0
 23 29  1  0
 23 57  1  1
 24 25  1  0
 24 58  1  0
 24 59  1  0
 25 26  1  0
 25 27  1  0
 25 60  1  6
 26 61  1  0
 27 28  1  1
 28 62  1  0
 28 63  1  0
 28 64  1  0
 29 30  1  6
 29 31  1  0
 30 65  1  0
 30 66  1  0
 30 67  1  0
 31 32  1  0
 31 68  1  0
 31 69  1  0
 32 70  1  0
M  END
>  <i_m_ct_stereo_status>  (156) 
1

>  <s_m_source_file>  (156) 
/var/tmp/pbs.5076255.sched01/tmpguyree9i/45_f3p7e6s.sdf

>  <i_m_source_file_index>  (156) 
21

>  <i_lp_mmshare_version>  (156) 
48012

>  <i_f3d_flags>  (156) 
0

>  <s_epik_input>  (156) 
W0NIMl0xW0NIMl1bQ0BASF0oW0NIM10pW0NAXShbT0hdKShbQ0BASF0oW09IXSlbQ0BIXTJbQ0gzXSlbQ0BdMShbT0hdKVtDQF0zKFtDSDNdKVtDQEhdKFtPSF0pW0NIMl1bQ0BIXShbQ0BdNChbQ0gzXSlbQ0gyXVtPSF0pW0NAQEhdNFtDQEhdKFtDSDJdNSlPW0NAXShbT0hdKShbQ0BASF02W0NAQF0yMzUpW0NASF02W09IXQ==

>  <s_epik_cmdline>  (156) 
J2VwaWtfcHl0aG9uJywgJy1waHQnLCAnMi4wJywgJy1waCcsICc3LjAnLCAnLXRuJywgJzgnLCAnLW1hJywgJzIwMCcsICctaW1hZScsICc8aW5maWxlLm1hZT4nLCAnLW9tYWUnLCAnPG91dGZpbGUubWFlPic=

>  <r_lp_tautomer_probability>  (156) 
1

>  <r_epik_Ionization_Penalty>  (156) 
3.3616e-06

>  <r_epik_Ionization_Penalty_Charging>  (156) 
0

>  <r_epik_Ionization_Penalty_Neutral>  (156) 
3.3616e-06

>  <r_epik_State_Penalty>  (156) 
-0

>  <r_epik_Charging_Adjusted_Penalty>  (156) 
0

>  <i_epik_Tot_Q>  (156) 
0

>  <i_epik_Tot_abs_Q>  (156) 
0

>  <s_lp_Force_Field>  (156) 
OPLS3e

>  <r_lp_Energy>  (156) 
141.119

>  <b_lp_Chiralities_Consistent>  (156) 
1

>  <s_lp_Variant>  (156) 
44:0-1

>  <s_i_glide_gridfile>  (156) 
pfpi4k_grid

>  <i_i_glide_lignum>  (156) 
21

>  <i_i_glide_rotatable_bonds>  (156) 
8

>  <r_i_docking_score>  (156) 
-2.55921

>  <r_i_glide_ligand_efficiency>  (156) 
-0.0799753

>  <r_i_glide_ligand_efficiency_sa>  (156) 
-0.253906

>  <r_i_glide_ligand_efficiency_ln>  (156) 
-0.573077

>  <r_i_glide_gscore>  (156) 
-2.55921

>  <r_i_glide_lipo>  (156) 
-0.36644

>  <r_i_glide_hbond>  (156) 
-0.331281

>  <r_i_glide_metal>  (156) 
-0

>  <r_i_glide_rewards>  (156) 
-0.441573

>  <r_i_glide_evdw>  (156) 
-23.2027

>  <r_i_glide_ecoul>  (156) 
-2.37983

>  <r_i_glide_erotb>  (156) 
0.0971935

>  <r_i_glide_esite>  (156) 
0

>  <r_i_glide_emodel>  (156) 
-29.5974

>  <r_i_glide_energy>  (156) 
-25.5825

>  <r_i_glide_einternal>  (156) 
1.27189

>  <r_i_glide_intrahb_reward>  (156) 
-0

>  <i_i_glide_confnum>  (156) 
1

>  <i_i_glide_posenum>  (156) 
40

>  <r_i_glide_eff_state_penalty>  (156) 
0

>  <ligand_id>  (156) 
44

>  <original_smiles>  (156) 
CC1CCC2(O)C1(O)C(O)C(C)C13CC(OC4(O)C(O)C41)C1C(CC(O)C32C)C1(C)CO

>  <smiles>  (156) 
[H]OC([H])([H])C1(C([H])([H])[H])C2([H])C([H])([H])C([H])(O[H])C3(C([H])([H])[H])C4(O[H])C([H])([H])C([H])([H])C([H])(C([H])([H])[H])C4(O[H])C([H])(O[H])C([H])(C([H])([H])[H])C34C([H])([H])C([H])(OC3(O[H])C([H])(O[H])C34[H])C21[H]

$$$$
45:0:0
     RDKit          3D

 84 89  0  0  1  0  0  0  0  0999 V2000
   -1.2354    2.7009    4.9539 C   0  0  0  0  0  0  0  0  0  0  0  0
    0.2421    2.2699    5.0897 C   0  0  0  0  0  0  0  0  0  0  0  0
    0.7116    2.5270    6.5393 C   0  0  0  0  0  0  0  0  0  0  0  0
    0.3600    0.7695    4.7147 C   0  0  0  0  0  0  0  0  0  0  0  0
    1.8195    0.2389    4.6685 C   0  0  2  0  0  0  0  0  0  0  0  0
    2.8111    1.2359    4.0074 C   0  0  2  0  0  0  0  0  0  0  0  0
    2.1272    2.3921    3.2487 C   0  0  0  0  0  0  0  0  0  0  0  0
    1.1081    3.1178    4.1325 C   0  0  0  0  0  0  0  0  0  0  0  0
    1.0000    4.3471    4.0985 O   0  0  0  0  0  0  0  0  0  0  0  0
    3.7677    0.3835    3.1378 C   0  0  0  0  0  0  0  0  0  0  0  0
    3.6382   -1.0487    3.6871 C   0  0  2  0  0  0  0  0  0  0  0  0
    4.4927   -1.0838    4.9996 C   0  0  0  0  0  0  0  0  0  0  0  0
    4.1502   -2.2624    2.8230 C   0  0  1  0  0  0  0  0  0  0  0  0
    3.3395   -3.5503    3.0624 C   0  0  0  0  0  0  0  0  0  0  0  0
    2.3493   -3.6245    3.9777 C   0  0  0  0  0  0  0  0  0  0  0  0
    1.8259   -2.4183    4.7609 C   0  0  0  0  0  0  0  0  0  0  0  0
    2.1051   -1.1239    3.9599 C   0  0  1  0  0  0  0  0  0  0  0  0
    1.2530   -1.1843    2.6573 C   0  0  0  0  0  0  0  0  0  0  0  0
    3.6291   -4.6572    2.0472 C   0  0  2  0  0  0  0  0  0  0  0  0
    3.2826   -6.1115    2.3879 C   0  0  1  0  0  0  0  0  0  0  0  0
    1.8933   -6.3748    2.2137 O   0  0  0  0  0  0  0  0  0  0  0  0
    1.3710   -7.3973    3.0113 C   0  0  2  0  0  0  0  0  0  0  0  0
    2.2859   -8.4508    3.1413 O   0  0  0  0  0  0  0  0  0  0  0  0
    1.8624   -9.5217    3.9675 C   0  0  0  0  0  0  0  0  0  0  0  0
    0.6700  -10.2029    3.3007 C   0  0  1  0  0  0  0  0  0  0  0  0
    0.2208  -11.2883    4.0801 O   0  0  0  0  0  0  0  0  0  0  0  0
   -0.4447   -9.1719    3.0463 C   0  0  1  0  0  0  0  0  0  0  0  0
   -1.0020   -8.7502    4.2842 O   0  0  0  0  0  0  0  0  0  0  0  0
    0.1201   -7.9494    2.2791 C   0  0  1  0  0  0  0  0  0  0  0  0
   -0.9231   -6.9961    2.1417 O   0  0  0  0  0  0  0  0  0  0  0  0
    4.0828   -6.9159    1.3342 C   0  0  0  0  0  0  0  0  0  0  0  0
    4.9765   -5.9055    0.5811 C   0  0  0  0  0  0  0  0  0  0  0  0
    5.0675   -4.6714    1.5041 C   0  0  2  0  0  0  0  0  0  0  0  0
    6.1359   -5.0176    2.5794 C   0  0  0  0  0  0  0  0  0  0  0  0
    5.4168   -3.2924    0.8338 C   0  0  1  0  0  0  0  0  0  0  0  0
    5.4350   -3.3479   -0.5816 O   0  0  0  0  0  0  0  0  0  0  0  0
    4.5604   -2.0751    1.3333 C   0  0  1  0  0  0  0  0  0  0  0  0
    3.4224   -1.9133    0.5005 O   0  0  0  0  0  0  0  0  0  0  0  0
   -1.8883    2.1171    5.6033 H   0  0  0  0  0  0  0  0  0  0  0  0
   -1.5869    2.5652    3.9274 H   0  0  0  0  0  0  0  0  0  0  0  0
   -1.3789    3.7529    5.2076 H   0  0  0  0  0  0  0  0  0  0  0  0
    0.1542    1.9317    7.2615 H   0  0  0  0  0  0  0  0  0  0  0  0
    0.5836    3.5746    6.8162 H   0  0  0  0  0  0  0  0  0  0  0  0
    1.7707    2.2973    6.6678 H   0  0  0  0  0  0  0  0  0  0  0  0
   -0.2157    0.1682    5.4198 H   0  0  0  0  0  0  0  0  0  0  0  0
   -0.1287    0.6544    3.7495 H   0  0  0  0  0  0  0  0  0  0  0  0
    2.1085    0.1256    5.7128 H   0  0  0  0  0  0  0  0  0  0  0  0
    3.4052    1.6831    4.8055 H   0  0  0  0  0  0  0  0  0  0  0  0
    2.8700    3.1074    2.9026 H   0  0  0  0  0  0  0  0  0  0  0  0
    1.6088    2.0284    2.3625 H   0  0  0  0  0  0  0  0  0  0  0  0
    3.4726    0.4361    2.0902 H   0  0  0  0  0  0  0  0  0  0  0  0
    4.7912    0.7458    3.2058 H   0  0  0  0  0  0  0  0  0  0  0  0
    4.4649   -2.0613    5.4815 H   0  0  0  0  0  0  0  0  0  0  0  0
    4.2023   -0.3506    5.7491 H   0  0  0  0  0  0  0  0  0  0  0  0
    5.5414   -0.8790    4.7792 H   0  0  0  0  0  0  0  0  0  0  0  0
    5.1186   -2.4870    3.2530 H   0  0  0  0  0  0  0  0  0  0  0  0
    1.7861   -4.5380    4.1046 H   0  0  0  0  0  0  0  0  0  0  0  0
    0.7515   -2.5414    4.8984 H   0  0  0  0  0  0  0  0  0  0  0  0
    2.2692   -2.4043    5.7574 H   0  0  0  0  0  0  0  0  0  0  0  0
    1.4541   -2.0533    2.0393 H   0  0  0  0  0  0  0  0  0  0  0  0
    1.3508   -0.3013    2.0242 H   0  0  0  0  0  0  0  0  0  0  0  0
    0.2044   -1.2842    2.9129 H   0  0  0  0  0  0  0  0  0  0  0  0
    2.9905   -4.3988    1.1992 H   0  0  0  0  0  0  0  0  0  0  0  0
    3.6278   -6.3381    3.3996 H   0  0  0  0  0  0  0  0  0  0  0  0
    1.1378   -6.9957    3.9993 H   0  0  0  0  0  0  0  0  0  0  0  0
    2.6851  -10.2237    4.0684 H   0  0  0  0  0  0  0  0  0  0  0  0
    1.6167   -9.1729    4.9716 H   0  0  0  0  0  0  0  0  0  0  0  0
    0.9987  -10.5983    2.3405 H   0  0  0  0  0  0  0  0  0  0  0  0
   -0.6333  -11.0778    4.4791 H   0  0  0  0  0  0  0  0  0  0  0  0
   -1.2359   -9.6334    2.4501 H   0  0  0  0  0  0  0  0  0  0  0  0
   -1.4432   -9.5052    4.6758 H   0  0  0  0  0  0  0  0  0  0  0  0
    0.4433   -8.2462    1.2852 H   0  0  0  0  0  0  0  0  0  0  0  0
   -1.6773   -7.4610    1.8108 H   0  0  0  0  0  0  0  0  0  0  0  0
    4.6790   -7.6900    1.8201 H   0  0  0  0  0  0  0  0  0  0  0  0
    3.4133   -7.4147    0.6294 H   0  0  0  0  0  0  0  0  0  0  0  0
    5.9551   -6.3247    0.3427 H   0  0  0  0  0  0  0  0  0  0  0  0
    4.4879   -5.6657   -0.3649 H   0  0  0  0  0  0  0  0  0  0  0  0
    7.1315   -5.0602    2.1341 H   0  0  0  0  0  0  0  0  0  0  0  0
    5.9709   -5.9831    3.0537 H   0  0  0  0  0  0  0  0  0  0  0  0
    6.1787   -4.2885    3.3810 H   0  0  0  0  0  0  0  0  0  0  0  0
    6.4477   -3.0634    1.0996 H   0  0  0  0  0  0  0  0  0  0  0  0
    4.5571   -3.5517   -0.8749 H   0  0  0  0  0  0  0  0  0  0  0  0
    5.1701   -1.1765    1.2339 H   0  0  0  0  0  0  0  0  0  0  0  0
    2.9505   -1.1326    0.7560 H   0  0  0  0  0  0  0  0  0  0  0  0
  1  2  1  0
  1 39  1  0
  1 40  1  0
  1 41  1  0
  2  8  1  0
  2  3  1  0
  2  4  1  0
  3 42  1  0
  3 43  1  0
  3 44  1  0
  4  5  1  0
  4 45  1  0
  4 46  1  0
  5 17  1  0
  5  6  1  0
  5 47  1  1
  6  7  1  0
  6 10  1  0
  6 48  1  1
  7  8  1  0
  7 49  1  0
  7 50  1  0
  8  9  2  0
 10 11  1  0
 10 51  1  0
 10 52  1  0
 11 17  1  0
 11 12  1  1
 11 13  1  0
 12 53  1  0
 12 54  1  0
 12 55  1  0
 13 37  1  0
 13 14  1  0
 13 56  1  1
 14 15  2  0
 14 19  1  0
 15 16  1  0
 15 57  1  0
 16 17  1  0
 16 58  1  0
 16 59  1  0
 17 18  1  6
 18 60  1  0
 18 61  1  0
 18 62  1  0
 19 33  1  0
 19 20  1  0
 19 63  1  6
 20 21  1  0
 20 31  1  0
 20 64  1  1
 21 22  1  0
 22 29  1  0
 22 23  1  0
 22 65  1  1
 23 24  1  0
 24 25  1  0
 24 66  1  0
 24 67  1  0
 25 26  1  0
 25 27  1  0
 25 68  1  6
 26 69  1  0
 27 28  1  0
 27 29  1  0
 27 70  1  6
 28 71  1  0
 29 30  1  0
 29 72  1  6
 30 73  1  0
 31 32  1  0
 31 74  1  0
 31 75  1  0
 32 33  1  0
 32 76  1  0
 32 77  1  0
 33 34  1  1
 33 35  1  0
 34 78  1  0
 34 79  1  0
 34 80  1  0
 35 36  1  0
 35 37  1  0
 35 81  1  1
 36 82  1  0
 37 38  1  0
 37 83  1  1
 38 84  1  0
M  END
>  <i_m_ct_stereo_status>  (157) 
1

>  <s_m_source_file>  (157) 
/var/tmp/pbs.5076255.sched01/tmpguyree9i/45_f3p7e6s.sdf

>  <i_m_source_file_index>  (157) 
22

>  <i_lp_mmshare_version>  (157) 
48012

>  <i_f3d_flags>  (157) 
0

>  <s_epik_input>  (157) 
W0NIM11DKFtDSDNdKShbQ0gyXTEpQyg9TylbQ0gyXVtDQEhdKFtDSDJdMilbQ0BASF0xW0NAXTMoW0NIM10pW0NIMl1bQ0hdPUMoW0NAQEhdNFtDQEBdMjNbQ0gzXSlbQ0BIXTVbQ0BdKFtDSDNdKShbQ0BASF0oW09IXSlbQ0BIXTRbT0hdKVtDSDJdW0NIMl1bQ0BASF01T1tDQEBIXTZPW0NIMl1bQ0BASF0oW09IXSlbQ0BASF0oW09IXSlbQ0BIXTZbT0hd

>  <s_epik_cmdline>  (157) 
J2VwaWtfcHl0aG9uJywgJy1waHQnLCAnMi4wJywgJy1waCcsICc3LjAnLCAnLXRuJywgJzgnLCAnLW1hJywgJzIwMCcsICctaW1hZScsICc8aW5maWxlLm1hZT4nLCAnLW9tYWUnLCAnPG91dGZpbGUubWFlPic=

>  <r_lp_tautomer_probability>  (157) 
1

>  <r_epik_Ionization_Penalty>  (157) 
2.00479e-06

>  <r_epik_Ionization_Penalty_Charging>  (157) 
0

>  <r_epik_Ionization_Penalty_Neutral>  (157) 
2.00479e-06

>  <r_epik_State_Penalty>  (157) 
-0

>  <r_epik_Charging_Adjusted_Penalty>  (157) 
0

>  <i_epik_Tot_Q>  (157) 
0

>  <i_epik_Tot_abs_Q>  (157) 
0

>  <s_epik_Chemistry_Notes>  (157) 
This compound contains an acetal/aminal-like group ( X-CH(R)-Y where X, Y are N, S, or O) that may be acid/base labile, releasing an aldehyde.

>  <s_lp_Force_Field>  (157) 
OPLS3e

>  <r_lp_Energy>  (157) 
76.0636

>  <b_lp_Chiralities_Consistent>  (157) 
1

>  <s_lp_Variant>  (157) 
45:0-1

>  <s_i_glide_gridfile>  (157) 
pfpi4k_grid

>  <i_i_glide_lignum>  (157) 
22

>  <i_i_glide_rotatable_bonds>  (157) 
7

>  <r_i_docking_score>  (157) 
-3.58173

>  <r_i_glide_ligand_efficiency>  (157) 
-0.0942559

>  <r_i_glide_ligand_efficiency_sa>  (157) 
-0.316886

>  <r_i_glide_ligand_efficiency_ln>  (157) 
-0.772325

>  <r_i_glide_gscore>  (157) 
-3.58173

>  <r_i_glide_lipo>  (157) 
-0.373748

>  <r_i_glide_hbond>  (157) 
0

>  <r_i_glide_metal>  (157) 
-0

>  <r_i_glide_rewards>  (157) 
0

>  <r_i_glide_evdw>  (157) 
-31.123

>  <r_i_glide_ecoul>  (157) 
-11.639

>  <r_i_glide_erotb>  (157) 
0.144393

>  <r_i_glide_esite>  (157) 
-0.0503714

>  <r_i_glide_emodel>  (157) 
-50.1904

>  <r_i_glide_energy>  (157) 
-42.762

>  <r_i_glide_einternal>  (157) 
5.38608

>  <r_i_glide_intrahb_reward>  (157) 
-0

>  <i_i_glide_confnum>  (157) 
4

>  <i_i_glide_posenum>  (157) 
14

>  <r_i_glide_eff_state_penalty>  (157) 
0

>  <ligand_id>  (157) 
45

>  <original_smiles>  (157) 
CC1(C)CC2C(CC1=O)CC1(C)C3C(=CCC21C)C1C(OC2OCC(O)C(O)C2O)CCC1(C)C(O)C3O

>  <smiles>  (157) 
[H]OC1([H])C([H])([H])OC([H])(OC2([H])C([H])([H])C([H])([H])C3(C([H])([H])[H])C([H])(O[H])C([H])(O[H])C4([H])C(=C([H])C([H])([H])C5(C([H])([H])[H])C6([H])C([H])([H])C(C([H])([H])[H])(C([H])([H])[H])C(=O)C([H])([H])C6([H])C([H])([H])C45C([H])([H])[H])C23[H])C([H])(O[H])C1([H])O[H]

$$$$
45:0:1
     RDKit          3D

 84 89  0  0  1  0  0  0  0  0999 V2000
   -1.2355    2.3988    5.0075 C   0  0  0  0  0  0  0  0  0  0  0  0
    0.2561    2.0086    5.0968 C   0  0  0  0  0  0  0  0  0  0  0  0
    0.7597    2.2809    6.5322 C   0  0  0  0  0  0  0  0  0  0  0  0
    0.4046    0.5135    4.7185 C   0  0  0  0  0  0  0  0  0  0  0  0
    1.8751    0.0229    4.6285 C   0  0  2  0  0  0  0  0  0  0  0  0
    2.8209    1.0441    3.9352 C   0  0  2  0  0  0  0  0  0  0  0  0
    2.0814    2.1807    3.1988 C   0  0  0  0  0  0  0  0  0  0  0  0
    1.0705    2.8827    4.1146 C   0  0  0  0  0  0  0  0  0  0  0  0
    0.9305    4.1034    4.0868 O   0  0  0  0  0  0  0  0  0  0  0  0
    3.7691    0.2129    3.0317 C   0  0  0  0  0  0  0  0  0  0  0  0
    3.6941   -1.2177    3.5895 C   0  0  2  0  0  0  0  0  0  0  0  0
    4.5910   -1.2241    4.8761 C   0  0  0  0  0  0  0  0  0  0  0  0
    4.2077   -2.4161    2.7076 C   0  0  1  0  0  0  0  0  0  0  0  0
    3.4447   -3.7266    2.9776 C   0  0  0  0  0  0  0  0  0  0  0  0
    2.4872   -3.8267    3.9283 C   0  0  0  0  0  0  0  0  0  0  0  0
    1.9566   -2.6329    4.7248 C   0  0  0  0  0  0  0  0  0  0  0  0
    2.1732   -1.3326    3.9145 C   0  0  1  0  0  0  0  0  0  0  0  0
    1.2790   -1.4189    2.6411 C   0  0  0  0  0  0  0  0  0  0  0  0
    3.7321   -4.8302    1.9604 C   0  0  2  0  0  0  0  0  0  0  0  0
    3.4346   -6.2950    2.3113 C   0  0  1  0  0  0  0  0  0  0  0  0
    2.0464   -6.5789    2.1799 O   0  0  0  0  0  0  0  0  0  0  0  0
    1.5923   -7.6420    2.9582 C   0  0  2  0  0  0  0  0  0  0  0  0
    2.4223   -8.7581    2.7951 O   0  0  0  0  0  0  0  0  0  0  0  0
    2.0663   -9.8749    3.5918 C   0  0  0  0  0  0  0  0  0  0  0  0
    0.7030  -10.3844    3.1341 C   0  0  1  0  0  0  0  0  0  0  0  0
    0.3428  -11.4910    3.9322 O   0  0  0  0  0  0  0  0  0  0  0  0
   -0.3394   -9.2557    3.2104 C   0  0  1  0  0  0  0  0  0  0  0  0
   -0.5939   -8.9458    4.5738 O   0  0  0  0  0  0  0  0  0  0  0  0
    0.1781   -8.0109    2.4570 C   0  0  1  0  0  0  0  0  0  0  0  0
   -0.7616   -6.9824    2.6975 O   0  0  0  0  0  0  0  0  0  0  0  0
    4.2308   -7.0721    1.2342 C   0  0  0  0  0  0  0  0  0  0  0  0
    5.0685   -6.0346    0.4563 C   0  0  0  0  0  0  0  0  0  0  0  0
    5.1504   -4.8001    1.3692 C   0  0  2  0  0  0  0  0  0  0  0  0
    6.2450   -5.1122    2.4196 C   0  0  0  0  0  0  0  0  0  0  0  0
    5.4482   -3.4160    0.6850 C   0  0  1  0  0  0  0  0  0  0  0  0
    5.4446   -3.4796   -0.7304 O   0  0  0  0  0  0  0  0  0  0  0  0
    4.5753   -2.2196    1.2047 C   0  0  1  0  0  0  0  0  0  0  0  0
    3.4323   -2.0429    0.3873 O   0  0  0  0  0  0  0  0  0  0  0  0
   -1.8516    1.7976    5.6785 H   0  0  0  0  0  0  0  0  0  0  0  0
   -1.6150    2.2530    3.9925 H   0  0  0  0  0  0  0  0  0  0  0  0
   -1.3988    3.4467    5.2667 H   0  0  0  0  0  0  0  0  0  0  0  0
    0.2396    1.6719    7.2716 H   0  0  0  0  0  0  0  0  0  0  0  0
    0.6082    3.3249    6.8105 H   0  0  0  0  0  0  0  0  0  0  0  0
    1.8277    2.0830    6.6294 H   0  0  0  0  0  0  0  0  0  0  0  0
   -0.1311   -0.1010    5.4429 H   0  0  0  0  0  0  0  0  0  0  0  0
   -0.1101    0.3828    3.7675 H   0  0  0  0  0  0  0  0  0  0  0  0
    2.1976   -0.0800    5.6642 H   0  0  0  0  0  0  0  0  0  0  0  0
    3.4276    1.5086    4.7138 H   0  0  0  0  0  0  0  0  0  0  0  0
    2.7922    2.9175    2.8308 H   0  0  0  0  0  0  0  0  0  0  0  0
    1.5477    1.8033    2.3283 H   0  0  0  0  0  0  0  0  0  0  0  0
    3.4350    0.2498    1.9953 H   0  0  0  0  0  0  0  0  0  0  0  0
    4.7887    0.5910    3.0530 H   0  0  0  0  0  0  0  0  0  0  0  0
    4.6067   -2.2004    5.3610 H   0  0  0  0  0  0  0  0  0  0  0  0
    4.3031   -0.4978    5.6338 H   0  0  0  0  0  0  0  0  0  0  0  0
    5.6259   -0.9882    4.6247 H   0  0  0  0  0  0  0  0  0  0  0  0
    5.1937   -2.6056    3.1123 H   0  0  0  0  0  0  0  0  0  0  0  0
    1.9551   -4.7542    4.0750 H   0  0  0  0  0  0  0  0  0  0  0  0
    0.8904   -2.7857    4.8913 H   0  0  0  0  0  0  0  0  0  0  0  0
    2.4318   -2.6034    5.7064 H   0  0  0  0  0  0  0  0  0  0  0  0
    1.5025   -2.2747    2.0142 H   0  0  0  0  0  0  0  0  0  0  0  0
    1.3441   -0.5356    2.0038 H   0  0  0  0  0  0  0  0  0  0  0  0
    0.2337   -1.5472    2.9203 H   0  0  0  0  0  0  0  0  0  0  0  0
    3.0628   -4.5924    1.1325 H   0  0  0  0  0  0  0  0  0  0  0  0
    3.8124   -6.5250    3.3127 H   0  0  0  0  0  0  0  0  0  0  0  0
    1.5971   -7.3415    4.0063 H   0  0  0  0  0  0  0  0  0  0  0  0
    2.8081  -10.6565    3.4497 H   0  0  0  0  0  0  0  0  0  0  0  0
    2.0592   -9.6309    4.6562 H   0  0  0  0  0  0  0  0  0  0  0  0
    0.7642  -10.7010    2.0937 H   0  0  0  0  0  0  0  0  0  0  0  0
   -0.3755  -11.2457    4.5065 H   0  0  0  0  0  0  0  0  0  0  0  0
   -1.2825   -9.5853    2.7658 H   0  0  0  0  0  0  0  0  0  0  0  0
   -1.1860   -9.6236    4.9062 H   0  0  0  0  0  0  0  0  0  0  0  0
    0.2473   -8.2077    1.3899 H   0  0  0  0  0  0  0  0  0  0  0  0
   -0.9018   -6.9778    3.6378 H   0  0  0  0  0  0  0  0  0  0  0  0
    4.8677   -7.8263    1.7027 H   0  0  0  0  0  0  0  0  0  0  0  0
    3.5590   -7.5903    0.5457 H   0  0  0  0  0  0  0  0  0  0  0  0
    6.0570   -6.4152    0.1999 H   0  0  0  0  0  0  0  0  0  0  0  0
    4.5480   -5.8122   -0.4773 H   0  0  0  0  0  0  0  0  0  0  0  0
    7.2395   -5.0964    1.9646 H   0  0  0  0  0  0  0  0  0  0  0  0
    6.1397   -6.0927    2.8819 H   0  0  0  0  0  0  0  0  0  0  0  0
    6.2159   -4.3949    3.2293 H   0  0  0  0  0  0  0  0  0  0  0  0
    6.4795   -3.1593    0.9282 H   0  0  0  0  0  0  0  0  0  0  0  0
    4.5916   -3.7809   -1.0164 H   0  0  0  0  0  0  0  0  0  0  0  0
    5.1701   -1.3127    1.1044 H   0  0  0  0  0  0  0  0  0  0  0  0
    2.9044   -2.8267    0.4262 H   0  0  0  0  0  0  0  0  0  0  0  0
  1  2  1  0
  1 39  1  0
  1 40  1  0
  1 41  1  0
  2  8  1  0
  2  3  1  0
  2  4  1  0
  3 42  1  0
  3 43  1  0
  3 44  1  0
  4  5  1  0
  4 45  1  0
  4 46  1  0
  5 17  1  0
  5  6  1  0
  5 47  1  1
  6  7  1  0
  6 10  1  0
  6 48  1  1
  7  8  1  0
  7 49  1  0
  7 50  1  0
  8  9  2  0
 10 11  1  0
 10 51  1  0
 10 52  1  0
 11 17  1  0
 11 12  1  1
 11 13  1  0
 12 53  1  0
 12 54  1  0
 12 55  1  0
 13 37  1  0
 13 14  1  0
 13 56  1  1
 14 15  2  0
 14 19  1  0
 15 16  1  0
 15 57  1  0
 16 17  1  0
 16 58  1  0
 16 59  1  0
 17 18  1  6
 18 60  1  0
 18 61  1  0
 18 62  1  0
 19 33  1  0
 19 20  1  0
 19 63  1  6
 20 21  1  0
 20 31  1  0
 20 64  1  1
 21 22  1  0
 22 29  1  0
 22 23  1  0
 22 65  1  1
 23 24  1  0
 24 25  1  0
 24 66  1  0
 24 67  1  0
 25 26  1  0
 25 27  1  0
 25 68  1  6
 26 69  1  0
 27 28  1  0
 27 29  1  0
 27 70  1  6
 28 71  1  0
 29 30  1  0
 29 72  1  6
 30 73  1  0
 31 32  1  0
 31 74  1  0
 31 75  1  0
 32 33  1  0
 32 76  1  0
 32 77  1  0
 33 34  1  1
 33 35  1  0
 34 78  1  0
 34 79  1  0
 34 80  1  0
 35 36  1  0
 35 37  1  0
 35 81  1  1
 36 82  1  0
 37 38  1  0
 37 83  1  1
 38 84  1  0
M  END
>  <i_m_ct_stereo_status>  (158) 
1

>  <s_m_source_file>  (158) 
/var/tmp/pbs.5076255.sched01/tmpguyree9i/45_f3p7e6s.sdf

>  <i_m_source_file_index>  (158) 
22

>  <i_lp_mmshare_version>  (158) 
48012

>  <i_f3d_flags>  (158) 
0

>  <s_epik_input>  (158) 
W0NIM11DKFtDSDNdKShbQ0gyXTEpQyg9TylbQ0gyXVtDQEhdKFtDSDJdMilbQ0BASF0xW0NAXTMoW0NIM10pW0NIMl1bQ0hdPUMoW0NAQEhdNFtDQEBdMjNbQ0gzXSlbQ0BIXTVbQ0BdKFtDSDNdKShbQ0BASF0oW09IXSlbQ0BIXTRbT0hdKVtDSDJdW0NIMl1bQ0BASF01T1tDQEBIXTZPW0NIMl1bQ0BASF0oW09IXSlbQ0BASF0oW09IXSlbQ0BIXTZbT0hd

>  <s_epik_cmdline>  (158) 
J2VwaWtfcHl0aG9uJywgJy1waHQnLCAnMi4wJywgJy1waCcsICc3LjAnLCAnLXRuJywgJzgnLCAnLW1hJywgJzIwMCcsICctaW1hZScsICc8aW5maWxlLm1hZT4nLCAnLW9tYWUnLCAnPG91dGZpbGUubWFlPic=

>  <r_lp_tautomer_probability>  (158) 
1

>  <r_epik_Ionization_Penalty>  (158) 
2.00479e-06

>  <r_epik_Ionization_Penalty_Charging>  (158) 
0

>  <r_epik_Ionization_Penalty_Neutral>  (158) 
2.00479e-06

>  <r_epik_State_Penalty>  (158) 
-0

>  <r_epik_Charging_Adjusted_Penalty>  (158) 
0

>  <i_epik_Tot_Q>  (158) 
0

>  <i_epik_Tot_abs_Q>  (158) 
0

>  <s_epik_Chemistry_Notes>  (158) 
This compound contains an acetal/aminal-like group ( X-CH(R)-Y where X, Y are N, S, or O) that may be acid/base labile, releasing an aldehyde.

>  <s_lp_Force_Field>  (158) 
OPLS3e

>  <r_lp_Energy>  (158) 
76.0636

>  <b_lp_Chiralities_Consistent>  (158) 
1

>  <s_lp_Variant>  (158) 
45:0-1

>  <s_i_glide_gridfile>  (158) 
pfpi4k_grid

>  <i_i_glide_lignum>  (158) 
22

>  <i_i_glide_rotatable_bonds>  (158) 
7

>  <r_i_docking_score>  (158) 
-3.42095

>  <r_i_glide_ligand_efficiency>  (158) 
-0.0900249

>  <r_i_glide_ligand_efficiency_sa>  (158) 
-0.302662

>  <r_i_glide_ligand_efficiency_ln>  (158) 
-0.737657

>  <r_i_glide_gscore>  (158) 
-3.42095

>  <r_i_glide_lipo>  (158) 
-0.488314

>  <r_i_glide_hbond>  (158) 
0

>  <r_i_glide_metal>  (158) 
-0

>  <r_i_glide_rewards>  (158) 
0

>  <r_i_glide_evdw>  (158) 
-32.1197

>  <r_i_glide_ecoul>  (158) 
-9.51071

>  <r_i_glide_erotb>  (158) 
0.144393

>  <r_i_glide_esite>  (158) 
-0.0444356

>  <r_i_glide_emodel>  (158) 
-49.1209

>  <r_i_glide_energy>  (158) 
-41.6304

>  <r_i_glide_einternal>  (158) 
3.42567

>  <r_i_glide_intrahb_reward>  (158) 
-0

>  <i_i_glide_confnum>  (158) 
4

>  <i_i_glide_posenum>  (158) 
17

>  <r_i_glide_eff_state_penalty>  (158) 
0

>  <ligand_id>  (158) 
45

>  <original_smiles>  (158) 
CC1(C)CC2C(CC1=O)CC1(C)C3C(=CCC21C)C1C(OC2OCC(O)C(O)C2O)CCC1(C)C(O)C3O

>  <smiles>  (158) 
[H]OC1([H])C([H])([H])OC([H])(OC2([H])C([H])([H])C([H])([H])C3(C([H])([H])[H])C([H])(O[H])C([H])(O[H])C4([H])C(=C([H])C([H])([H])C5(C([H])([H])[H])C6([H])C([H])([H])C(C([H])([H])[H])(C([H])([H])[H])C(=O)C([H])([H])C6([H])C([H])([H])C45C([H])([H])[H])C23[H])C([H])(O[H])C1([H])O[H]

$$$$
45:0:2
     RDKit          3D

 84 89  0  0  1  0  0  0  0  0999 V2000
   -1.3920    2.1467    5.0706 C   0  0  0  0  0  0  0  0  0  0  0  0
    0.1196    1.8354    5.1070 C   0  0  0  0  0  0  0  0  0  0  0  0
    0.6468    2.0879    6.5384 C   0  0  0  0  0  0  0  0  0  0  0  0
    0.3411    0.3655    4.6747 C   0  0  0  0  0  0  0  0  0  0  0  0
    1.8317   -0.0399    4.5344 C   0  0  2  0  0  0  0  0  0  0  0  0
    2.6965    1.0583    3.8556 C   0  0  2  0  0  0  0  0  0  0  0  0
    1.8795    2.1739    3.1732 C   0  0  0  0  0  0  0  0  0  0  0  0
    0.8586    2.7882    4.1386 C   0  0  0  0  0  0  0  0  0  0  0  0
    0.6509    3.9983    4.1541 O   0  0  0  0  0  0  0  0  0  0  0  0
    3.6630    0.3152    2.9004 C   0  0  0  0  0  0  0  0  0  0  0  0
    3.6919   -1.1341    3.4113 C   0  0  2  0  0  0  0  0  0  0  0  0
    4.6203   -1.1360    4.6722 C   0  0  0  0  0  0  0  0  0  0  0  0
    4.2566   -2.2734    2.4809 C   0  0  1  0  0  0  0  0  0  0  0  0
    3.5667   -3.6331    2.7168 C   0  0  0  0  0  0  0  0  0  0  0  0
    2.6402   -3.8190    3.6858 C   0  0  0  0  0  0  0  0  0  0  0  0
    2.0659   -2.6876    4.5358 C   0  0  0  0  0  0  0  0  0  0  0  0
    2.1913   -1.3472    3.7682 C   0  0  1  0  0  0  0  0  0  0  0  0
    1.2705   -1.4418    2.5176 C   0  0  0  0  0  0  0  0  0  0  0  0
    3.8833   -4.6851    1.6565 C   0  0  2  0  0  0  0  0  0  0  0  0
    3.6755   -6.1759    1.9629 C   0  0  1  0  0  0  0  0  0  0  0  0
    2.2977   -6.5248    1.8729 O   0  0  0  0  0  0  0  0  0  0  0  0
    1.9140   -7.6067    2.6620 C   0  0  2  0  0  0  0  0  0  0  0  0
    2.6596   -8.7445    2.3363 O   0  0  0  0  0  0  0  0  0  0  0  0
    2.3759   -9.8810    3.1389 C   0  0  0  0  0  0  0  0  0  0  0  0
    0.9301  -10.3109    2.8910 C   0  0  1  0  0  0  0  0  0  0  0  0
    0.6213  -11.4469    3.6720 O   0  0  0  0  0  0  0  0  0  0  0  0
   -0.0384   -9.1478    3.1536 C   0  0  1  0  0  0  0  0  0  0  0  0
   -0.1116   -8.8757    4.5469 O   0  0  0  0  0  0  0  0  0  0  0  0
    0.4260   -7.8987    2.3654 C   0  0  1  0  0  0  0  0  0  0  0  0
   -0.4164   -6.8313    2.7576 O   0  0  0  0  0  0  0  0  0  0  0  0
    4.4777   -6.8705    0.8395 C   0  0  0  0  0  0  0  0  0  0  0  0
    5.2319   -5.7598    0.0850 C   0  0  0  0  0  0  0  0  0  0  0  0
    5.2823   -4.5573    1.0332 C   0  0  2  0  0  0  0  0  0  0  0  0
    6.4304   -4.8561    2.0287 C   0  0  0  0  0  0  0  0  0  0  0  0
    5.4967   -3.1336    0.3981 C   0  0  1  0  0  0  0  0  0  0  0  0
    5.4387   -3.1411   -1.0194 O   0  0  0  0  0  0  0  0  0  0  0  0
    4.5805   -2.0040    0.9817 C   0  0  1  0  0  0  0  0  0  0  0  0
    3.4054   -1.9264    0.1951 O   0  0  0  0  0  0  0  0  0  0  0  0
   -1.9530    1.4869    5.7365 H   0  0  0  0  0  0  0  0  0  0  0  0
   -1.7907    2.0143    4.0611 H   0  0  0  0  0  0  0  0  0  0  0  0
   -1.6025    3.1742    5.3733 H   0  0  0  0  0  0  0  0  0  0  0  0
    0.1798    1.4258    7.2679 H   0  0  0  0  0  0  0  0  0  0  0  0
    0.4431    3.1104    6.8575 H   0  0  0  0  0  0  0  0  0  0  0  0
    1.7263    1.9468    6.6042 H   0  0  0  0  0  0  0  0  0  0  0  0
   -0.1416   -0.2996    5.3903 H   0  0  0  0  0  0  0  0  0  0  0  0
   -0.1908    0.2378    3.7310 H   0  0  0  0  0  0  0  0  0  0  0  0
    2.1863   -0.1593    5.5581 H   0  0  0  0  0  0  0  0  0  0  0  0
    3.3015    1.5272    4.6316 H   0  0  0  0  0  0  0  0  0  0  0  0
    2.5420    2.9600    2.8144 H   0  0  0  0  0  0  0  0  0  0  0  0
    1.3475    1.7968    2.3005 H   0  0  0  0  0  0  0  0  0  0  0  0
    3.3039    0.3716    1.8740 H   0  0  0  0  0  0  0  0  0  0  0  0
    4.6543    0.7564    2.9221 H   0  0  0  0  0  0  0  0  0  0  0  0
    4.7021   -2.1276    5.1213 H   0  0  0  0  0  0  0  0  0  0  0  0
    4.3122   -0.4537    5.4628 H   0  0  0  0  0  0  0  0  0  0  0  0
    5.6329   -0.8352    4.4017 H   0  0  0  0  0  0  0  0  0  0  0  0
    5.2611   -2.4307    2.8584 H   0  0  0  0  0  0  0  0  0  0  0  0
    2.1614   -4.7784    3.8092 H   0  0  0  0  0  0  0  0  0  0  0  0
    1.0127   -2.9040    4.7179 H   0  0  0  0  0  0  0  0  0  0  0  0
    2.5638   -2.6650    5.5063 H   0  0  0  0  0  0  0  0  0  0  0  0
    1.5214   -2.2607    1.8529 H   0  0  0  0  0  0  0  0  0  0  0  0
    1.2589   -0.5322    1.9134 H   0  0  0  0  0  0  0  0  0  0  0  0
    0.2478   -1.6414    2.8377 H   0  0  0  0  0  0  0  0  0  0  0  0
    3.1833   -4.4481    0.8532 H   0  0  0  0  0  0  0  0  0  0  0  0
    4.0984   -6.4206    2.9406 H   0  0  0  0  0  0  0  0  0  0  0  0
    2.0823   -7.3549    3.7079 H   0  0  0  0  0  0  0  0  0  0  0  0
    3.0585  -10.6778    2.8482 H   0  0  0  0  0  0  0  0  0  0  0  0
    2.5614   -9.6752    4.1949 H   0  0  0  0  0  0  0  0  0  0  0  0
    0.8139  -10.5932    1.8484 H   0  0  0  0  0  0  0  0  0  0  0  0
    0.5715  -11.2153    4.5866 H   0  0  0  0  0  0  0  0  0  0  0  0
   -1.0413   -9.4360    2.8327 H   0  0  0  0  0  0  0  0  0  0  0  0
   -0.5913   -9.5949    4.9489 H   0  0  0  0  0  0  0  0  0  0  0  0
    0.3287   -8.0600    1.2954 H   0  0  0  0  0  0  0  0  0  0  0  0
   -0.3809   -6.8058    3.7055 H   0  0  0  0  0  0  0  0  0  0  0  0
    5.1673   -7.6047    1.2660 H   0  0  0  0  0  0  0  0  0  0  0  0
    3.8162   -7.3992    0.1526 H   0  0  0  0  0  0  0  0  0  0  0  0
    6.2347   -6.0796   -0.2055 H   0  0  0  0  0  0  0  0  0  0  0  0
    4.6719   -5.5309   -0.8325 H   0  0  0  0  0  0  0  0  0  0  0  0
    7.4060   -4.7721    1.5410 H   0  0  0  0  0  0  0  0  0  0  0  0
    6.3865   -5.8547    2.4561 H   0  0  0  0  0  0  0  0  0  0  0  0
    6.4052   -4.1735    2.8633 H   0  0  0  0  0  0  0  0  0  0  0  0
    6.5218   -2.8338    0.6157 H   0  0  0  0  0  0  0  0  0  0  0  0
    4.5595   -3.4027   -1.2705 H   0  0  0  0  0  0  0  0  0  0  0  0
    5.1104   -1.0535    0.8866 H   0  0  0  0  0  0  0  0  0  0  0  0
    2.8827   -1.1870    0.4729 H   0  0  0  0  0  0  0  0  0  0  0  0
  1  2  1  0
  1 39  1  0
  1 40  1  0
  1 41  1  0
  2  8  1  0
  2  3  1  0
  2  4  1  0
  3 42  1  0
  3 43  1  0
  3 44  1  0
  4  5  1  0
  4 45  1  0
  4 46  1  0
  5 17  1  0
  5  6  1  0
  5 47  1  1
  6  7  1  0
  6 10  1  0
  6 48  1  1
  7  8  1  0
  7 49  1  0
  7 50  1  0
  8  9  2  0
 10 11  1  0
 10 51  1  0
 10 52  1  0
 11 17  1  0
 11 12  1  1
 11 13  1  0
 12 53  1  0
 12 54  1  0
 12 55  1  0
 13 37  1  0
 13 14  1  0
 13 56  1  1
 14 15  2  0
 14 19  1  0
 15 16  1  0
 15 57  1  0
 16 17  1  0
 16 58  1  0
 16 59  1  0
 17 18  1  6
 18 60  1  0
 18 61  1  0
 18 62  1  0
 19 33  1  0
 19 20  1  0
 19 63  1  6
 20 21  1  0
 20 31  1  0
 20 64  1  1
 21 22  1  0
 22 29  1  0
 22 23  1  0
 22 65  1  1
 23 24  1  0
 24 25  1  0
 24 66  1  0
 24 67  1  0
 25 26  1  0
 25 27  1  0
 25 68  1  6
 26 69  1  0
 27 28  1  0
 27 29  1  0
 27 70  1  6
 28 71  1  0
 29 30  1  0
 29 72  1  6
 30 73  1  0
 31 32  1  0
 31 74  1  0
 31 75  1  0
 32 33  1  0
 32 76  1  0
 32 77  1  0
 33 34  1  1
 33 35  1  0
 34 78  1  0
 34 79  1  0
 34 80  1  0
 35 36  1  0
 35 37  1  0
 35 81  1  6
 36 82  1  0
 37 38  1  0
 37 83  1  1
 38 84  1  0
M  END
>  <i_m_ct_stereo_status>  (159) 
1

>  <s_m_source_file>  (159) 
/var/tmp/pbs.5076255.sched01/tmpguyree9i/45_f3p7e6s.sdf

>  <i_m_source_file_index>  (159) 
22

>  <i_lp_mmshare_version>  (159) 
48012

>  <i_f3d_flags>  (159) 
0

>  <s_epik_input>  (159) 
W0NIM11DKFtDSDNdKShbQ0gyXTEpQyg9TylbQ0gyXVtDQEhdKFtDSDJdMilbQ0BASF0xW0NAXTMoW0NIM10pW0NIMl1bQ0hdPUMoW0NAQEhdNFtDQEBdMjNbQ0gzXSlbQ0BIXTVbQ0BdKFtDSDNdKShbQ0BASF0oW09IXSlbQ0BIXTRbT0hdKVtDSDJdW0NIMl1bQ0BASF01T1tDQEBIXTZPW0NIMl1bQ0BASF0oW09IXSlbQ0BASF0oW09IXSlbQ0BIXTZbT0hd

>  <s_epik_cmdline>  (159) 
J2VwaWtfcHl0aG9uJywgJy1waHQnLCAnMi4wJywgJy1waCcsICc3LjAnLCAnLXRuJywgJzgnLCAnLW1hJywgJzIwMCcsICctaW1hZScsICc8aW5maWxlLm1hZT4nLCAnLW9tYWUnLCAnPG91dGZpbGUubWFlPic=

>  <r_lp_tautomer_probability>  (159) 
1

>  <r_epik_Ionization_Penalty>  (159) 
2.00479e-06

>  <r_epik_Ionization_Penalty_Charging>  (159) 
0

>  <r_epik_Ionization_Penalty_Neutral>  (159) 
2.00479e-06

>  <r_epik_State_Penalty>  (159) 
-0

>  <r_epik_Charging_Adjusted_Penalty>  (159) 
0

>  <i_epik_Tot_Q>  (159) 
0

>  <i_epik_Tot_abs_Q>  (159) 
0

>  <s_epik_Chemistry_Notes>  (159) 
This compound contains an acetal/aminal-like group ( X-CH(R)-Y where X, Y are N, S, or O) that may be acid/base labile, releasing an aldehyde.

>  <s_lp_Force_Field>  (159) 
OPLS3e

>  <r_lp_Energy>  (159) 
76.0636

>  <b_lp_Chiralities_Consistent>  (159) 
1

>  <s_lp_Variant>  (159) 
45:0-1

>  <s_i_glide_gridfile>  (159) 
pfpi4k_grid

>  <i_i_glide_lignum>  (159) 
22

>  <i_i_glide_rotatable_bonds>  (159) 
7

>  <r_i_docking_score>  (159) 
-3.27588

>  <r_i_glide_ligand_efficiency>  (159) 
-0.0862073

>  <r_i_glide_ligand_efficiency_sa>  (159) 
-0.289827

>  <r_i_glide_ligand_efficiency_ln>  (159) 
-0.706375

>  <r_i_glide_gscore>  (159) 
-3.27588

>  <r_i_glide_lipo>  (159) 
-0.564272

>  <r_i_glide_hbond>  (159) 
0

>  <r_i_glide_metal>  (159) 
-0

>  <r_i_glide_rewards>  (159) 
0

>  <r_i_glide_evdw>  (159) 
-34.3933

>  <r_i_glide_ecoul>  (159) 
-7.29705

>  <r_i_glide_erotb>  (159) 
0.144393

>  <r_i_glide_esite>  (159) 
-0.0417735

>  <r_i_glide_emodel>  (159) 
-50.4453

>  <r_i_glide_energy>  (159) 
-41.6904

>  <r_i_glide_einternal>  (159) 
1.65496

>  <r_i_glide_intrahb_reward>  (159) 
-0

>  <i_i_glide_confnum>  (159) 
2

>  <i_i_glide_posenum>  (159) 
23

>  <r_i_glide_eff_state_penalty>  (159) 
0

>  <ligand_id>  (159) 
45

>  <original_smiles>  (159) 
CC1(C)CC2C(CC1=O)CC1(C)C3C(=CCC21C)C1C(OC2OCC(O)C(O)C2O)CCC1(C)C(O)C3O

>  <smiles>  (159) 
[H]OC1([H])C([H])([H])OC([H])(OC2([H])C([H])([H])C([H])([H])C3(C([H])([H])[H])C([H])(O[H])C([H])(O[H])C4([H])C(=C([H])C([H])([H])C5(C([H])([H])[H])C6([H])C([H])([H])C(C([H])([H])[H])(C([H])([H])[H])C(=O)C([H])([H])C6([H])C([H])([H])C45C([H])([H])[H])C23[H])C([H])(O[H])C1([H])O[H]

$$$$
46:0:0
     RDKit          3D

 64 68  0  0  1  0  0  0  0  0999 V2000
   -0.0575    0.8782    2.5952 C   0  0  0  0  0  0  0  0  0  0  0  0
   -0.2545    1.6416    3.9315 C   0  0  0  0  0  0  0  0  0  0  0  0
   -0.4691    3.1264    3.5726 C   0  0  0  0  0  0  0  0  0  0  0  0
   -1.5910    1.1737    4.5435 C   0  0  0  0  0  0  0  0  0  0  0  0
   -1.5534   -0.2906    4.9794 C   0  0  0  0  0  0  0  0  0  0  0  0
   -0.4705   -0.4609    6.0448 C   0  0  1  0  0  0  0  0  0  0  0  0
   -0.5749   -1.7447    6.6419 O   0  0  0  0  0  0  0  0  0  0  0  0
    0.9839   -0.0046    5.6337 C   0  0  1  0  0  0  0  0  0  0  0  0
    1.7333    0.0138    7.0035 C   0  0  0  0  0  0  0  0  0  0  0  0
    1.7980   -0.9108    4.6504 C   0  0  0  0  0  0  0  0  0  0  0  0
    1.2874   -2.0956    4.2022 C   0  0  0  0  0  0  0  0  0  0  0  0
    1.8900   -3.2402    3.3897 C   0  0  0  0  0  0  0  0  0  0  0  0
    2.6173   -2.8934    2.0850 C   0  0  2  0  0  0  0  0  0  0  0  0
    3.5993   -3.8640    1.7588 O   0  0  0  0  0  0  0  0  0  0  0  0
    4.5103   -3.2906    0.8245 C   0  0  0  0  0  0  0  0  0  0  0  0
    4.4610   -1.7631    1.0313 C   0  0  2  0  0  0  0  0  0  0  0  0
    4.1062   -1.0295   -0.2684 C   0  0  0  0  0  0  0  0  0  0  0  0
    5.6977   -1.1360    1.6961 C   0  0  0  0  0  0  0  0  0  0  0  0
    5.2188   -0.4775    2.8666 O   0  0  0  0  0  0  0  0  0  0  0  0
    4.1176   -1.2177    3.3936 C   0  0  1  0  0  0  0  0  0  0  0  0
    4.7942   -2.3504    4.2156 C   0  0  0  0  0  0  0  0  0  0  0  0
    3.2146   -0.3445    4.3159 C   0  0  1  0  0  0  0  0  0  0  0  0
    3.2302    1.1735    3.9299 C   0  0  1  0  0  0  0  0  0  0  0  0
    2.9997    1.4511    2.5668 O   0  0  0  0  0  0  0  0  0  0  0  0
    2.3002    2.0397    4.7916 C   0  0  1  0  0  0  0  0  0  0  0  0
    2.3418    3.3943    4.3930 O   0  0  0  0  0  0  0  0  0  0  0  0
    0.8766    1.4544    5.0389 C   0  0  1  0  0  0  0  0  0  0  0  0
    3.3930   -1.5985    2.0877 C   0  0  2  0  0  0  0  0  0  0  0  0
   -0.9894    0.8504    2.0263 H   0  0  0  0  0  0  0  0  0  0  0  0
    0.2469   -0.1564    2.7264 H   0  0  0  0  0  0  0  0  0  0  0  0
    0.6622    1.3578    1.9348 H   0  0  0  0  0  0  0  0  0  0  0  0
   -0.5054    3.7590    4.4591 H   0  0  0  0  0  0  0  0  0  0  0  0
   -1.3980    3.2679    3.0195 H   0  0  0  0  0  0  0  0  0  0  0  0
    0.3184    3.4955    2.9147 H   0  0  0  0  0  0  0  0  0  0  0  0
   -1.8389    1.7946    5.4072 H   0  0  0  0  0  0  0  0  0  0  0  0
   -2.4020    1.3377    3.8343 H   0  0  0  0  0  0  0  0  0  0  0  0
   -2.5255   -0.5498    5.3980 H   0  0  0  0  0  0  0  0  0  0  0  0
   -1.4005   -0.9535    4.1313 H   0  0  0  0  0  0  0  0  0  0  0  0
   -0.7808    0.2067    6.8513 H   0  0  0  0  0  0  0  0  0  0  0  0
   -0.1594   -2.3794    6.0786 H   0  0  0  0  0  0  0  0  0  0  0  0
    1.2197    0.6317    7.7410 H   0  0  0  0  0  0  0  0  0  0  0  0
    2.7531    0.3836    6.9748 H   0  0  0  0  0  0  0  0  0  0  0  0
    1.8012   -0.9879    7.4267 H   0  0  0  0  0  0  0  0  0  0  0  0
    0.2976   -2.3754    4.4964 H   0  0  0  0  0  0  0  0  0  0  0  0
    2.5107   -3.8522    4.0401 H   0  0  0  0  0  0  0  0  0  0  0  0
    1.0655   -3.9055    3.1293 H   0  0  0  0  0  0  0  0  0  0  0  0
    1.9002   -2.8445    1.2643 H   0  0  0  0  0  0  0  0  0  0  0  0
    5.5088   -3.7087    0.9608 H   0  0  0  0  0  0  0  0  0  0  0  0
    4.1821   -3.5562   -0.1808 H   0  0  0  0  0  0  0  0  0  0  0  0
    4.0260    0.0391   -0.0655 H   0  0  0  0  0  0  0  0  0  0  0  0
    3.1513   -1.3693   -0.6762 H   0  0  0  0  0  0  0  0  0  0  0  0
    4.8709   -1.1669   -1.0340 H   0  0  0  0  0  0  0  0  0  0  0  0
    6.4305   -1.8906    1.9754 H   0  0  0  0  0  0  0  0  0  0  0  0
    6.2049   -0.4164    1.0522 H   0  0  0  0  0  0  0  0  0  0  0  0
    4.1190   -2.8103    4.9341 H   0  0  0  0  0  0  0  0  0  0  0  0
    5.6143   -1.9458    4.8079 H   0  0  0  0  0  0  0  0  0  0  0  0
    5.2125   -3.1393    3.5904 H   0  0  0  0  0  0  0  0  0  0  0  0
    3.7453   -0.3599    5.2645 H   0  0  0  0  0  0  0  0  0  0  0  0
    4.2449    1.5364    4.1024 H   0  0  0  0  0  0  0  0  0  0  0  0
    3.6225    2.1188    2.3008 H   0  0  0  0  0  0  0  0  0  0  0  0
    2.7785    2.0955    5.7645 H   0  0  0  0  0  0  0  0  0  0  0  0
    1.9786    3.4471    3.5218 H   0  0  0  0  0  0  0  0  0  0  0  0
    0.5093    2.0645    5.8646 H   0  0  0  0  0  0  0  0  0  0  0  0
    2.7005   -0.8112    1.7990 H   0  0  0  0  0  0  0  0  0  0  0  0
  1  2  1  0
  1 29  1  0
  1 30  1  0
  1 31  1  0
  2 27  1  0
  2  3  1  0
  2  4  1  0
  3 32  1  0
  3 33  1  0
  3 34  1  0
  4  5  1  0
  4 35  1  0
  4 36  1  0
  5  6  1  0
  5 37  1  0
  5 38  1  0
  6  7  1  0
  6  8  1  0
  6 39  1  1
  7 40  1  0
  8 27  1  0
  8  9  1  1
  8 10  1  0
  9 41  1  0
  9 42  1  0
  9 43  1  0
 10 22  1  0
 10 11  2  0
 11 12  1  0
 11 44  1  0
 12 13  1  0
 12 45  1  0
 12 46  1  0
 13 28  1  0
 13 14  1  0
 13 47  1  6
 14 15  1  0
 15 16  1  0
 15 48  1  0
 15 49  1  0
 16 28  1  0
 16 17  1  6
 16 18  1  0
 17 50  1  0
 17 51  1  0
 17 52  1  0
 18 19  1  0
 18 53  1  0
 18 54  1  0
 19 20  1  0
 20 21  1  1
 20 22  1  0
 20 28  1  0
 21 55  1  0
 21 56  1  0
 21 57  1  0
 22 23  1  0
 22 58  1  1
 23 24  1  0
 23 25  1  0
 23 59  1  1
 24 60  1  0
 25 26  1  0
 25 27  1  0
 25 61  1  1
 26 62  1  0
 27 63  1  1
 28 64  1  6
M  END
>  <i_m_ct_stereo_status>  (160) 
1

>  <s_m_source_file>  (160) 
/var/tmp/pbs.5076255.sched01/tmpguyree9i/45_f3p7e6s.sdf

>  <i_m_source_file_index>  (160) 
23

>  <i_lp_mmshare_version>  (160) 
48012

>  <i_f3d_flags>  (160) 
0

>  <s_epik_input>  (160) 
W09IXVtDQEBIXTFbQ0gyXVtDSDJdQyhbQ0gzXSkoW0NIM10pW0NAQEhdMltDQEhdKFtPSF0pW0NASF0oW09IXSlbQ0BASF0oQz0zW0NAXTEyW0NIM10pW0NAQF00KFtDSDNdKVtDQEBIXTVbQ0BIXShbQ0gyXVtDSF0zKU9bQ0gyXVtDQF01KFtDSDNdKVtDSDJdTzQ=

>  <s_epik_cmdline>  (160) 
J2VwaWtfcHl0aG9uJywgJy1waHQnLCAnMi4wJywgJy1waCcsICc3LjAnLCAnLXRuJywgJzgnLCAnLW1hJywgJzIwMCcsICctaW1hZScsICc8aW5maWxlLm1hZT4nLCAnLW9tYWUnLCAnPG91dGZpbGUubWFlPic=

>  <r_lp_tautomer_probability>  (160) 
1

>  <r_epik_Ionization_Penalty>  (160) 
8.52066e-07

>  <r_epik_Ionization_Penalty_Charging>  (160) 
0

>  <r_epik_Ionization_Penalty_Neutral>  (160) 
8.52066e-07

>  <r_epik_State_Penalty>  (160) 
-0

>  <r_epik_Charging_Adjusted_Penalty>  (160) 
0

>  <i_epik_Tot_Q>  (160) 
0

>  <i_epik_Tot_abs_Q>  (160) 
0

>  <s_lp_Force_Field>  (160) 
OPLS3e

>  <r_lp_Energy>  (160) 
47.7248

>  <b_lp_Chiralities_Consistent>  (160) 
1

>  <s_lp_Variant>  (160) 
46:0-1

>  <s_i_glide_gridfile>  (160) 
pfpi4k_grid

>  <i_i_glide_lignum>  (160) 
23

>  <i_i_glide_rotatable_bonds>  (160) 
3

>  <r_i_docking_score>  (160) 
-3.09719

>  <r_i_glide_ligand_efficiency>  (160) 
-0.110614

>  <r_i_glide_ligand_efficiency_sa>  (160) 
-0.335889

>  <r_i_glide_ligand_efficiency_ln>  (160) 
-0.714923

>  <r_i_glide_gscore>  (160) 
-3.09719

>  <r_i_glide_lipo>  (160) 
-0.216585

>  <r_i_glide_hbond>  (160) 
0

>  <r_i_glide_metal>  (160) 
-0

>  <r_i_glide_rewards>  (160) 
-0.732757

>  <r_i_glide_evdw>  (160) 
-24.7365

>  <r_i_glide_ecoul>  (160) 
-6.07348

>  <r_i_glide_erotb>  (160) 
0

>  <r_i_glide_esite>  (160) 
0

>  <r_i_glide_emodel>  (160) 
-35.8201

>  <r_i_glide_energy>  (160) 
-30.81

>  <r_i_glide_einternal>  (160) 
1.13002

>  <r_i_glide_intrahb_reward>  (160) 
-0

>  <i_i_glide_confnum>  (160) 
2

>  <i_i_glide_posenum>  (160) 
12

>  <r_i_glide_eff_state_penalty>  (160) 
0

>  <ligand_id>  (160) 
46

>  <original_smiles>  (160) 
CC1(C)CCC(O)C2(C)C3=CCC4OCC5(C)COC(C)(C3C(O)C(O)C12)C45

>  <smiles>  (160) 
[H]OC1([H])C([H])(O[H])C2([H])C(C([H])([H])[H])(C3=C([H])C([H])([H])C4([H])OC([H])([H])C5(C([H])([H])[H])C([H])([H])OC(C([H])([H])[H])(C31[H])C45[H])C([H])(O[H])C([H])([H])C([H])([H])C2(C([H])([H])[H])C([H])([H])[H]

$$$$
46:0:1
     RDKit          3D

 64 68  0  0  1  0  0  0  0  0999 V2000
    1.4052   -0.2814    2.4835 C   0  0  0  0  0  0  0  0  0  0  0  0
    1.5483   -0.0708    4.0123 C   0  0  0  0  0  0  0  0  0  0  0  0
    1.5286    1.4539    4.2558 C   0  0  0  0  0  0  0  0  0  0  0  0
    0.2625   -0.6166    4.6764 C   0  0  0  0  0  0  0  0  0  0  0  0
    0.1445   -2.1348    4.5574 C   0  0  0  0  0  0  0  0  0  0  0  0
    1.3397   -2.7932    5.2442 C   0  0  1  0  0  0  0  0  0  0  0  0
    1.1342   -4.1921    5.3550 O   0  0  0  0  0  0  0  0  0  0  0  0
    2.7611   -2.3485    4.7243 C   0  0  1  0  0  0  0  0  0  0  0  0
    3.7123   -2.9235    5.8212 C   0  0  0  0  0  0  0  0  0  0  0  0
    3.2508   -2.8816    3.3344 C   0  0  0  0  0  0  0  0  0  0  0  0
    2.4925   -3.7541    2.6125 C   0  0  0  0  0  0  0  0  0  0  0  0
    2.7681   -4.5540    1.3385 C   0  0  0  0  0  0  0  0  0  0  0  0
    3.3228   -3.8008    0.1245 C   0  0  2  0  0  0  0  0  0  0  0  0
    4.1085   -4.6500   -0.6920 O   0  0  0  0  0  0  0  0  0  0  0  0
    4.8937   -3.8379   -1.5550 C   0  0  0  0  0  0  0  0  0  0  0  0
    5.1177   -2.5074   -0.8137 C   0  0  2  0  0  0  0  0  0  0  0  0
    4.6797   -1.3026   -1.6607 C   0  0  0  0  0  0  0  0  0  0  0  0
    6.5318   -2.3222   -0.2441 C   0  0  0  0  0  0  0  0  0  0  0  0
    6.3640   -2.1233    1.1562 O   0  0  0  0  0  0  0  0  0  0  0  0
    5.2525   -2.8992    1.5976 C   0  0  1  0  0  0  0  0  0  0  0  0
    5.8531   -4.3217    1.7901 C   0  0  0  0  0  0  0  0  0  0  0  0
    4.6687   -2.3612    2.9375 C   0  0  1  0  0  0  0  0  0  0  0  0
    4.8688   -0.8174    3.1196 C   0  0  1  0  0  0  0  0  0  0  0  0
    4.4416   -0.0278    2.0290 O   0  0  0  0  0  0  0  0  0  0  0  0
    4.2379   -0.2735    4.4101 C   0  0  1  0  0  0  0  0  0  0  0  0
    4.4307    1.1148    4.5435 O   0  0  0  0  0  0  0  0  0  0  0  0
    2.7968   -0.7710    4.7212 C   0  0  1  0  0  0  0  0  0  0  0  0
    4.2746   -2.6711    0.4276 C   0  0  2  0  0  0  0  0  0  0  0  0
    0.3971   -0.0126    2.1598 H   0  0  0  0  0  0  0  0  0  0  0  0
    1.5558   -1.3115    2.1699 H   0  0  0  0  0  0  0  0  0  0  0  0
    2.0592    0.3639    1.9010 H   0  0  0  0  0  0  0  0  0  0  0  0
    1.7371    1.6982    5.2977 H   0  0  0  0  0  0  0  0  0  0  0  0
    0.5569    1.8776    4.0016 H   0  0  0  0  0  0  0  0  0  0  0  0
    2.2550    1.9727    3.6297 H   0  0  0  0  0  0  0  0  0  0  0  0
    0.2536   -0.3441    5.7340 H   0  0  0  0  0  0  0  0  0  0  0  0
   -0.6221   -0.1444    4.2435 H   0  0  0  0  0  0  0  0  0  0  0  0
   -0.7722   -2.4484    5.0535 H   0  0  0  0  0  0  0  0  0  0  0  0
    0.0570   -2.4407    3.5185 H   0  0  0  0  0  0  0  0  0  0  0  0
    1.2730   -2.4566    6.2818 H   0  0  0  0  0  0  0  0  0  0  0  0
    1.2967   -4.5970    4.5175 H   0  0  0  0  0  0  0  0  0  0  0  0
    3.4285   -2.5903    6.8204 H   0  0  0  0  0  0  0  0  0  0  0  0
    4.7609   -2.6695    5.7147 H   0  0  0  0  0  0  0  0  0  0  0  0
    3.6786   -4.0119    5.8347 H   0  0  0  0  0  0  0  0  0  0  0  0
    1.5281   -4.0325    2.9841 H   0  0  0  0  0  0  0  0  0  0  0  0
    3.3816   -5.4193    1.5827 H   0  0  0  0  0  0  0  0  0  0  0  0
    1.8239   -5.0046    1.0320 H   0  0  0  0  0  0  0  0  0  0  0  0
    2.5041   -3.3962   -0.4721 H   0  0  0  0  0  0  0  0  0  0  0  0
    5.8177   -4.3433   -1.8040 H   0  0  0  0  0  0  0  0  0  0  0  0
    4.3447   -3.6860   -2.4862 H   0  0  0  0  0  0  0  0  0  0  0  0
    4.7838   -0.3723   -1.0967 H   0  0  0  0  0  0  0  0  0  0  0  0
    3.6337   -1.3919   -1.9635 H   0  0  0  0  0  0  0  0  0  0  0  0
    5.2839   -1.2190   -2.5659 H   0  0  0  0  0  0  0  0  0  0  0  0
    7.1604   -3.1968   -0.4145 H   0  0  0  0  0  0  0  0  0  0  0  0
    7.0438   -1.4642   -0.6753 H   0  0  0  0  0  0  0  0  0  0  0  0
    5.2413   -4.9557    2.4288 H   0  0  0  0  0  0  0  0  0  0  0  0
    6.8183   -4.2578    2.2860 H   0  0  0  0  0  0  0  0  0  0  0  0
    6.0273   -4.8483    0.8514 H   0  0  0  0  0  0  0  0  0  0  0  0
    5.3346   -2.7896    3.6814 H   0  0  0  0  0  0  0  0  0  0  0  0
    5.9425   -0.6339    3.1904 H   0  0  0  0  0  0  0  0  0  0  0  0
    3.5112   -0.1560    1.9174 H   0  0  0  0  0  0  0  0  0  0  0  0
    4.8654   -0.6453    5.2133 H   0  0  0  0  0  0  0  0  0  0  0  0
    4.1004    1.5247    3.7565 H   0  0  0  0  0  0  0  0  0  0  0  0
    2.6713   -0.4902    5.7680 H   0  0  0  0  0  0  0  0  0  0  0  0
    3.6755   -1.7786    0.5898 H   0  0  0  0  0  0  0  0  0  0  0  0
  1  2  1  0
  1 29  1  0
  1 30  1  0
  1 31  1  0
  2 27  1  0
  2  3  1  0
  2  4  1  0
  3 32  1  0
  3 33  1  0
  3 34  1  0
  4  5  1  0
  4 35  1  0
  4 36  1  0
  5  6  1  0
  5 37  1  0
  5 38  1  0
  6  7  1  0
  6  8  1  0
  6 39  1  1
  7 40  1  0
  8 27  1  0
  8  9  1  1
  8 10  1  0
  9 41  1  0
  9 42  1  0
  9 43  1  0
 10 22  1  0
 10 11  2  0
 11 12  1  0
 11 44  1  0
 12 13  1  0
 12 45  1  0
 12 46  1  0
 13 28  1  0
 13 14  1  0
 13 47  1  6
 14 15  1  0
 15 16  1  0
 15 48  1  0
 15 49  1  0
 16 28  1  0
 16 17  1  6
 16 18  1  0
 17 50  1  0
 17 51  1  0
 17 52  1  0
 18 19  1  0
 18 53  1  0
 18 54  1  0
 19 20  1  0
 20 21  1  1
 20 22  1  0
 20 28  1  0
 21 55  1  0
 21 56  1  0
 21 57  1  0
 22 23  1  0
 22 58  1  1
 23 24  1  0
 23 25  1  0
 23 59  1  1
 24 60  1  0
 25 26  1  0
 25 27  1  0
 25 61  1  1
 26 62  1  0
 27 63  1  1
 28 64  1  1
M  END
>  <i_m_ct_stereo_status>  (161) 
1

>  <s_m_source_file>  (161) 
/var/tmp/pbs.5076255.sched01/tmpguyree9i/45_f3p7e6s.sdf

>  <i_m_source_file_index>  (161) 
23

>  <i_lp_mmshare_version>  (161) 
48012

>  <i_f3d_flags>  (161) 
0

>  <s_epik_input>  (161) 
W09IXVtDQEBIXTFbQ0gyXVtDSDJdQyhbQ0gzXSkoW0NIM10pW0NAQEhdMltDQEhdKFtPSF0pW0NASF0oW09IXSlbQ0BASF0oQz0zW0NAXTEyW0NIM10pW0NAQF00KFtDSDNdKVtDQEBIXTVbQ0BIXShbQ0gyXVtDSF0zKU9bQ0gyXVtDQF01KFtDSDNdKVtDSDJdTzQ=

>  <s_epik_cmdline>  (161) 
J2VwaWtfcHl0aG9uJywgJy1waHQnLCAnMi4wJywgJy1waCcsICc3LjAnLCAnLXRuJywgJzgnLCAnLW1hJywgJzIwMCcsICctaW1hZScsICc8aW5maWxlLm1hZT4nLCAnLW9tYWUnLCAnPG91dGZpbGUubWFlPic=

>  <r_lp_tautomer_probability>  (161) 
1

>  <r_epik_Ionization_Penalty>  (161) 
8.52066e-07

>  <r_epik_Ionization_Penalty_Charging>  (161) 
0

>  <r_epik_Ionization_Penalty_Neutral>  (161) 
8.52066e-07

>  <r_epik_State_Penalty>  (161) 
-0

>  <r_epik_Charging_Adjusted_Penalty>  (161) 
0

>  <i_epik_Tot_Q>  (161) 
0

>  <i_epik_Tot_abs_Q>  (161) 
0

>  <s_lp_Force_Field>  (161) 
OPLS3e

>  <r_lp_Energy>  (161) 
47.7248

>  <b_lp_Chiralities_Consistent>  (161) 
1

>  <s_lp_Variant>  (161) 
46:0-1

>  <s_i_glide_gridfile>  (161) 
pfpi4k_grid

>  <i_i_glide_lignum>  (161) 
23

>  <i_i_glide_rotatable_bonds>  (161) 
3

>  <r_i_docking_score>  (161) 
-2.40032

>  <r_i_glide_ligand_efficiency>  (161) 
-0.0857256

>  <r_i_glide_ligand_efficiency_sa>  (161) 
-0.260314

>  <r_i_glide_ligand_efficiency_ln>  (161) 
-0.554064

>  <r_i_glide_gscore>  (161) 
-2.40032

>  <r_i_glide_lipo>  (161) 
-0.287457

>  <r_i_glide_hbond>  (161) 
0

>  <r_i_glide_metal>  (161) 
-0

>  <r_i_glide_rewards>  (161) 
-0.732757

>  <r_i_glide_evdw>  (161) 
-24.9642

>  <r_i_glide_ecoul>  (161) 
-0.879279

>  <r_i_glide_erotb>  (161) 
0

>  <r_i_glide_esite>  (161) 
0

>  <r_i_glide_emodel>  (161) 
-30.1296

>  <r_i_glide_energy>  (161) 
-25.8435

>  <r_i_glide_einternal>  (161) 
0.152058

>  <r_i_glide_intrahb_reward>  (161) 
-0

>  <i_i_glide_confnum>  (161) 
2

>  <i_i_glide_posenum>  (161) 
1

>  <r_i_glide_eff_state_penalty>  (161) 
0

>  <ligand_id>  (161) 
46

>  <original_smiles>  (161) 
CC1(C)CCC(O)C2(C)C3=CCC4OCC5(C)COC(C)(C3C(O)C(O)C12)C45

>  <smiles>  (161) 
[H]OC1([H])C([H])(O[H])C2([H])C(C([H])([H])[H])(C3=C([H])C([H])([H])C4([H])OC([H])([H])C5(C([H])([H])[H])C([H])([H])OC(C([H])([H])[H])(C31[H])C45[H])C([H])(O[H])C([H])([H])C([H])([H])C2(C([H])([H])[H])C([H])([H])[H]

$$$$
46:0:2
     RDKit          3D

 64 68  0  0  1  0  0  0  0  0999 V2000
    1.9289   -0.3779    2.3402 C   0  0  0  0  0  0  0  0  0  0  0  0
    2.4058   -0.6171    3.7996 C   0  0  0  0  0  0  0  0  0  0  0  0
    2.6479    0.7772    4.4190 C   0  0  0  0  0  0  0  0  0  0  0  0
    1.2134   -1.2189    4.5777 C   0  0  0  0  0  0  0  0  0  0  0  0
    0.8623   -2.6257    4.1011 C   0  0  0  0  0  0  0  0  0  0  0  0
    2.0665   -3.5453    4.2949 C   0  0  1  0  0  0  0  0  0  0  0  0
    1.6823   -4.8830    4.0390 O   0  0  0  0  0  0  0  0  0  0  0  0
    3.4095   -3.0867    3.5997 C   0  0  1  0  0  0  0  0  0  0  0  0
    4.4678   -4.0255    4.2596 C   0  0  0  0  0  0  0  0  0  0  0  0
    3.5564   -3.2469    2.0478 C   0  0  0  0  0  0  0  0  0  0  0  0
    2.5839   -3.8439    1.3083 C   0  0  0  0  0  0  0  0  0  0  0  0
    2.4784   -4.2684   -0.1593 C   0  0  0  0  0  0  0  0  0  0  0  0
    2.8247   -3.2309   -1.2268 C   0  0  2  0  0  0  0  0  0  0  0  0
    3.2788   -3.8243   -2.4237 O   0  0  0  0  0  0  0  0  0  0  0  0
    3.9985   -2.9036   -3.2100 C   0  0  0  0  0  0  0  0  0  0  0  0
    4.5426   -1.9010   -2.2046 C   0  0  2  0  0  0  0  0  0  0  0  0
    4.1395   -0.4933   -2.6267 C   0  0  0  0  0  0  0  0  0  0  0  0
    6.0354   -2.0173   -1.9133 C   0  0  0  0  0  0  0  0  0  0  0  0
    6.2013   -2.1667   -0.5218 O   0  0  0  0  0  0  0  0  0  0  0  0
    5.1020   -2.9243   -0.0473 C   0  0  1  0  0  0  0  0  0  0  0  0
    5.5336   -4.3872   -0.3617 C   0  0  0  0  0  0  0  0  0  0  0  0
    4.9074   -2.7377    1.4818 C   0  0  1  0  0  0  0  0  0  0  0  0
    5.3444   -1.3272    2.0028 C   0  0  1  0  0  0  0  0  0  0  0  0
    4.8269   -0.2361    1.2739 O   0  0  0  0  0  0  0  0  0  0  0  0
    5.0576   -1.1259    3.4977 C   0  0  1  0  0  0  0  0  0  0  0  0
    5.4639    0.1409    3.9584 O   0  0  0  0  0  0  0  0  0  0  0  0
    3.6586   -1.5820    3.9966 C   0  0  1  0  0  0  0  0  0  0  0  0
    3.9480   -2.3015   -0.8747 C   0  0  2  0  0  0  0  0  0  0  0  0
    0.9220    0.0487    2.3300 H   0  0  0  0  0  0  0  0  0  0  0  0
    1.8666   -1.2873    1.7447 H   0  0  0  0  0  0  0  0  0  0  0  0
    2.5362    0.3471    1.8017 H   0  0  0  0  0  0  0  0  0  0  0  0
    3.0952    0.6995    5.4104 H   0  0  0  0  0  0  0  0  0  0  0  0
    1.7154    1.3330    4.5238 H   0  0  0  0  0  0  0  0  0  0  0  0
    3.2954    1.3980    3.7995 H   0  0  0  0  0  0  0  0  0  0  0  0
    1.4597   -1.2583    5.6385 H   0  0  0  0  0  0  0  0  0  0  0  0
    0.3358   -0.5736    4.5017 H   0  0  0  0  0  0  0  0  0  0  0  0
    0.0261   -2.9930    4.6925 H   0  0  0  0  0  0  0  0  0  0  0  0
    0.5255   -2.6176    3.0672 H   0  0  0  0  0  0  0  0  0  0  0  0
    2.2488   -3.5312    5.3702 H   0  0  0  0  0  0  0  0  0  0  0  0
    2.3623   -5.4604    4.3538 H   0  0  0  0  0  0  0  0  0  0  0  0
    4.4422   -3.9701    5.3480 H   0  0  0  0  0  0  0  0  0  0  0  0
    5.4971   -3.8326    3.9768 H   0  0  0  0  0  0  0  0  0  0  0  0
    4.2926   -5.0656    3.9859 H   0  0  0  0  0  0  0  0  0  0  0  0
    1.7039   -4.1587    1.8225 H   0  0  0  0  0  0  0  0  0  0  0  0
    2.9992   -5.2099   -0.3179 H   0  0  0  0  0  0  0  0  0  0  0  0
    1.4449   -4.5394   -0.3529 H   0  0  0  0  0  0  0  0  0  0  0  0
    1.9385   -2.6586   -1.4980 H   0  0  0  0  0  0  0  0  0  0  0  0
    4.7766   -3.4196   -3.7713 H   0  0  0  0  0  0  0  0  0  0  0  0
    3.3198   -2.4329   -3.9235 H   0  0  0  0  0  0  0  0  0  0  0  0
    4.5005    0.1763   -1.8568 H   0  0  0  0  0  0  0  0  0  0  0  0
    3.0520   -0.3823   -2.6868 H   0  0  0  0  0  0  0  0  0  0  0  0
    4.5632   -0.1851   -3.5848 H   0  0  0  0  0  0  0  0  0  0  0  0
    6.5146   -2.8395   -2.4565 H   0  0  0  0  0  0  0  0  0  0  0  0
    6.5146   -1.0934   -2.1943 H   0  0  0  0  0  0  0  0  0  0  0  0
    4.9902   -5.1346    0.2101 H   0  0  0  0  0  0  0  0  0  0  0  0
    6.5829   -4.5409   -0.1065 H   0  0  0  0  0  0  0  0  0  0  0  0
    5.4238   -4.6360   -1.4168 H   0  0  0  0  0  0  0  0  0  0  0  0
    5.6430   -3.4098    1.9144 H   0  0  0  0  0  0  0  0  0  0  0  0
    6.4248   -1.2583    1.8709 H   0  0  0  0  0  0  0  0  0  0  0  0
    3.8823   -0.2732    1.3053 H   0  0  0  0  0  0  0  0  0  0  0  0
    5.7749   -1.7627    3.9972 H   0  0  0  0  0  0  0  0  0  0  0  0
    4.8739    0.7802    3.5882 H   0  0  0  0  0  0  0  0  0  0  0  0
    3.7817   -1.6018    5.0805 H   0  0  0  0  0  0  0  0  0  0  0  0
    3.5296   -1.4371   -0.3613 H   0  0  0  0  0  0  0  0  0  0  0  0
  1  2  1  0
  1 29  1  0
  1 30  1  0
  1 31  1  0
  2 27  1  0
  2  3  1  0
  2  4  1  0
  3 32  1  0
  3 33  1  0
  3 34  1  0
  4  5  1  0
  4 35  1  0
  4 36  1  0
  5  6  1  0
  5 37  1  0
  5 38  1  0
  6  7  1  0
  6  8  1  0
  6 39  1  1
  7 40  1  0
  8 27  1  0
  8  9  1  1
  8 10  1  0
  9 41  1  0
  9 42  1  0
  9 43  1  0
 10 22  1  0
 10 11  2  0
 11 12  1  0
 11 44  1  0
 12 13  1  0
 12 45  1  0
 12 46  1  0
 13 28  1  0
 13 14  1  0
 13 47  1  6
 14 15  1  0
 15 16  1  0
 15 48  1  0
 15 49  1  0
 16 28  1  0
 16 17  1  6
 16 18  1  0
 17 50  1  0
 17 51  1  0
 17 52  1  0
 18 19  1  0
 18 53  1  0
 18 54  1  0
 19 20  1  0
 20 21  1  1
 20 22  1  0
 20 28  1  0
 21 55  1  0
 21 56  1  0
 21 57  1  0
 22 23  1  0
 22 58  1  1
 23 24  1  0
 23 25  1  0
 23 59  1  1
 24 60  1  0
 25 26  1  0
 25 27  1  0
 25 61  1  1
 26 62  1  0
 27 63  1  1
 28 64  1  1
M  END
>  <i_m_ct_stereo_status>  (162) 
1

>  <s_m_source_file>  (162) 
/var/tmp/pbs.5076255.sched01/tmpguyree9i/45_f3p7e6s.sdf

>  <i_m_source_file_index>  (162) 
23

>  <i_lp_mmshare_version>  (162) 
48012

>  <i_f3d_flags>  (162) 
0

>  <s_epik_input>  (162) 
W09IXVtDQEBIXTFbQ0gyXVtDSDJdQyhbQ0gzXSkoW0NIM10pW0NAQEhdMltDQEhdKFtPSF0pW0NASF0oW09IXSlbQ0BASF0oQz0zW0NAXTEyW0NIM10pW0NAQF00KFtDSDNdKVtDQEBIXTVbQ0BIXShbQ0gyXVtDSF0zKU9bQ0gyXVtDQF01KFtDSDNdKVtDSDJdTzQ=

>  <s_epik_cmdline>  (162) 
J2VwaWtfcHl0aG9uJywgJy1waHQnLCAnMi4wJywgJy1waCcsICc3LjAnLCAnLXRuJywgJzgnLCAnLW1hJywgJzIwMCcsICctaW1hZScsICc8aW5maWxlLm1hZT4nLCAnLW9tYWUnLCAnPG91dGZpbGUubWFlPic=

>  <r_lp_tautomer_probability>  (162) 
1

>  <r_epik_Ionization_Penalty>  (162) 
8.52066e-07

>  <r_epik_Ionization_Penalty_Charging>  (162) 
0

>  <r_epik_Ionization_Penalty_Neutral>  (162) 
8.52066e-07

>  <r_epik_State_Penalty>  (162) 
-0

>  <r_epik_Charging_Adjusted_Penalty>  (162) 
0

>  <i_epik_Tot_Q>  (162) 
0

>  <i_epik_Tot_abs_Q>  (162) 
0

>  <s_lp_Force_Field>  (162) 
OPLS3e

>  <r_lp_Energy>  (162) 
47.7248

>  <b_lp_Chiralities_Consistent>  (162) 
1

>  <s_lp_Variant>  (162) 
46:0-1

>  <s_i_glide_gridfile>  (162) 
pfpi4k_grid

>  <i_i_glide_lignum>  (162) 
23

>  <i_i_glide_rotatable_bonds>  (162) 
3

>  <r_i_docking_score>  (162) 
-2.17782

>  <r_i_glide_ligand_efficiency>  (162) 
-0.0777792

>  <r_i_glide_ligand_efficiency_sa>  (162) 
-0.236183

>  <r_i_glide_ligand_efficiency_ln>  (162) 
-0.502704

>  <r_i_glide_gscore>  (162) 
-2.17782

>  <r_i_glide_lipo>  (162) 
-0.677237

>  <r_i_glide_hbond>  (162) 
0

>  <r_i_glide_metal>  (162) 
-0

>  <r_i_glide_rewards>  (162) 
-0.732757

>  <r_i_glide_evdw>  (162) 
-18.7376

>  <r_i_glide_ecoul>  (162) 
1.12703

>  <r_i_glide_erotb>  (162) 
0

>  <r_i_glide_esite>  (162) 
0

>  <r_i_glide_emodel>  (162) 
-21.1634

>  <r_i_glide_energy>  (162) 
-17.6105

>  <r_i_glide_einternal>  (162) 
0.388677

>  <r_i_glide_intrahb_reward>  (162) 
-0

>  <i_i_glide_confnum>  (162) 
2

>  <i_i_glide_posenum>  (162) 
6

>  <r_i_glide_eff_state_penalty>  (162) 
0

>  <ligand_id>  (162) 
46

>  <original_smiles>  (162) 
CC1(C)CCC(O)C2(C)C3=CCC4OCC5(C)COC(C)(C3C(O)C(O)C12)C45

>  <smiles>  (162) 
[H]OC1([H])C([H])(O[H])C2([H])C(C([H])([H])[H])(C3=C([H])C([H])([H])C4([H])OC([H])([H])C5(C([H])([H])[H])C([H])([H])OC(C([H])([H])[H])(C31[H])C45[H])C([H])(O[H])C([H])([H])C([H])([H])C2(C([H])([H])[H])C([H])([H])[H]

$$$$
47:0:0
     RDKit          3D

 58 63  0  0  1  0  0  0  0  0999 V2000
    5.5627   -5.0695    2.5293 C   0  0  0  0  0  0  0  0  0  0  0  0
    4.3323   -4.5434    2.7201 C   0  0  0  0  0  0  0  0  0  0  0  0
    3.6839   -4.5795    4.0472 C   0  0  0  0  0  0  0  0  0  0  0  0
    4.1312   -4.9989    5.0928 O   0  0  0  0  0  0  0  0  0  0  0  0
    2.2722   -3.9848    3.8978 C   0  0  1  0  0  0  0  0  0  0  0  0
    1.1805   -5.0582    4.0942 C   0  0  1  0  0  0  0  0  0  0  0  0
    1.4146   -6.3251    3.4670 O   0  0  0  0  0  0  0  0  0  0  0  0
    1.7320   -7.4434    4.2941 C   0  0  0  0  0  0  0  0  0  0  0  0
    0.8763   -5.0591    5.6343 C   0  0  0  0  0  0  0  0  0  0  0  0
    1.4484   -3.7372    6.1930 C   0  0  0  0  0  0  0  0  0  0  0  0
    1.7716   -2.9753    4.9105 C   0  0  1  0  0  0  0  0  0  0  0  0
    2.6540   -1.8848    4.8239 O   0  0  0  0  0  0  0  0  0  0  0  0
    2.9394   -1.7194    3.4117 C   0  0  2  0  0  0  0  0  0  0  0  0
    4.3865   -1.1682    3.2898 C   0  0  2  0  0  0  0  0  0  0  0  0
    4.8721   -0.2400    4.3935 C   0  0  1  0  0  0  0  0  0  0  0  0
    6.2023    0.1545    4.1296 O   0  0  0  0  0  0  0  0  0  0  0  0
    3.9776    1.0035    4.5498 C   0  0  0  0  0  0  0  0  0  0  0  0
    2.5840    0.8261    3.8965 C   0  0  1  0  0  0  0  0  0  0  0  0
    2.2081    2.0765    3.3469 O   0  0  0  0  0  0  0  0  0  0  0  0
    2.5273   -0.3248    2.8498 C   0  0  2  0  0  0  0  0  0  0  0  0
    1.1818   -0.2389    2.1019 C   0  0  0  0  0  0  0  0  0  0  0  0
    3.8280   -0.5052    2.0069 C   0  0  2  0  0  0  0  0  0  0  0  0
    3.8454   -1.3145    0.6952 C   0  0  1  0  0  0  0  0  0  0  0  0
    4.7621   -0.7013   -0.1811 O   0  0  0  0  0  0  0  0  0  0  0  0
    4.3384   -2.7737    0.8376 C   0  0  0  0  0  0  0  0  0  0  0  0
    3.4926   -3.7292    1.7463 C   0  0  1  0  0  0  0  0  0  0  0  0
    2.7351   -4.6922    0.8006 C   0  0  0  0  0  0  0  0  0  0  0  0
    2.4593   -3.0418    2.7035 C   0  0  1  0  0  0  0  0  0  0  0  0
    6.0634   -4.9943    1.5813 H   0  0  0  0  0  0  0  0  0  0  0  0
    6.0764   -5.5791    3.3220 H   0  0  0  0  0  0  0  0  0  0  0  0
    0.2980   -4.6830    3.5807 H   0  0  0  0  0  0  0  0  0  0  0  0
    1.9642   -8.3184    3.7208 H   0  0  0  0  0  0  0  0  0  0  0  0
    0.8738   -7.6638    4.9477 H   0  0  0  0  0  0  0  0  0  0  0  0
    2.5886   -7.2162    4.9455 H   0  0  0  0  0  0  0  0  0  0  0  0
   -0.2065   -5.1287    5.8030 H   0  0  0  0  0  0  0  0  0  0  0  0
    1.3677   -5.8711    6.1724 H   0  0  0  0  0  0  0  0  0  0  0  0
    0.7674   -3.2080    6.8654 H   0  0  0  0  0  0  0  0  0  0  0  0
    2.3577   -3.9518    6.7462 H   0  0  0  0  0  0  0  0  0  0  0  0
    0.8253   -2.5576    4.5542 H   0  0  0  0  0  0  0  0  0  0  0  0
    5.1277   -1.9607    3.1150 H   0  0  0  0  0  0  0  0  0  0  0  0
    4.8980   -0.7690    5.3457 H   0  0  0  0  0  0  0  0  0  0  0  0
    6.3407    0.1920    3.1983 H   0  0  0  0  0  0  0  0  0  0  0  0
    3.8650    1.2575    5.6052 H   0  0  0  0  0  0  0  0  0  0  0  0
    4.4765    1.8608    4.0975 H   0  0  0  0  0  0  0  0  0  0  0  0
    1.8697    0.5919    4.6842 H   0  0  0  0  0  0  0  0  0  0  0  0
    2.8102    2.3056    2.6593 H   0  0  0  0  0  0  0  0  0  0  0  0
    1.0746    0.7004    1.5536 H   0  0  0  0  0  0  0  0  0  0  0  0
    0.3496   -0.3349    2.8015 H   0  0  0  0  0  0  0  0  0  0  0  0
    1.0742   -1.0279    1.3579 H   0  0  0  0  0  0  0  0  0  0  0  0
    4.2758    0.4876    1.8586 H   0  0  0  0  0  0  0  0  0  0  0  0
    2.8784   -1.3076    0.1933 H   0  0  0  0  0  0  0  0  0  0  0  0
    4.5124    0.2092   -0.2941 H   0  0  0  0  0  0  0  0  0  0  0  0
    4.3960   -3.2012   -0.1674 H   0  0  0  0  0  0  0  0  0  0  0  0
    5.3785   -2.7498    1.1601 H   0  0  0  0  0  0  0  0  0  0  0  0
    2.1053   -4.1321    0.1054 H   0  0  0  0  0  0  0  0  0  0  0  0
    2.0960   -5.3868    1.3452 H   0  0  0  0  0  0  0  0  0  0  0  0
    3.4341   -5.2897    0.2103 H   0  0  0  0  0  0  0  0  0  0  0  0
    1.4977   -2.9139    2.2067 H   0  0  0  0  0  0  0  0  0  0  0  0
  1  2  2  0
  1 29  1  0
  1 30  1  0
  2 26  1  0
  2  3  1  0
  3  4  2  0
  5  3  1  1
  5 11  1  0
  5 28  1  0
  5  6  1  0
  6  7  1  0
  6  9  1  0
  6 31  1  6
  7  8  1  0
  8 32  1  0
  8 33  1  0
  8 34  1  0
  9 10  1  0
  9 35  1  0
  9 36  1  0
 10 11  1  0
 10 37  1  0
 10 38  1  0
 11 12  1  0
 11 39  1  6
 13 12  1  1
 13 20  1  0
 13 28  1  0
 13 14  1  0
 14 22  1  0
 14 15  1  0
 14 40  1  6
 15 16  1  0
 15 17  1  0
 15 41  1  1
 16 42  1  0
 17 18  1  0
 17 43  1  0
 17 44  1  0
 18 19  1  0
 18 20  1  0
 18 45  1  1
 19 46  1  0
 20 21  1  6
 20 22  1  0
 21 47  1  0
 21 48  1  0
 21 49  1  0
 22 23  1  0
 22 50  1  6
 23 24  1  0
 23 25  1  0
 23 51  1  6
 24 52  1  0
 25 26  1  0
 25 53  1  0
 25 54  1  0
 26 27  1  6
 26 28  1  0
 27 55  1  0
 27 56  1  0
 27 57  1  0
 28 58  1  6
M  END
>  <i_m_ct_stereo_status>  (163) 
1

>  <s_m_source_file>  (163) 
/var/tmp/pbs.5076255.sched01/tmpguyree9i/45_f3p7e6s.sdf

>  <i_m_source_file_index>  (163) 
24

>  <i_lp_mmshare_version>  (163) 
48012

>  <i_f3d_flags>  (163) 
0

>  <s_epik_input>  (163) 
Tz1DMUMoPVtDSDJdKVtDQEBdKFtDSDNdKShbQ0BASF0yMylbQ0gyXVtDQEhdKFtPSF0pW0NAQEhdKFtDQF00KFtDSDNdKVtDQEhdKFtPSF0pW0NIMl1bQ0BASF01W09IXSlbQ0BASF01W0NAXTM0T1tDQEBIXShbQ0BdMTI2KVtDSDJdW0NIMl1bQ0BASF02T1tDSDNd

>  <s_epik_cmdline>  (163) 
J2VwaWtfcHl0aG9uJywgJy1waHQnLCAnMi4wJywgJy1waCcsICc3LjAnLCAnLXRuJywgJzgnLCAnLW1hJywgJzIwMCcsICctaW1hZScsICc8aW5maWxlLm1hZT4nLCAnLW9tYWUnLCAnPG91dGZpbGUubWFlPic=

>  <r_lp_tautomer_probability>  (163) 
1

>  <r_epik_Ionization_Penalty>  (163) 
4.35516e-07

>  <r_epik_Ionization_Penalty_Charging>  (163) 
0

>  <r_epik_Ionization_Penalty_Neutral>  (163) 
4.35516e-07

>  <r_epik_State_Penalty>  (163) 
-0

>  <r_epik_Charging_Adjusted_Penalty>  (163) 
0

>  <i_epik_Tot_Q>  (163) 
0

>  <i_epik_Tot_abs_Q>  (163) 
0

>  <s_lp_Force_Field>  (163) 
OPLS3e

>  <r_lp_Energy>  (163) 
69.1059

>  <b_lp_Chiralities_Consistent>  (163) 
1

>  <s_lp_Variant>  (163) 
47:0-1

>  <s_i_glide_gridfile>  (163) 
pfpi4k_grid

>  <i_i_glide_lignum>  (163) 
24

>  <i_i_glide_rotatable_bonds>  (163) 
4

>  <r_i_docking_score>  (163) 
-2.54314

>  <r_i_glide_ligand_efficiency>  (163) 
-0.0908263

>  <r_i_glide_ligand_efficiency_sa>  (163) 
-0.275802

>  <r_i_glide_ligand_efficiency_ln>  (163) 
-0.587031

>  <r_i_glide_gscore>  (163) 
-2.54314

>  <r_i_glide_lipo>  (163) 
-0.161675

>  <r_i_glide_hbond>  (163) 
-0.150755

>  <r_i_glide_metal>  (163) 
-0

>  <r_i_glide_rewards>  (163) 
-0.746795

>  <r_i_glide_evdw>  (163) 
-16.5275

>  <r_i_glide_ecoul>  (163) 
-4.38357

>  <r_i_glide_erotb>  (163) 
0

>  <r_i_glide_esite>  (163) 
0

>  <r_i_glide_emodel>  (163) 
-15.9491

>  <r_i_glide_energy>  (163) 
-20.9111

>  <r_i_glide_einternal>  (163) 
14.9574

>  <r_i_glide_intrahb_reward>  (163) 
-0

>  <i_i_glide_confnum>  (163) 
1

>  <i_i_glide_posenum>  (163) 
6

>  <r_i_glide_eff_state_penalty>  (163) 
0

>  <ligand_id>  (163) 
47

>  <original_smiles>  (163) 
C=C1C(=O)C23C(OC)CCC2OC24C5C(O)CC(O)C2(C)C5C(O)CC1(C)C34

>  <smiles>  (163) 
[H]OC1([H])C([H])([H])C([H])(O[H])C2(C([H])([H])[H])C3([H])C([H])(O[H])C([H])([H])C4(C([H])([H])[H])C(=C([H])[H])C(=O)C56C([H])(OC([H])([H])[H])C([H])([H])C([H])([H])C5([H])OC2(C13[H])C46[H]

$$$$
47:0:1
     RDKit          3D

 58 63  0  0  1  0  0  0  0  0999 V2000
    6.9457   -4.8843    1.6478 C   0  0  0  0  0  0  0  0  0  0  0  0
    5.6417   -4.7590    1.9369 C   0  0  0  0  0  0  0  0  0  0  0  0
    5.0913   -5.1087    3.2550 C   0  0  0  0  0  0  0  0  0  0  0  0
    5.7130   -5.4932    4.2450 O   0  0  0  0  0  0  0  0  0  0  0  0
    3.5713   -4.9198    3.2176 C   0  0  1  0  0  0  0  0  0  0  0  0
    2.8093   -6.2611    3.2869 C   0  0  1  0  0  0  0  0  0  0  0  0
    3.4504   -7.3178    2.5777 O   0  0  0  0  0  0  0  0  0  0  0  0
    2.6882   -8.5111    2.4594 C   0  0  0  0  0  0  0  0  0  0  0  0
    2.7015   -6.5453    4.8153 C   0  0  0  0  0  0  0  0  0  0  0  0
    2.9115   -5.1940    5.5424 C   0  0  0  0  0  0  0  0  0  0  0  0
    2.8924   -4.2151    4.3659 C   0  0  1  0  0  0  0  0  0  0  0  0
    3.4206   -2.9115    4.3701 O   0  0  0  0  0  0  0  0  0  0  0  0
    3.5466   -2.5290    2.9836 C   0  0  2  0  0  0  0  0  0  0  0  0
    4.7568   -1.5736    2.8625 C   0  0  2  0  0  0  0  0  0  0  0  0
    5.0342   -0.6427    4.0461 C   0  0  1  0  0  0  0  0  0  0  0  0
    6.1680    0.1530    3.7608 O   0  0  0  0  0  0  0  0  0  0  0  0
    3.8299    0.2664    4.3641 C   0  0  0  0  0  0  0  0  0  0  0  0
    2.5101   -0.2503    3.7439 C   0  0  1  0  0  0  0  0  0  0  0  0
    1.7399    0.8692    3.3455 O   0  0  0  0  0  0  0  0  0  0  0  0
    2.7240   -1.2700    2.5843 C   0  0  2  0  0  0  0  0  0  0  0  0
    1.3704   -1.5070    1.9043 C   0  0  0  0  0  0  0  0  0  0  0  0
    3.9585   -0.9855    1.6816 C   0  0  2  0  0  0  0  0  0  0  0  0
    4.1171   -1.6305    0.2869 C   0  0  1  0  0  0  0  0  0  0  0  0
    4.7305   -0.6839   -0.5660 O   0  0  0  0  0  0  0  0  0  0  0  0
    5.0219   -2.8843    0.2592 C   0  0  0  0  0  0  0  0  0  0  0  0
    4.5404   -4.1242    1.0855 C   0  0  1  0  0  0  0  0  0  0  0  0
    4.0309   -5.1727    0.0721 C   0  0  0  0  0  0  0  0  0  0  0  0
    3.4195   -3.8548    2.1402 C   0  0  1  0  0  0  0  0  0  0  0  0
    7.3461   -4.5680    0.6998 H   0  0  0  0  0  0  0  0  0  0  0  0
    7.6380   -5.2958    2.3652 H   0  0  0  0  0  0  0  0  0  0  0  0
    1.8098   -6.1113    2.8755 H   0  0  0  0  0  0  0  0  0  0  0  0
    3.2542   -9.2558    1.8961 H   0  0  0  0  0  0  0  0  0  0  0  0
    1.7545   -8.3308    1.9267 H   0  0  0  0  0  0  0  0  0  0  0  0
    2.4611   -8.9396    3.4354 H   0  0  0  0  0  0  0  0  0  0  0  0
    1.7364   -6.9965    5.0510 H   0  0  0  0  0  0  0  0  0  0  0  0
    3.4651   -7.2538    5.1326 H   0  0  0  0  0  0  0  0  0  0  0  0
    2.1296   -4.9927    6.2757 H   0  0  0  0  0  0  0  0  0  0  0  0
    3.8665   -5.1825    6.0663 H   0  0  0  0  0  0  0  0  0  0  0  0
    1.8387   -4.0675    4.1164 H   0  0  0  0  0  0  0  0  0  0  0  0
    5.6775   -2.0833    2.5816 H   0  0  0  0  0  0  0  0  0  0  0  0
    5.2801   -1.2393    4.9297 H   0  0  0  0  0  0  0  0  0  0  0  0
    6.8533   -0.3916    3.4123 H   0  0  0  0  0  0  0  0  0  0  0  0
    3.7173    0.3756    5.4440 H   0  0  0  0  0  0  0  0  0  0  0  0
    4.0384    1.2713    3.9907 H   0  0  0  0  0  0  0  0  0  0  0  0
    1.9463   -0.7547    4.5257 H   0  0  0  0  0  0  0  0  0  0  0  0
    2.1626    1.2927    2.6130 H   0  0  0  0  0  0  0  0  0  0  0  0
    0.9656   -0.5910    1.4687 H   0  0  0  0  0  0  0  0  0  0  0  0
    0.6436   -1.9114    2.6094 H   0  0  0  0  0  0  0  0  0  0  0  0
    1.4456   -2.2159    1.0837 H   0  0  0  0  0  0  0  0  0  0  0  0
    4.1052    0.0958    1.6252 H   0  0  0  0  0  0  0  0  0  0  0  0
    3.1543   -1.8600   -0.1671 H   0  0  0  0  0  0  0  0  0  0  0  0
    4.1592    0.0662   -0.6445 H   0  0  0  0  0  0  0  0  0  0  0  0
    5.1352   -3.1800   -0.7849 H   0  0  0  0  0  0  0  0  0  0  0  0
    6.0284   -2.5833    0.5483 H   0  0  0  0  0  0  0  0  0  0  0  0
    3.2176   -4.7645   -0.5313 H   0  0  0  0  0  0  0  0  0  0  0  0
    3.6574   -6.0742    0.5540 H   0  0  0  0  0  0  0  0  0  0  0  0
    4.8286   -5.4844   -0.6041 H   0  0  0  0  0  0  0  0  0  0  0  0
    2.4333   -3.9647    1.6934 H   0  0  0  0  0  0  0  0  0  0  0  0
  1  2  2  0
  1 29  1  0
  1 30  1  0
  2 26  1  0
  2  3  1  0
  3  4  2  0
  5  3  1  1
  5 11  1  0
  5 28  1  0
  5  6  1  0
  6  7  1  0
  6  9  1  0
  6 31  1  6
  7  8  1  0
  8 32  1  0
  8 33  1  0
  8 34  1  0
  9 10  1  0
  9 35  1  0
  9 36  1  0
 10 11  1  0
 10 37  1  0
 10 38  1  0
 11 12  1  0
 11 39  1  6
 13 12  1  1
 13 20  1  0
 13 28  1  0
 13 14  1  0
 14 22  1  0
 14 15  1  0
 14 40  1  6
 15 16  1  0
 15 17  1  0
 15 41  1  1
 16 42  1  0
 17 18  1  0
 17 43  1  0
 17 44  1  0
 18 19  1  0
 18 20  1  0
 18 45  1  1
 19 46  1  0
 20 21  1  6
 20 22  1  0
 21 47  1  0
 21 48  1  0
 21 49  1  0
 22 23  1  0
 22 50  1  6
 23 24  1  0
 23 25  1  0
 23 51  1  6
 24 52  1  0
 25 26  1  0
 25 53  1  0
 25 54  1  0
 26 27  1  6
 26 28  1  0
 27 55  1  0
 27 56  1  0
 27 57  1  0
 28 58  1  6
M  END
>  <i_m_ct_stereo_status>  (164) 
1

>  <s_m_source_file>  (164) 
/var/tmp/pbs.5076255.sched01/tmpguyree9i/45_f3p7e6s.sdf

>  <i_m_source_file_index>  (164) 
24

>  <i_lp_mmshare_version>  (164) 
48012

>  <i_f3d_flags>  (164) 
0

>  <s_epik_input>  (164) 
Tz1DMUMoPVtDSDJdKVtDQEBdKFtDSDNdKShbQ0BASF0yMylbQ0gyXVtDQEhdKFtPSF0pW0NAQEhdKFtDQF00KFtDSDNdKVtDQEhdKFtPSF0pW0NIMl1bQ0BASF01W09IXSlbQ0BASF01W0NAXTM0T1tDQEBIXShbQ0BdMTI2KVtDSDJdW0NIMl1bQ0BASF02T1tDSDNd

>  <s_epik_cmdline>  (164) 
J2VwaWtfcHl0aG9uJywgJy1waHQnLCAnMi4wJywgJy1waCcsICc3LjAnLCAnLXRuJywgJzgnLCAnLW1hJywgJzIwMCcsICctaW1hZScsICc8aW5maWxlLm1hZT4nLCAnLW9tYWUnLCAnPG91dGZpbGUubWFlPic=

>  <r_lp_tautomer_probability>  (164) 
1

>  <r_epik_Ionization_Penalty>  (164) 
4.35516e-07

>  <r_epik_Ionization_Penalty_Charging>  (164) 
0

>  <r_epik_Ionization_Penalty_Neutral>  (164) 
4.35516e-07

>  <r_epik_State_Penalty>  (164) 
-0

>  <r_epik_Charging_Adjusted_Penalty>  (164) 
0

>  <i_epik_Tot_Q>  (164) 
0

>  <i_epik_Tot_abs_Q>  (164) 
0

>  <s_lp_Force_Field>  (164) 
OPLS3e

>  <r_lp_Energy>  (164) 
69.1059

>  <b_lp_Chiralities_Consistent>  (164) 
1

>  <s_lp_Variant>  (164) 
47:0-1

>  <s_i_glide_gridfile>  (164) 
pfpi4k_grid

>  <i_i_glide_lignum>  (164) 
24

>  <i_i_glide_rotatable_bonds>  (164) 
4

>  <r_i_docking_score>  (164) 
-2.29092

>  <r_i_glide_ligand_efficiency>  (164) 
-0.0818184

>  <r_i_glide_ligand_efficiency_sa>  (164) 
-0.248449

>  <r_i_glide_ligand_efficiency_ln>  (164) 
-0.528811

>  <r_i_glide_gscore>  (164) 
-2.29092

>  <r_i_glide_lipo>  (164) 
-0.332051

>  <r_i_glide_hbond>  (164) 
-0.00407219

>  <r_i_glide_metal>  (164) 
-0

>  <r_i_glide_rewards>  (164) 
-0.751479

>  <r_i_glide_evdw>  (164) 
-16.1525

>  <r_i_glide_ecoul>  (164) 
-2.63791

>  <r_i_glide_erotb>  (164) 
0

>  <r_i_glide_esite>  (164) 
0

>  <r_i_glide_emodel>  (164) 
-20.9817

>  <r_i_glide_energy>  (164) 
-18.7905

>  <r_i_glide_einternal>  (164) 
0.846541

>  <r_i_glide_intrahb_reward>  (164) 
-0

>  <i_i_glide_confnum>  (164) 
2

>  <i_i_glide_posenum>  (164) 
8

>  <r_i_glide_eff_state_penalty>  (164) 
0

>  <ligand_id>  (164) 
47

>  <original_smiles>  (164) 
C=C1C(=O)C23C(OC)CCC2OC24C5C(O)CC(O)C2(C)C5C(O)CC1(C)C34

>  <smiles>  (164) 
[H]OC1([H])C([H])([H])C([H])(O[H])C2(C([H])([H])[H])C3([H])C([H])(O[H])C([H])([H])C4(C([H])([H])[H])C(=C([H])[H])C(=O)C56C([H])(OC([H])([H])[H])C([H])([H])C([H])([H])C5([H])OC2(C13[H])C46[H]

$$$$
47:0:2
     RDKit          3D

 58 63  0  0  1  0  0  0  0  0999 V2000
    6.2904   -5.0746    1.9710 C   0  0  0  0  0  0  0  0  0  0  0  0
    5.0524   -4.8288    2.4563 C   0  0  0  0  0  0  0  0  0  0  0  0
    4.7438   -5.0171    3.8900 C   0  0  0  0  0  0  0  0  0  0  0  0
    5.4939   -5.3348    4.7836 O   0  0  0  0  0  0  0  0  0  0  0  0
    3.2406   -4.7354    4.0841 C   0  0  1  0  0  0  0  0  0  0  0  0
    2.4698   -6.0224    4.4486 C   0  0  1  0  0  0  0  0  0  0  0  0
    2.8311   -7.1979    3.7143 O   0  0  0  0  0  0  0  0  0  0  0  0
    3.5287   -8.2394    4.3932 C   0  0  0  0  0  0  0  0  0  0  0  0
    2.5309   -6.1068    6.0169 C   0  0  0  0  0  0  0  0  0  0  0  0
    2.9270   -4.6982    6.5153 C   0  0  0  0  0  0  0  0  0  0  0  0
    2.7865   -3.8686    5.2397 C   0  0  1  0  0  0  0  0  0  0  0  0
    3.3810   -2.6132    5.0274 O   0  0  0  0  0  0  0  0  0  0  0  0
    3.2957   -2.3776    3.5992 C   0  0  2  0  0  0  0  0  0  0  0  0
    4.5311   -1.5250    3.1974 C   0  0  2  0  0  0  0  0  0  0  0  0
    5.0586   -0.5298    4.2285 C   0  0  1  0  0  0  0  0  0  0  0  0
    6.1884    0.1458    3.7507 O   0  0  0  0  0  0  0  0  0  0  0  0
    3.9782    0.4980    4.6428 C   0  0  0  0  0  0  0  0  0  0  0  0
    2.5393    0.0289    4.2995 C   0  0  1  0  0  0  0  0  0  0  0  0
    1.7887    1.1675    3.9174 O   0  0  0  0  0  0  0  0  0  0  0  0
    2.4918   -1.0943    3.2267 C   0  0  2  0  0  0  0  0  0  0  0  0
    1.0263   -1.2945    2.8007 C   0  0  0  0  0  0  0  0  0  0  0  0
    3.5718   -0.9879    2.1050 C   0  0  2  0  0  0  0  0  0  0  0  0
    3.4539   -1.7722    0.7850 C   0  0  1  0  0  0  0  0  0  0  0  0
    3.9250   -0.9727   -0.2717 O   0  0  0  0  0  0  0  0  0  0  0  0
    4.2719   -3.0825    0.7259 C   0  0  0  0  0  0  0  0  0  0  0  0
    3.8675   -4.2060    1.7383 C   0  0  1  0  0  0  0  0  0  0  0  0
    3.1289   -5.2977    0.9260 C   0  0  0  0  0  0  0  0  0  0  0  0
    2.9551   -3.7626    2.9343 C   0  0  1  0  0  0  0  0  0  0  0  0
    6.5372   -4.8815    0.9417 H   0  0  0  0  0  0  0  0  0  0  0  0
    7.0650   -5.4680    2.6010 H   0  0  0  0  0  0  0  0  0  0  0  0
    1.4356   -5.8474    4.1562 H   0  0  0  0  0  0  0  0  0  0  0  0
    3.7974   -9.0380    3.7386 H   0  0  0  0  0  0  0  0  0  0  0  0
    2.8915   -8.6383    5.1992 H   0  0  0  0  0  0  0  0  0  0  0  0
    4.4421   -7.8449    4.8678 H   0  0  0  0  0  0  0  0  0  0  0  0
    1.5526   -6.4098    6.4151 H   0  0  0  0  0  0  0  0  0  0  0  0
    3.2890   -6.8008    6.3783 H   0  0  0  0  0  0  0  0  0  0  0  0
    2.3182   -4.3367    7.3504 H   0  0  0  0  0  0  0  0  0  0  0  0
    3.9613   -4.7176    6.8450 H   0  0  0  0  0  0  0  0  0  0  0  0
    1.7185   -3.6629    5.1272 H   0  0  0  0  0  0  0  0  0  0  0  0
    5.3606   -2.1338    2.8154 H   0  0  0  0  0  0  0  0  0  0  0  0
    5.3940   -1.0672    5.1209 H   0  0  0  0  0  0  0  0  0  0  0  0
    6.7805   -0.4717    3.3408 H   0  0  0  0  0  0  0  0  0  0  0  0
    4.0556    0.7147    5.7099 H   0  0  0  0  0  0  0  0  0  0  0  0
    4.1787    1.4426    4.1351 H   0  0  0  0  0  0  0  0  0  0  0  0
    2.0897   -0.3621    5.2087 H   0  0  0  0  0  0  0  0  0  0  0  0
    2.1341    1.5051    3.1082 H   0  0  0  0  0  0  0  0  0  0  0  0
    0.6087   -0.3972    2.3387 H   0  0  0  0  0  0  0  0  0  0  0  0
    0.4074   -1.5784    3.6538 H   0  0  0  0  0  0  0  0  0  0  0  0
    0.9334   -2.0807    2.0550 H   0  0  0  0  0  0  0  0  0  0  0  0
    3.7743    0.0789    1.9113 H   0  0  0  0  0  0  0  0  0  0  0  0
    2.4216   -1.9862    0.5196 H   0  0  0  0  0  0  0  0  0  0  0  0
    3.1710   -0.5902   -0.6948 H   0  0  0  0  0  0  0  0  0  0  0  0
    4.1865   -3.4762   -0.2908 H   0  0  0  0  0  0  0  0  0  0  0  0
    5.3287   -2.8312    0.8126 H   0  0  0  0  0  0  0  0  0  0  0  0
    2.2513   -4.8835    0.4243 H   0  0  0  0  0  0  0  0  0  0  0  0
    2.7898   -6.1198    1.5552 H   0  0  0  0  0  0  0  0  0  0  0  0
    3.7853   -5.7225    0.1628 H   0  0  0  0  0  0  0  0  0  0  0  0
    1.9027   -3.8465    2.6690 H   0  0  0  0  0  0  0  0  0  0  0  0
  1  2  2  0
  1 29  1  0
  1 30  1  0
  2 26  1  0
  2  3  1  0
  3  4  2  0
  5  3  1  1
  5 11  1  0
  5 28  1  0
  5  6  1  0
  6  7  1  0
  6  9  1  0
  6 31  1  1
  7  8  1  0
  8 32  1  0
  8 33  1  0
  8 34  1  0
  9 10  1  0
  9 35  1  0
  9 36  1  0
 10 11  1  0
 10 37  1  0
 10 38  1  0
 11 12  1  0
 11 39  1  6
 13 12  1  1
 13 20  1  0
 13 28  1  0
 13 14  1  0
 14 22  1  0
 14 15  1  0
 14 40  1  6
 15 16  1  0
 15 17  1  0
 15 41  1  1
 16 42  1  0
 17 18  1  0
 17 43  1  0
 17 44  1  0
 18 19  1  0
 18 20  1  0
 18 45  1  1
 19 46  1  0
 20 21  1  6
 20 22  1  0
 21 47  1  0
 21 48  1  0
 21 49  1  0
 22 23  1  0
 22 50  1  6
 23 24  1  0
 23 25  1  0
 23 51  1  6
 24 52  1  0
 25 26  1  0
 25 53  1  0
 25 54  1  0
 26 27  1  6
 26 28  1  0
 27 55  1  0
 27 56  1  0
 27 57  1  0
 28 58  1  6
M  END
>  <i_m_ct_stereo_status>  (165) 
1

>  <s_m_source_file>  (165) 
/var/tmp/pbs.5076255.sched01/tmpguyree9i/45_f3p7e6s.sdf

>  <i_m_source_file_index>  (165) 
24

>  <i_lp_mmshare_version>  (165) 
48012

>  <i_f3d_flags>  (165) 
0

>  <s_epik_input>  (165) 
Tz1DMUMoPVtDSDJdKVtDQEBdKFtDSDNdKShbQ0BASF0yMylbQ0gyXVtDQEhdKFtPSF0pW0NAQEhdKFtDQF00KFtDSDNdKVtDQEhdKFtPSF0pW0NIMl1bQ0BASF01W09IXSlbQ0BASF01W0NAXTM0T1tDQEBIXShbQ0BdMTI2KVtDSDJdW0NIMl1bQ0BASF02T1tDSDNd

>  <s_epik_cmdline>  (165) 
J2VwaWtfcHl0aG9uJywgJy1waHQnLCAnMi4wJywgJy1waCcsICc3LjAnLCAnLXRuJywgJzgnLCAnLW1hJywgJzIwMCcsICctaW1hZScsICc8aW5maWxlLm1hZT4nLCAnLW9tYWUnLCAnPG91dGZpbGUubWFlPic=

>  <r_lp_tautomer_probability>  (165) 
1

>  <r_epik_Ionization_Penalty>  (165) 
4.35516e-07

>  <r_epik_Ionization_Penalty_Charging>  (165) 
0

>  <r_epik_Ionization_Penalty_Neutral>  (165) 
4.35516e-07

>  <r_epik_State_Penalty>  (165) 
-0

>  <r_epik_Charging_Adjusted_Penalty>  (165) 
0

>  <i_epik_Tot_Q>  (165) 
0

>  <i_epik_Tot_abs_Q>  (165) 
0

>  <s_lp_Force_Field>  (165) 
OPLS3e

>  <r_lp_Energy>  (165) 
69.1059

>  <b_lp_Chiralities_Consistent>  (165) 
1

>  <s_lp_Variant>  (165) 
47:0-1

>  <s_i_glide_gridfile>  (165) 
pfpi4k_grid

>  <i_i_glide_lignum>  (165) 
24

>  <i_i_glide_rotatable_bonds>  (165) 
4

>  <r_i_docking_score>  (165) 
-2.13861

>  <r_i_glide_ligand_efficiency>  (165) 
-0.0763789

>  <r_i_glide_ligand_efficiency_sa>  (165) 
-0.231931

>  <r_i_glide_ligand_efficiency_ln>  (165) 
-0.493654

>  <r_i_glide_gscore>  (165) 
-2.13861

>  <r_i_glide_lipo>  (165) 
-0.211492

>  <r_i_glide_hbond>  (165) 
0

>  <r_i_glide_metal>  (165) 
-0

>  <r_i_glide_rewards>  (165) 
-0.748682

>  <r_i_glide_evdw>  (165) 
-14.3687

>  <r_i_glide_ecoul>  (165) 
-3.06665

>  <r_i_glide_erotb>  (165) 
0

>  <r_i_glide_esite>  (165) 
0

>  <r_i_glide_emodel>  (165) 
-11.6289

>  <r_i_glide_energy>  (165) 
-17.4354

>  <r_i_glide_einternal>  (165) 
15.4954

>  <r_i_glide_intrahb_reward>  (165) 
-0

>  <i_i_glide_confnum>  (165) 
1

>  <i_i_glide_posenum>  (165) 
9

>  <r_i_glide_eff_state_penalty>  (165) 
0

>  <ligand_id>  (165) 
47

>  <original_smiles>  (165) 
C=C1C(=O)C23C(OC)CCC2OC24C5C(O)CC(O)C2(C)C5C(O)CC1(C)C34

>  <smiles>  (165) 
[H]OC1([H])C([H])([H])C([H])(O[H])C2(C([H])([H])[H])C3([H])C([H])(O[H])C([H])([H])C4(C([H])([H])[H])C(=C([H])[H])C(=O)C56C([H])(OC([H])([H])[H])C([H])([H])C([H])([H])C5([H])OC2(C13[H])C46[H]

$$$$
48:0:0
     RDKit          3D

 32 35  0  0  1  0  0  0  0  0999 V2000
    3.0613   -2.2462   -3.5020 C   0  0  0  0  0  0  0  0  0  0  0  0
    2.6128   -2.7881   -2.2869 C   0  0  0  0  0  0  0  0  0  0  0  0
    3.5348   -3.4546   -1.4539 C   0  0  0  0  0  0  0  0  0  0  0  0
    3.0922   -4.0567   -0.1377 C   0  0  0  0  0  0  0  0  0  0  0  0
    3.5481   -3.2582    0.9480 O   0  0  0  0  0  0  0  0  0  0  0  0
    3.1053   -3.5139    2.2280 C   0  0  0  0  0  0  0  0  0  0  0  0
    3.6406   -2.6842    3.2398 C   0  0  0  0  0  0  0  0  0  0  0  0
    3.2463   -2.8612    4.5401 C   0  0  0  0  0  0  0  0  0  0  0  0
    2.3023   -3.8743    4.8181 C   0  0  0  0  0  0  0  0  0  0  0  0
    1.7139   -4.3019    5.9296 N   0  0  0  0  0  0  0  0  0  0  0  0
    0.8829   -5.3419    5.5704 N   0  0  0  0  0  0  0  0  0  0  0  0
    0.9530   -5.5412    4.2481 C   0  0  0  0  0  0  0  0  0  0  0  0
    0.1690   -6.5760    3.5575 C   0  0  0  0  0  0  0  0  0  0  0  0
   -0.6287   -7.5326    4.1453 C   0  0  0  0  0  0  0  0  0  0  0  0
   -1.3891   -8.5831    2.9799 S   0  0  0  0  0  0  0  0  0  0  0  0
   -0.5858   -7.6818    1.7141 C   0  0  0  0  0  0  0  0  0  0  0  0
    0.1469   -6.6610    2.1547 N   0  0  0  0  0  0  0  0  0  0  0  0
    1.8449   -4.6361    3.7231 N   0  0  0  0  0  0  0  0  0  0  0  0
    2.2195   -4.4985    2.4143 N   0  0  0  0  0  0  0  0  0  0  0  0
    4.8721   -3.5569   -1.8796 C   0  0  0  0  0  0  0  0  0  0  0  0
    5.2127   -2.9933   -3.1198 C   0  0  0  0  0  0  0  0  0  0  0  0
    4.3370   -2.3448   -3.9215 N   0  0  0  0  0  0  0  0  0  0  0  0
    2.3805   -1.7186   -4.1547 H   0  0  0  0  0  0  0  0  0  0  0  0
    1.5798   -2.6800   -1.9992 H   0  0  0  0  0  0  0  0  0  0  0  0
    2.0057   -4.1462   -0.1489 H   0  0  0  0  0  0  0  0  0  0  0  0
    3.5051   -5.0628   -0.0581 H   0  0  0  0  0  0  0  0  0  0  0  0
    4.3587   -1.9128    2.9901 H   0  0  0  0  0  0  0  0  0  0  0  0
    3.6359   -2.2531    5.3476 H   0  0  0  0  0  0  0  0  0  0  0  0
   -0.8017   -7.6933    5.2001 H   0  0  0  0  0  0  0  0  0  0  0  0
   -0.6824   -7.8581    0.6564 H   0  0  0  0  0  0  0  0  0  0  0  0
    5.6092   -4.0801   -1.2866 H   0  0  0  0  0  0  0  0  0  0  0  0
    6.2263   -3.0613   -3.4850 H   0  0  0  0  0  0  0  0  0  0  0  0
  1 22  2  0
  1  2  1  0
  1 23  1  0
  2  3  2  0
  2 24  1  0
  3  4  1  0
  3 20  1  0
  4  5  1  0
  4 25  1  0
  4 26  1  0
  5  6  1  0
  6 19  2  0
  6  7  1  0
  7  8  2  0
  7 27  1  0
  8  9  1  0
  8 28  1  0
  9 18  1  0
  9 10  2  0
 10 11  1  0
 11 12  2  0
 12 13  1  0
 12 18  1  0
 13 17  1  0
 13 14  2  0
 14 15  1  0
 14 29  1  0
 15 16  1  0
 16 17  2  0
 16 30  1  0
 18 19  1  0
 20 21  2  0
 20 31  1  0
 21 22  1  0
 21 32  1  0
M  END
>  <i_m_ct_stereo_status>  (166) 
1

>  <s_m_source_file>  (166) 
/var/tmp/pbs.5076255.sched01/tmpguyree9i/45_f3p7e6s.sdf

>  <i_m_source_file_index>  (166) 
25

>  <i_lp_mmshare_version>  (166) 
48012

>  <i_f3d_flags>  (166) 
0

>  <s_epik_input>  (166) 
W2NIXTFbY0hdbltjSF1bY0hdYzFbQ0gyXU9jKFtjSF1bY0hdMilubihjMjMpYyhubjMpLWM0W2NIXXNbY0hdbjQ=

>  <s_epik_cmdline>  (166) 
J2VwaWtfcHl0aG9uJywgJy1waHQnLCAnMi4wJywgJy1waCcsICc3LjAnLCAnLXRuJywgJzgnLCAnLW1hJywgJzIwMCcsICctaW1hZScsICc8aW5maWxlLm1hZT4nLCAnLW9tYWUnLCAnPG91dGZpbGUubWFlPic=

>  <r_epik_Ionization_Penalty>  (166) 
0.0798909

>  <r_epik_Ionization_Penalty_Charging>  (166) 
0

>  <r_epik_Ionization_Penalty_Neutral>  (166) 
0.0798909

>  <r_epik_State_Penalty>  (166) 
0.0707179

>  <r_epik_Charging_Adjusted_Penalty>  (166) 
0.0707179

>  <i_epik_Tot_Q>  (166) 
0

>  <i_epik_Tot_abs_Q>  (166) 
0

>  <s_lp_Force_Field>  (166) 
OPLS3e

>  <r_lp_Energy>  (166) 
30.0764

>  <b_lp_Chiralities_Consistent>  (166) 
1

>  <s_lp_Variant>  (166) 
48:0-1

>  <s_i_glide_gridfile>  (166) 
pfpi4k_grid

>  <i_i_glide_lignum>  (166) 
25

>  <i_i_glide_rotatable_bonds>  (166) 
4

>  <r_i_docking_score>  (166) 
-3.48587

>  <r_i_glide_ligand_efficiency>  (166) 
-0.158449

>  <r_i_glide_ligand_efficiency_sa>  (166) 
-0.44398

>  <r_i_glide_ligand_efficiency_ln>  (166) 
-0.852074

>  <r_i_glide_gscore>  (166) 
-3.48587

>  <r_i_glide_lipo>  (166) 
-0.435118

>  <r_i_glide_hbond>  (166) 
-0.264504

>  <r_i_glide_metal>  (166) 
-0

>  <r_i_glide_rewards>  (166) 
-1.29317

>  <r_i_glide_evdw>  (166) 
-28.3159

>  <r_i_glide_ecoul>  (166) 
-5.53957

>  <r_i_glide_erotb>  (166) 
0.769586

>  <r_i_glide_esite>  (166) 
-0.015932

>  <r_i_glide_emodel>  (166) 
-41.5599

>  <r_i_glide_energy>  (166) 
-33.8555

>  <r_i_glide_einternal>  (166) 
0.659116

>  <r_i_glide_intrahb_reward>  (166) 
-0

>  <i_i_glide_confnum>  (166) 
1

>  <i_i_glide_posenum>  (166) 
2

>  <r_i_glide_eff_state_penalty>  (166) 
0

>  <ligand_id>  (166) 
48

>  <original_smiles>  (166) 
c1cc(COc2ccc3nnc(-c4cscn4)n3n2)ccn1

>  <smiles>  (166) 
[H]c1nc(-c2nnc3c([H])c([H])c(OC([H])([H])c4c([H])c([H])nc([H])c4[H])nn23)c([H])s1

$$$$
48:0:1
     RDKit          3D

 32 35  0  0  1  0  0  0  0  0999 V2000
   -1.3549   -7.8596    3.1276 C   0  0  0  0  0  0  0  0  0  0  0  0
   -0.2907   -7.7242    2.2155 C   0  0  0  0  0  0  0  0  0  0  0  0
    0.8058   -6.9161    2.5737 C   0  0  0  0  0  0  0  0  0  0  0  0
    1.9798   -6.7240    1.6375 C   0  0  0  0  0  0  0  0  0  0  0  0
    3.2114   -6.7638    2.3575 O   0  0  0  0  0  0  0  0  0  0  0  0
    4.3285   -6.1113    1.8811 C   0  0  0  0  0  0  0  0  0  0  0  0
    5.5314   -6.3381    2.5932 C   0  0  0  0  0  0  0  0  0  0  0  0
    6.6850   -5.7126    2.1909 C   0  0  0  0  0  0  0  0  0  0  0  0
    6.6198   -4.8417    1.0763 C   0  0  0  0  0  0  0  0  0  0  0  0
    7.5162   -4.0935    0.4350 N   0  0  0  0  0  0  0  0  0  0  0  0
    6.8474   -3.4511   -0.5876 N   0  0  0  0  0  0  0  0  0  0  0  0
    5.5529   -3.8013   -0.5653 C   0  0  0  0  0  0  0  0  0  0  0  0
    4.5778   -3.2854   -1.5381 C   0  0  0  0  0  0  0  0  0  0  0  0
    4.8604   -2.6318   -2.7165 C   0  0  0  0  0  0  0  0  0  0  0  0
    3.4319   -2.1853   -3.6077 S   0  0  0  0  0  0  0  0  0  0  0  0
    2.4801   -2.9396   -2.3458 C   0  0  0  0  0  0  0  0  0  0  0  0
    3.1980   -3.4535   -1.3485 N   0  0  0  0  0  0  0  0  0  0  0  0
    5.3589   -4.6896    0.4641 N   0  0  0  0  0  0  0  0  0  0  0  0
    4.1920   -5.3104    0.8232 N   0  0  0  0  0  0  0  0  0  0  0  0
    0.7722   -6.2487    3.8137 C   0  0  0  0  0  0  0  0  0  0  0  0
   -0.3399   -6.4446    4.6523 C   0  0  0  0  0  0  0  0  0  0  0  0
   -1.3927   -7.2148    4.3123 N   0  0  0  0  0  0  0  0  0  0  0  0
   -2.2012   -8.4873    2.8924 H   0  0  0  0  0  0  0  0  0  0  0  0
   -0.3090   -8.2573    1.2788 H   0  0  0  0  0  0  0  0  0  0  0  0
    1.9893   -7.5185    0.8907 H   0  0  0  0  0  0  0  0  0  0  0  0
    1.7960   -5.7833    1.1193 H   0  0  0  0  0  0  0  0  0  0  0  0
    5.5434   -7.0065    3.4482 H   0  0  0  0  0  0  0  0  0  0  0  0
    7.6298   -5.8697    2.6995 H   0  0  0  0  0  0  0  0  0  0  0  0
    5.8366   -2.3966   -3.1102 H   0  0  0  0  0  0  0  0  0  0  0  0
    1.4012   -2.9793   -2.3239 H   0  0  0  0  0  0  0  0  0  0  0  0
    1.5862   -5.6087    4.1225 H   0  0  0  0  0  0  0  0  0  0  0  0
   -0.3961   -5.9515    5.6114 H   0  0  0  0  0  0  0  0  0  0  0  0
  1 22  2  0
  1  2  1  0
  1 23  1  0
  2  3  2  0
  2 24  1  0
  3  4  1  0
  3 20  1  0
  4  5  1  0
  4 25  1  0
  4 26  1  0
  5  6  1  0
  6 19  2  0
  6  7  1  0
  7  8  2  0
  7 27  1  0
  8  9  1  0
  8 28  1  0
  9 18  1  0
  9 10  2  0
 10 11  1  0
 11 12  2  0
 12 13  1  0
 12 18  1  0
 13 17  1  0
 13 14  2  0
 14 15  1  0
 14 29  1  0
 15 16  1  0
 16 17  2  0
 16 30  1  0
 18 19  1  0
 20 21  2  0
 20 31  1  0
 21 22  1  0
 21 32  1  0
M  END
>  <i_m_ct_stereo_status>  (167) 
1

>  <s_m_source_file>  (167) 
/var/tmp/pbs.5076255.sched01/tmpguyree9i/45_f3p7e6s.sdf

>  <i_m_source_file_index>  (167) 
25

>  <i_lp_mmshare_version>  (167) 
48012

>  <i_f3d_flags>  (167) 
0

>  <s_epik_input>  (167) 
W2NIXTFbY0hdbltjSF1bY0hdYzFbQ0gyXU9jKFtjSF1bY0hdMilubihjMjMpYyhubjMpLWM0W2NIXXNbY0hdbjQ=

>  <s_epik_cmdline>  (167) 
J2VwaWtfcHl0aG9uJywgJy1waHQnLCAnMi4wJywgJy1waCcsICc3LjAnLCAnLXRuJywgJzgnLCAnLW1hJywgJzIwMCcsICctaW1hZScsICc8aW5maWxlLm1hZT4nLCAnLW9tYWUnLCAnPG91dGZpbGUubWFlPic=

>  <r_epik_Ionization_Penalty>  (167) 
0.0798909

>  <r_epik_Ionization_Penalty_Charging>  (167) 
0

>  <r_epik_Ionization_Penalty_Neutral>  (167) 
0.0798909

>  <r_epik_State_Penalty>  (167) 
0.0707179

>  <r_epik_Charging_Adjusted_Penalty>  (167) 
0.0707179

>  <i_epik_Tot_Q>  (167) 
0

>  <i_epik_Tot_abs_Q>  (167) 
0

>  <s_lp_Force_Field>  (167) 
OPLS3e

>  <r_lp_Energy>  (167) 
30.0764

>  <b_lp_Chiralities_Consistent>  (167) 
1

>  <s_lp_Variant>  (167) 
48:0-1

>  <s_i_glide_gridfile>  (167) 
pfpi4k_grid

>  <i_i_glide_lignum>  (167) 
25

>  <i_i_glide_rotatable_bonds>  (167) 
4

>  <r_i_docking_score>  (167) 
-3.11707

>  <r_i_glide_ligand_efficiency>  (167) 
-0.141685

>  <r_i_glide_ligand_efficiency_sa>  (167) 
-0.397006

>  <r_i_glide_ligand_efficiency_ln>  (167) 
-0.761925

>  <r_i_glide_gscore>  (167) 
-3.11707

>  <r_i_glide_lipo>  (167) 
-0.462232

>  <r_i_glide_hbond>  (167) 
0

>  <r_i_glide_metal>  (167) 
-0

>  <r_i_glide_rewards>  (167) 
-1.61514

>  <r_i_glide_evdw>  (167) 
-32.355

>  <r_i_glide_ecoul>  (167) 
-1.27684

>  <r_i_glide_erotb>  (167) 
0.769586

>  <r_i_glide_esite>  (167) 
0

>  <r_i_glide_emodel>  (167) 
-39.8094

>  <r_i_glide_energy>  (167) 
-33.6318

>  <r_i_glide_einternal>  (167) 
1.78431

>  <r_i_glide_intrahb_reward>  (167) 
-0

>  <i_i_glide_confnum>  (167) 
1

>  <i_i_glide_posenum>  (167) 
3

>  <r_i_glide_eff_state_penalty>  (167) 
0

>  <ligand_id>  (167) 
48

>  <original_smiles>  (167) 
c1cc(COc2ccc3nnc(-c4cscn4)n3n2)ccn1

>  <smiles>  (167) 
[H]c1nc(-c2nnc3c([H])c([H])c(OC([H])([H])c4c([H])c([H])nc([H])c4[H])nn23)c([H])s1

$$$$
48:0:2
     RDKit          3D

 32 35  0  0  1  0  0  0  0  0999 V2000
    5.3420   -2.0153   -1.6128 C   0  0  0  0  0  0  0  0  0  0  0  0
    4.2012   -1.7993   -0.8175 C   0  0  0  0  0  0  0  0  0  0  0  0
    4.3556   -1.7426    0.5818 C   0  0  0  0  0  0  0  0  0  0  0  0
    3.1608   -1.5368    1.4939 C   0  0  0  0  0  0  0  0  0  0  0  0
    2.9701   -2.6788    2.3243 O   0  0  0  0  0  0  0  0  0  0  0  0
    1.9812   -2.6779    3.2859 C   0  0  0  0  0  0  0  0  0  0  0  0
    1.9087   -3.8325    4.1008 C   0  0  0  0  0  0  0  0  0  0  0  0
    0.9598   -3.9066    5.0885 C   0  0  0  0  0  0  0  0  0  0  0  0
    0.0784   -2.8135    5.2517 C   0  0  0  0  0  0  0  0  0  0  0  0
   -0.9303   -2.5574    6.0809 N   0  0  0  0  0  0  0  0  0  0  0  0
   -1.4145   -1.3109    5.7521 N   0  0  0  0  0  0  0  0  0  0  0  0
   -0.7136   -0.8106    4.7259 C   0  0  0  0  0  0  0  0  0  0  0  0
   -0.9971    0.5116    4.1554 C   0  0  0  0  0  0  0  0  0  0  0  0
   -1.7752    1.5018    4.7140 C   0  0  0  0  0  0  0  0  0  0  0  0
   -1.8712    2.9282    3.7194 S   0  0  0  0  0  0  0  0  0  0  0  0
   -0.8177    2.1249    2.5760 C   0  0  0  0  0  0  0  0  0  0  0  0
   -0.4411    0.9029    2.9364 N   0  0  0  0  0  0  0  0  0  0  0  0
    0.2490   -1.7253    4.3693 N   0  0  0  0  0  0  0  0  0  0  0  0
    1.1849   -1.6092    3.3786 N   0  0  0  0  0  0  0  0  0  0  0  0
    5.6496   -1.9020    1.1202 C   0  0  0  0  0  0  0  0  0  0  0  0
    6.7258   -2.1118    0.2371 C   0  0  0  0  0  0  0  0  0  0  0  0
    6.5864   -2.1556   -1.1057 N   0  0  0  0  0  0  0  0  0  0  0  0
    5.2546   -2.0670   -2.6880 H   0  0  0  0  0  0  0  0  0  0  0  0
    3.2263   -1.6881   -1.2699 H   0  0  0  0  0  0  0  0  0  0  0  0
    3.3436   -0.6492    2.1013 H   0  0  0  0  0  0  0  0  0  0  0  0
    2.2691   -1.3524    0.8920 H   0  0  0  0  0  0  0  0  0  0  0  0
    2.6039   -4.6510    3.9539 H   0  0  0  0  0  0  0  0  0  0  0  0
    0.8755   -4.7705    5.7384 H   0  0  0  0  0  0  0  0  0  0  0  0
   -2.3033    1.4761    5.6553 H   0  0  0  0  0  0  0  0  0  0  0  0
   -0.4602    2.5434    1.6546 H   0  0  0  0  0  0  0  0  0  0  0  0
    5.8134   -1.8735    2.1865 H   0  0  0  0  0  0  0  0  0  0  0  0
    7.7281   -2.2403    0.6193 H   0  0  0  0  0  0  0  0  0  0  0  0
  1 22  2  0
  1  2  1  0
  1 23  1  0
  2  3  2  0
  2 24  1  0
  3  4  1  0
  3 20  1  0
  4  5  1  0
  4 25  1  0
  4 26  1  0
  5  6  1  0
  6 19  2  0
  6  7  1  0
  7  8  2  0
  7 27  1  0
  8  9  1  0
  8 28  1  0
  9 18  1  0
  9 10  2  0
 10 11  1  0
 11 12  2  0
 12 13  1  0
 12 18  1  0
 13 17  1  0
 13 14  2  0
 14 15  1  0
 14 29  1  0
 15 16  1  0
 16 17  2  0
 16 30  1  0
 18 19  1  0
 20 21  2  0
 20 31  1  0
 21 22  1  0
 21 32  1  0
M  END
>  <i_m_ct_stereo_status>  (168) 
1

>  <s_m_source_file>  (168) 
/var/tmp/pbs.5076255.sched01/tmpguyree9i/45_f3p7e6s.sdf

>  <i_m_source_file_index>  (168) 
25

>  <i_lp_mmshare_version>  (168) 
48012

>  <i_f3d_flags>  (168) 
0

>  <s_epik_input>  (168) 
W2NIXTFbY0hdbltjSF1bY0hdYzFbQ0gyXU9jKFtjSF1bY0hdMilubihjMjMpYyhubjMpLWM0W2NIXXNbY0hdbjQ=

>  <s_epik_cmdline>  (168) 
J2VwaWtfcHl0aG9uJywgJy1waHQnLCAnMi4wJywgJy1waCcsICc3LjAnLCAnLXRuJywgJzgnLCAnLW1hJywgJzIwMCcsICctaW1hZScsICc8aW5maWxlLm1hZT4nLCAnLW9tYWUnLCAnPG91dGZpbGUubWFlPic=

>  <r_epik_Ionization_Penalty>  (168) 
0.0798909

>  <r_epik_Ionization_Penalty_Charging>  (168) 
0

>  <r_epik_Ionization_Penalty_Neutral>  (168) 
0.0798909

>  <r_epik_State_Penalty>  (168) 
0.0707179

>  <r_epik_Charging_Adjusted_Penalty>  (168) 
0.0707179

>  <i_epik_Tot_Q>  (168) 
0

>  <i_epik_Tot_abs_Q>  (168) 
0

>  <s_lp_Force_Field>  (168) 
OPLS3e

>  <r_lp_Energy>  (168) 
30.0764

>  <b_lp_Chiralities_Consistent>  (168) 
1

>  <s_lp_Variant>  (168) 
48:0-1

>  <s_i_glide_gridfile>  (168) 
pfpi4k_grid

>  <i_i_glide_lignum>  (168) 
25

>  <i_i_glide_rotatable_bonds>  (168) 
4

>  <r_i_docking_score>  (168) 
-3.10329

>  <r_i_glide_ligand_efficiency>  (168) 
-0.141059

>  <r_i_glide_ligand_efficiency_sa>  (168) 
-0.395252

>  <r_i_glide_ligand_efficiency_ln>  (168) 
-0.758557

>  <r_i_glide_gscore>  (168) 
-3.10329

>  <r_i_glide_lipo>  (168) 
-0.142113

>  <r_i_glide_hbond>  (168) 
-0.16

>  <r_i_glide_metal>  (168) 
-0

>  <r_i_glide_rewards>  (168) 
-1.30386

>  <r_i_glide_evdw>  (168) 
-26.6518

>  <r_i_glide_ecoul>  (168) 
-5.31203

>  <r_i_glide_erotb>  (168) 
0.769586

>  <r_i_glide_esite>  (168) 
-0.137508

>  <r_i_glide_emodel>  (168) 
-38.5684

>  <r_i_glide_energy>  (168) 
-31.9639

>  <r_i_glide_einternal>  (168) 
1.04397

>  <r_i_glide_intrahb_reward>  (168) 
-0

>  <i_i_glide_confnum>  (168) 
1

>  <i_i_glide_posenum>  (168) 
13

>  <r_i_glide_eff_state_penalty>  (168) 
0

>  <ligand_id>  (168) 
48

>  <original_smiles>  (168) 
c1cc(COc2ccc3nnc(-c4cscn4)n3n2)ccn1

>  <smiles>  (168) 
[H]c1nc(-c2nnc3c([H])c([H])c(OC([H])([H])c4c([H])c([H])nc([H])c4[H])nn23)c([H])s1

$$$$
48:1:0
     RDKit          3D

 33 36  0  0  1  0  0  0  0  0999 V2000
    2.8885  -11.9187    4.4804 C   0  0  0  0  0  0  0  0  0  0  0  0
    3.8867  -11.8707    3.4894 C   0  0  0  0  0  0  0  0  0  0  0  0
    5.1340  -11.2847    3.7804 C   0  0  0  0  0  0  0  0  0  0  0  0
    6.1643  -11.0918    2.6779 C   0  0  0  0  0  0  0  0  0  0  0  0
    6.7898   -9.8073    2.6778 O   0  0  0  0  0  0  0  0  0  0  0  0
    6.0718   -8.6936    2.2824 C   0  0  0  0  0  0  0  0  0  0  0  0
    6.8396   -7.5807    1.8637 C   0  0  0  0  0  0  0  0  0  0  0  0
    6.2024   -6.4495    1.4200 C   0  0  0  0  0  0  0  0  0  0  0  0
    4.7822   -6.4321    1.4283 C   0  0  0  0  0  0  0  0  0  0  0  0
    3.8711   -5.5304    1.0799 N   0  0  0  0  0  0  0  0  0  0  0  0
    2.6281   -6.0857    1.3329 N   0  0  0  0  0  0  0  0  0  0  0  0
    2.7823   -7.3146    1.8344 C   0  0  0  0  0  0  0  0  0  0  0  0
    1.6702   -8.1991    2.2073 C   0  0  0  0  0  0  0  0  0  0  0  0
    1.7218   -9.5571    2.3954 C   0  0  0  0  0  0  0  0  0  0  0  0
    0.2148  -10.2412    2.8990 S   0  0  0  0  0  0  0  0  0  0  0  0
   -0.5011   -8.6451    2.7437 C   0  0  0  0  0  0  0  0  0  0  0  0
    0.3660   -7.6867    2.3939 N   0  0  0  0  0  0  0  0  0  0  0  0
    4.1342   -7.5924    1.8938 N   0  0  0  0  0  0  0  0  0  0  0  0
    4.7383   -8.7452    2.3214 N   0  0  0  0  0  0  0  0  0  0  0  0
    5.3840  -10.8360    5.0968 C   0  0  0  0  0  0  0  0  0  0  0  0
    4.3575  -10.9419    6.0611 C   0  0  0  0  0  0  0  0  0  0  0  0
    3.1573  -11.4639    5.7169 N   0  0  0  0  0  0  0  0  0  0  0  0
    1.8853  -12.2814    4.3088 H   0  0  0  0  0  0  0  0  0  0  0  0
    3.6600  -12.2194    2.4915 H   0  0  0  0  0  0  0  0  0  0  0  0
    6.9434  -11.8423    2.8172 H   0  0  0  0  0  0  0  0  0  0  0  0
    5.7420  -11.2670    1.6849 H   0  0  0  0  0  0  0  0  0  0  0  0
    7.9242   -7.6404    1.8669 H   0  0  0  0  0  0  0  0  0  0  0  0
    6.7526   -5.5891    1.0584 H   0  0  0  0  0  0  0  0  0  0  0  0
    2.5819  -10.1843    2.2344 H   0  0  0  0  0  0  0  0  0  0  0  0
   -1.5481   -8.4194    2.9101 H   0  0  0  0  0  0  0  0  0  0  0  0
    6.3365  -10.3894    5.3374 H   0  0  0  0  0  0  0  0  0  0  0  0
    4.4605  -10.6191    7.0875 H   0  0  0  0  0  0  0  0  0  0  0  0
    2.4227  -11.5766    6.4342 H   0  0  0  0  0  0  0  0  0  0  0  0
  1 22  2  0
  1  2  1  0
  1 23  1  0
  2  3  2  0
  2 24  1  0
  3  4  1  0
  3 20  1  0
  4  5  1  0
  4 25  1  0
  4 26  1  0
  5  6  1  0
  6 19  2  0
  6  7  1  0
  7  8  2  0
  7 27  1  0
  8  9  1  0
  8 28  1  0
  9 18  1  0
  9 10  2  0
 10 11  1  0
 11 12  2  0
 12 13  1  0
 12 18  1  0
 13 17  1  0
 13 14  2  0
 14 15  1  0
 14 29  1  0
 15 16  1  0
 16 17  2  0
 16 30  1  0
 18 19  1  0
 20 21  2  0
 20 31  1  0
 21 22  1  0
 21 32  1  0
 22 33  1  0
M  CHG  1  22   1
M  END
>  <i_m_ct_stereo_status>  (169) 
1

>  <s_m_source_file>  (169) 
/var/tmp/pbs.5076255.sched01/tmpguyree9i/45_f3p7e6s.sdf

>  <i_m_source_file_index>  (169) 
26

>  <i_lp_mmshare_version>  (169) 
48012

>  <i_f3d_flags>  (169) 
0

>  <s_epik_input>  (169) 
W2NIXTFbY0hdbltjSF1bY0hdYzFbQ0gyXU9jKFtjSF1bY0hdMilubihjMjMpYyhubjMpLWM0W2NIXXNbY0hdbjQ=

>  <s_epik_cmdline>  (169) 
J2VwaWtfcHl0aG9uJywgJy1waHQnLCAnMi4wJywgJy1waCcsICc3LjAnLCAnLXRuJywgJzgnLCAnLW1hJywgJzIwMCcsICctaW1hZScsICc8aW5maWxlLm1hZT4nLCAnLW9tYWUnLCAnPG91dGZpbGUubWFlPic=

>  <r_epik_Ionization_Penalty>  (169) 
1.22666

>  <r_epik_Ionization_Penalty_Charging>  (169) 
1.22666

>  <r_epik_Ionization_Penalty_Neutral>  (169) 
2.39939e-06

>  <r_epik_State_Penalty>  (169) 
1.29441

>  <r_epik_Charging_Adjusted_Penalty>  (169) 
2.52107

>  <i_epik_Tot_Q>  (169) 
1

>  <i_epik_Tot_abs_Q>  (169) 
1

>  <s_lp_Force_Field>  (169) 
OPLS3e

>  <r_lp_Energy>  (169) 
32.2532

>  <b_lp_Chiralities_Consistent>  (169) 
1

>  <s_lp_Variant>  (169) 
48:0-2

>  <s_i_glide_gridfile>  (169) 
pfpi4k_grid

>  <i_i_glide_lignum>  (169) 
26

>  <i_i_glide_rotatable_bonds>  (169) 
4

>  <r_i_docking_score>  (169) 
-3.47427

>  <r_i_glide_ligand_efficiency>  (169) 
-0.157921

>  <r_i_glide_ligand_efficiency_sa>  (169) 
-0.442502

>  <r_i_glide_ligand_efficiency_ln>  (169) 
-0.849239

>  <r_i_glide_gscore>  (169) 
-3.47427

>  <r_i_glide_lipo>  (169) 
-0.33476

>  <r_i_glide_hbond>  (169) 
-0.2

>  <r_i_glide_metal>  (169) 
-0

>  <r_i_glide_rewards>  (169) 
-1.43227

>  <r_i_glide_evdw>  (169) 
-25.0993

>  <r_i_glide_ecoul>  (169) 
-6.08029

>  <r_i_glide_erotb>  (169) 
0.765215

>  <r_i_glide_esite>  (169) 
-0.105455

>  <r_i_glide_emodel>  (169) 
-39.1084

>  <r_i_glide_energy>  (169) 
-31.1796

>  <r_i_glide_einternal>  (169) 
4.34556

>  <r_i_glide_intrahb_reward>  (169) 
-0

>  <i_i_glide_confnum>  (169) 
6

>  <i_i_glide_posenum>  (169) 
1

>  <r_i_glide_eff_state_penalty>  (169) 
0

>  <ligand_id>  (169) 
48

>  <original_smiles>  (169) 
c1cc(COc2ccc3nnc(-c4cscn4)n3n2)ccn1

>  <smiles>  (169) 
[H]c1nc(-c2nnc3c([H])c([H])c(OC([H])([H])c4c([H])c([H])[n+]([H])c([H])c4[H])nn23)c([H])s1

$$$$
48:1:1
     RDKit          3D

 33 36  0  0  1  0  0  0  0  0999 V2000
    2.7228   -3.0609   -2.9928 C   0  0  0  0  0  0  0  0  0  0  0  0
    3.5552   -2.8685   -1.8777 C   0  0  0  0  0  0  0  0  0  0  0  0
    4.2476   -1.6484   -1.7417 C   0  0  0  0  0  0  0  0  0  0  0  0
    5.1281   -1.4022   -0.5337 C   0  0  0  0  0  0  0  0  0  0  0  0
    4.5269   -0.5111    0.4071 O   0  0  0  0  0  0  0  0  0  0  0  0
    3.5874   -0.9868    1.2988 C   0  0  0  0  0  0  0  0  0  0  0  0
    2.8878   -0.0171    2.0581 C   0  0  0  0  0  0  0  0  0  0  0  0
    1.9884   -0.4279    3.0088 C   0  0  0  0  0  0  0  0  0  0  0  0
    1.7987   -1.8174    3.1965 C   0  0  0  0  0  0  0  0  0  0  0  0
    1.0326   -2.5461    4.0029 N   0  0  0  0  0  0  0  0  0  0  0  0
    1.2978   -3.8702    3.7259 N   0  0  0  0  0  0  0  0  0  0  0  0
    2.2113   -3.9541    2.7480 C   0  0  0  0  0  0  0  0  0  0  0  0
    2.6865   -5.2456    2.2113 C   0  0  0  0  0  0  0  0  0  0  0  0
    2.2976   -6.5000    2.6291 C   0  0  0  0  0  0  0  0  0  0  0  0
    3.0935   -7.7824    1.7511 S   0  0  0  0  0  0  0  0  0  0  0  0
    3.9415   -6.5547    0.8287 C   0  0  0  0  0  0  0  0  0  0  0  0
    3.6197   -5.3078    1.1645 N   0  0  0  0  0  0  0  0  0  0  0  0
    2.5568   -2.6767    2.3754 N   0  0  0  0  0  0  0  0  0  0  0  0
    3.4500   -2.3103    1.4115 N   0  0  0  0  0  0  0  0  0  0  0  0
    4.1098   -0.6589   -2.7423 C   0  0  0  0  0  0  0  0  0  0  0  0
    3.2721   -0.9116   -3.8431 C   0  0  0  0  0  0  0  0  0  0  0  0
    2.6154   -2.0899   -3.9236 N   0  0  0  0  0  0  0  0  0  0  0  0
    2.1448   -3.9582   -3.1694 H   0  0  0  0  0  0  0  0  0  0  0  0
    3.6407   -3.6388   -1.1250 H   0  0  0  0  0  0  0  0  0  0  0  0
    5.4427   -2.3458   -0.0847 H   0  0  0  0  0  0  0  0  0  0  0  0
    6.0560   -0.9475   -0.8740 H   0  0  0  0  0  0  0  0  0  0  0  0
    3.0652    1.0408    1.8970 H   0  0  0  0  0  0  0  0  0  0  0  0
    1.4345    0.2773    3.6153 H   0  0  0  0  0  0  0  0  0  0  0  0
    1.5966   -6.7482    3.4137 H   0  0  0  0  0  0  0  0  0  0  0  0
    4.6510   -6.7412    0.0342 H   0  0  0  0  0  0  0  0  0  0  0  0
    4.6100    0.2944   -2.6553 H   0  0  0  0  0  0  0  0  0  0  0  0
    3.0779   -0.2044   -4.6404 H   0  0  0  0  0  0  0  0  0  0  0  0
    2.0215   -2.2521   -4.7443 H   0  0  0  0  0  0  0  0  0  0  0  0
  1 22  2  0
  1  2  1  0
  1 23  1  0
  2  3  2  0
  2 24  1  0
  3  4  1  0
  3 20  1  0
  4  5  1  0
  4 25  1  0
  4 26  1  0
  5  6  1  0
  6 19  2  0
  6  7  1  0
  7  8  2  0
  7 27  1  0
  8  9  1  0
  8 28  1  0
  9 18  1  0
  9 10  2  0
 10 11  1  0
 11 12  2  0
 12 13  1  0
 12 18  1  0
 13 17  1  0
 13 14  2  0
 14 15  1  0
 14 29  1  0
 15 16  1  0
 16 17  2  0
 16 30  1  0
 18 19  1  0
 20 21  2  0
 20 31  1  0
 21 22  1  0
 21 32  1  0
 22 33  1  0
M  CHG  1  22   1
M  END
>  <i_m_ct_stereo_status>  (170) 
1

>  <s_m_source_file>  (170) 
/var/tmp/pbs.5076255.sched01/tmpguyree9i/45_f3p7e6s.sdf

>  <i_m_source_file_index>  (170) 
26

>  <i_lp_mmshare_version>  (170) 
48012

>  <i_f3d_flags>  (170) 
0

>  <s_epik_input>  (170) 
W2NIXTFbY0hdbltjSF1bY0hdYzFbQ0gyXU9jKFtjSF1bY0hdMilubihjMjMpYyhubjMpLWM0W2NIXXNbY0hdbjQ=

>  <s_epik_cmdline>  (170) 
J2VwaWtfcHl0aG9uJywgJy1waHQnLCAnMi4wJywgJy1waCcsICc3LjAnLCAnLXRuJywgJzgnLCAnLW1hJywgJzIwMCcsICctaW1hZScsICc8aW5maWxlLm1hZT4nLCAnLW9tYWUnLCAnPG91dGZpbGUubWFlPic=

>  <r_epik_Ionization_Penalty>  (170) 
1.22666

>  <r_epik_Ionization_Penalty_Charging>  (170) 
1.22666

>  <r_epik_Ionization_Penalty_Neutral>  (170) 
2.39939e-06

>  <r_epik_State_Penalty>  (170) 
1.29441

>  <r_epik_Charging_Adjusted_Penalty>  (170) 
2.52107

>  <i_epik_Tot_Q>  (170) 
1

>  <i_epik_Tot_abs_Q>  (170) 
1

>  <s_lp_Force_Field>  (170) 
OPLS3e

>  <r_lp_Energy>  (170) 
32.2532

>  <b_lp_Chiralities_Consistent>  (170) 
1

>  <s_lp_Variant>  (170) 
48:0-2

>  <s_i_glide_gridfile>  (170) 
pfpi4k_grid

>  <i_i_glide_lignum>  (170) 
26

>  <i_i_glide_rotatable_bonds>  (170) 
4

>  <r_i_docking_score>  (170) 
-3.27402

>  <r_i_glide_ligand_efficiency>  (170) 
-0.148819

>  <r_i_glide_ligand_efficiency_sa>  (170) 
-0.416998

>  <r_i_glide_ligand_efficiency_ln>  (170) 
-0.800291

>  <r_i_glide_gscore>  (170) 
-3.27402

>  <r_i_glide_lipo>  (170) 
-0.510514

>  <r_i_glide_hbond>  (170) 
0

>  <r_i_glide_metal>  (170) 
-0

>  <r_i_glide_rewards>  (170) 
-1.2863

>  <r_i_glide_evdw>  (170) 
-28.4776

>  <r_i_glide_ecoul>  (170) 
-5.3745

>  <r_i_glide_erotb>  (170) 
0.765215

>  <r_i_glide_esite>  (170) 
-0.0123702

>  <r_i_glide_emodel>  (170) 
-43.6057

>  <r_i_glide_energy>  (170) 
-33.8521

>  <r_i_glide_einternal>  (170) 
0.512718

>  <r_i_glide_intrahb_reward>  (170) 
-0

>  <i_i_glide_confnum>  (170) 
5

>  <i_i_glide_posenum>  (170) 
8

>  <r_i_glide_eff_state_penalty>  (170) 
0

>  <ligand_id>  (170) 
48

>  <original_smiles>  (170) 
c1cc(COc2ccc3nnc(-c4cscn4)n3n2)ccn1

>  <smiles>  (170) 
[H]c1nc(-c2nnc3c([H])c([H])c(OC([H])([H])c4c([H])c([H])[n+]([H])c([H])c4[H])nn23)c([H])s1

$$$$
48:1:2
     RDKit          3D

 33 36  0  0  1  0  0  0  0  0999 V2000
    3.2429   -3.1327   -3.7633 C   0  0  0  0  0  0  0  0  0  0  0  0
    4.3032   -3.4322   -2.8873 C   0  0  0  0  0  0  0  0  0  0  0  0
    4.9110   -2.3902   -2.1541 C   0  0  0  0  0  0  0  0  0  0  0  0
    6.0264   -2.6878   -1.1662 C   0  0  0  0  0  0  0  0  0  0  0  0
    5.9550   -4.0067   -0.6247 O   0  0  0  0  0  0  0  0  0  0  0  0
    4.9462   -4.3282    0.2621 C   0  0  0  0  0  0  0  0  0  0  0  0
    4.7812   -5.6991    0.5637 C   0  0  0  0  0  0  0  0  0  0  0  0
    3.8295   -6.0807    1.4742 C   0  0  0  0  0  0  0  0  0  0  0  0
    3.0395   -5.0727    2.0755 C   0  0  0  0  0  0  0  0  0  0  0  0
    2.0562   -5.0823    2.9712 N   0  0  0  0  0  0  0  0  0  0  0  0
    1.6830   -3.7689    3.1757 N   0  0  0  0  0  0  0  0  0  0  0  0
    2.4205   -2.9644    2.3994 C   0  0  0  0  0  0  0  0  0  0  0  0
    2.2368   -1.5046    2.3738 C   0  0  0  0  0  0  0  0  0  0  0  0
    1.2330   -0.7853    2.9848 C   0  0  0  0  0  0  0  0  0  0  0  0
    1.3483    0.9287    2.6955 S   0  0  0  0  0  0  0  0  0  0  0  0
    2.7893    0.6078    1.7518 C   0  0  0  0  0  0  0  0  0  0  0  0
    3.1176   -0.6783    1.6649 N   0  0  0  0  0  0  0  0  0  0  0  0
    3.2961   -3.7437    1.6809 N   0  0  0  0  0  0  0  0  0  0  0  0
    4.2242   -3.3273    0.7729 N   0  0  0  0  0  0  0  0  0  0  0  0
    4.4683   -1.0652   -2.3556 C   0  0  0  0  0  0  0  0  0  0  0  0
    3.4162   -0.8192   -3.2613 C   0  0  0  0  0  0  0  0  0  0  0  0
    2.8493   -1.8522   -3.9209 N   0  0  0  0  0  0  0  0  0  0  0  0
    2.6872   -3.8818   -4.3110 H   0  0  0  0  0  0  0  0  0  0  0  0
    4.6172   -4.4565   -2.7466 H   0  0  0  0  0  0  0  0  0  0  0  0
    6.9752   -2.5950   -1.6968 H   0  0  0  0  0  0  0  0  0  0  0  0
    6.0534   -1.9423   -0.3678 H   0  0  0  0  0  0  0  0  0  0  0  0
    5.4051   -6.4461    0.0856 H   0  0  0  0  0  0  0  0  0  0  0  0
    3.6794   -7.1187    1.7486 H   0  0  0  0  0  0  0  0  0  0  0  0
    0.4237   -1.1797    3.5839 H   0  0  0  0  0  0  0  0  0  0  0  0
    3.4038    1.3454    1.2739 H   0  0  0  0  0  0  0  0  0  0  0  0
    4.9077   -0.2535   -1.7980 H   0  0  0  0  0  0  0  0  0  0  0  0
    2.9952    0.1600   -3.4461 H   0  0  0  0  0  0  0  0  0  0  0  0
    2.0725   -1.6652   -4.5649 H   0  0  0  0  0  0  0  0  0  0  0  0
  1 22  2  0
  1  2  1  0
  1 23  1  0
  2  3  2  0
  2 24  1  0
  3  4  1  0
  3 20  1  0
  4  5  1  0
  4 25  1  0
  4 26  1  0
  5  6  1  0
  6 19  2  0
  6  7  1  0
  7  8  2  0
  7 27  1  0
  8  9  1  0
  8 28  1  0
  9 18  1  0
  9 10  2  0
 10 11  1  0
 11 12  2  0
 12 13  1  0
 12 18  1  0
 13 17  1  0
 13 14  2  0
 14 15  1  0
 14 29  1  0
 15 16  1  0
 16 17  2  0
 16 30  1  0
 18 19  1  0
 20 21  2  0
 20 31  1  0
 21 22  1  0
 21 32  1  0
 22 33  1  0
M  CHG  1  22   1
M  END
>  <i_m_ct_stereo_status>  (171) 
1

>  <s_m_source_file>  (171) 
/var/tmp/pbs.5076255.sched01/tmpguyree9i/45_f3p7e6s.sdf

>  <i_m_source_file_index>  (171) 
26

>  <i_lp_mmshare_version>  (171) 
48012

>  <i_f3d_flags>  (171) 
0

>  <s_epik_input>  (171) 
W2NIXTFbY0hdbltjSF1bY0hdYzFbQ0gyXU9jKFtjSF1bY0hdMilubihjMjMpYyhubjMpLWM0W2NIXXNbY0hdbjQ=

>  <s_epik_cmdline>  (171) 
J2VwaWtfcHl0aG9uJywgJy1waHQnLCAnMi4wJywgJy1waCcsICc3LjAnLCAnLXRuJywgJzgnLCAnLW1hJywgJzIwMCcsICctaW1hZScsICc8aW5maWxlLm1hZT4nLCAnLW9tYWUnLCAnPG91dGZpbGUubWFlPic=

>  <r_epik_Ionization_Penalty>  (171) 
1.22666

>  <r_epik_Ionization_Penalty_Charging>  (171) 
1.22666

>  <r_epik_Ionization_Penalty_Neutral>  (171) 
2.39939e-06

>  <r_epik_State_Penalty>  (171) 
1.29441

>  <r_epik_Charging_Adjusted_Penalty>  (171) 
2.52107

>  <i_epik_Tot_Q>  (171) 
1

>  <i_epik_Tot_abs_Q>  (171) 
1

>  <s_lp_Force_Field>  (171) 
OPLS3e

>  <r_lp_Energy>  (171) 
32.2532

>  <b_lp_Chiralities_Consistent>  (171) 
1

>  <s_lp_Variant>  (171) 
48:0-2

>  <s_i_glide_gridfile>  (171) 
pfpi4k_grid

>  <i_i_glide_lignum>  (171) 
26

>  <i_i_glide_rotatable_bonds>  (171) 
4

>  <r_i_docking_score>  (171) 
-3.26664

>  <r_i_glide_ligand_efficiency>  (171) 
-0.148484

>  <r_i_glide_ligand_efficiency_sa>  (171) 
-0.416057

>  <r_i_glide_ligand_efficiency_ln>  (171) 
-0.798486

>  <r_i_glide_gscore>  (171) 
-3.26664

>  <r_i_glide_lipo>  (171) 
-0.591591

>  <r_i_glide_hbond>  (171) 
0

>  <r_i_glide_metal>  (171) 
-0

>  <r_i_glide_rewards>  (171) 
-1.28937

>  <r_i_glide_evdw>  (171) 
-29.0363

>  <r_i_glide_ecoul>  (171) 
-4.56652

>  <r_i_glide_erotb>  (171) 
0.765215

>  <r_i_glide_esite>  (171) 
-0.0140973

>  <r_i_glide_emodel>  (171) 
-43.2456

>  <r_i_glide_energy>  (171) 
-33.6028

>  <r_i_glide_einternal>  (171) 
0.55868

>  <r_i_glide_intrahb_reward>  (171) 
-0

>  <i_i_glide_confnum>  (171) 
3

>  <i_i_glide_posenum>  (171) 
31

>  <r_i_glide_eff_state_penalty>  (171) 
0

>  <ligand_id>  (171) 
48

>  <original_smiles>  (171) 
c1cc(COc2ccc3nnc(-c4cscn4)n3n2)ccn1

>  <smiles>  (171) 
[H]c1nc(-c2nnc3c([H])c([H])c(OC([H])([H])c4c([H])c([H])[n+]([H])c([H])c4[H])nn23)c([H])s1

$$$$
50:0:0
     RDKit          3D

107114  0  0  1  0  0  0  0  0999 V2000
    6.9858    4.1431    7.8915 C   0  0  0  0  0  0  0  0  0  0  0  0
    6.0927    4.7646    6.8130 C   0  0  2  0  0  0  0  0  0  0  0  0
    5.4776    6.1425    7.1818 C   0  0  0  0  0  0  0  0  0  0  0  0
    4.1345    6.0766    6.4876 C   0  0  0  0  0  0  0  0  0  0  0  0
    3.6927    6.9838    5.5898 C   0  0  0  0  0  0  0  0  0  0  0  0
    2.5646    6.7075    4.6110 C   0  0  0  0  0  0  0  0  0  0  0  0
    2.4285    5.1874    4.3908 C   0  0  1  0  0  0  0  0  0  0  0  0
    2.3309    4.4369    5.7155 C   0  0  1  0  0  0  0  0  0  0  0  0
    1.8942    3.0133    5.2801 C   0  0  1  0  0  0  0  0  0  0  0  0
    1.2376    2.3636    6.3844 O   0  0  0  0  0  0  0  0  0  0  0  0
    1.4635    0.9734    6.6547 C   0  0  2  0  0  0  0  0  0  0  0  0
    2.9282    0.6885    7.0445 C   0  0  0  0  0  0  0  0  0  0  0  0
    3.2271   -0.8231    7.2025 C   0  0  0  0  0  0  0  0  0  0  0  0
    2.7319   -1.7608    6.0420 C   0  0  1  0  0  0  0  0  0  0  0  0
    2.6001   -3.1545    6.7235 C   0  0  0  0  0  0  0  0  0  0  0  0
    1.2574   -1.3826    5.7340 C   0  0  2  0  0  0  0  0  0  0  0  0
    0.6555   -2.2472    4.6150 C   0  0  0  0  0  0  0  0  0  0  0  0
    1.5836   -2.4103    3.4309 C   0  0  0  0  0  0  0  0  0  0  0  0
    2.9255   -2.2403    3.4208 C   0  0  0  0  0  0  0  0  0  0  0  0
    3.6284   -2.1720    2.0232 C   0  0  1  0  0  0  0  0  0  0  0  0
    4.4143   -0.8348    1.8116 C   0  0  2  0  0  0  0  0  0  0  0  0
    3.3516    0.2664    1.6628 C   0  0  0  0  0  0  0  0  0  0  0  0
    5.2496   -0.7478    0.4949 C   0  0  0  0  0  0  0  0  0  0  0  0
    5.7694   -2.0650   -0.0786 C   0  0  0  0  0  0  0  0  0  0  0  0
    4.6487   -3.1258   -0.0779 C   0  0  1  0  0  0  0  0  0  0  0  0
    5.0382   -4.2966   -0.9952 C   0  0  0  0  0  0  0  0  0  0  0  0
    4.2275   -3.4871    1.3828 C   0  0  0  0  0  0  0  0  0  0  0  0
    5.4369   -4.0816    2.1422 C   0  0  0  0  0  0  0  0  0  0  0  0
    3.1189   -4.5693    1.3533 C   0  0  0  0  0  0  0  0  0  0  0  0
    5.2767   -0.5173    3.0568 C   0  0  0  0  0  0  0  0  0  0  0  0
    4.4713   -0.5160    4.3883 C   0  0  0  0  0  0  0  0  0  0  0  0
    3.6994   -1.8345    4.7221 C   0  0  1  0  0  0  0  0  0  0  0  0
    4.8150   -2.8640    5.0574 C   0  0  0  0  0  0  0  0  0  0  0  0
    1.0930    0.1033    5.4459 C   0  0  0  0  0  0  0  0  0  0  0  0
    1.0227    3.2033    3.9730 C   0  0  1  0  0  0  0  0  0  0  0  0
    1.4395    2.2963    2.8390 C   0  0  0  0  0  0  0  0  0  0  0  0
   -0.5009    3.0815    4.1282 C   0  0  0  0  0  0  0  0  0  0  0  0
   -1.0986    2.0663    4.4433 O   0  0  0  0  0  0  0  0  0  0  0  0
   -1.2158    4.3373    3.6853 C   0  0  0  0  0  0  0  0  0  0  0  0
   -0.1188    5.4027    3.7994 C   0  0  0  0  0  0  0  0  0  0  0  0
    1.2326    4.6882    3.5671 C   0  0  1  0  0  0  0  0  0  0  0  0
    3.5512    4.6732    6.6736 C   0  0  2  0  0  0  0  0  0  0  0  0
    3.0756    4.4922    8.1408 C   0  0  0  0  0  0  0  0  0  0  0  0
    4.8689    3.8980    6.4755 C   0  0  0  0  0  0  0  0  0  0  0  0
    4.9819    2.7396    6.1107 O   0  0  0  0  0  0  0  0  0  0  0  0
    7.3883    3.1847    7.5505 H   0  0  0  0  0  0  0  0  0  0  0  0
    6.4432    3.9393    8.8194 H   0  0  0  0  0  0  0  0  0  0  0  0
    7.8379    4.7776    8.1322 H   0  0  0  0  0  0  0  0  0  0  0  0
    6.6623    4.8715    5.8864 H   0  0  0  0  0  0  0  0  0  0  0  0
    5.3251    6.2265    8.2680 H   0  0  0  0  0  0  0  0  0  0  0  0
    6.0935    6.9730    6.8413 H   0  0  0  0  0  0  0  0  0  0  0  0
    4.2348    7.9013    5.4521 H   0  0  0  0  0  0  0  0  0  0  0  0
    1.6572    7.1631    4.9969 H   0  0  0  0  0  0  0  0  0  0  0  0
    2.7852    7.1924    3.6589 H   0  0  0  0  0  0  0  0  0  0  0  0
    3.3354    4.8488    3.8795 H   0  0  0  0  0  0  0  0  0  0  0  0
    1.4580    4.8575    6.2167 H   0  0  0  0  0  0  0  0  0  0  0  0
    2.7894    2.4774    4.9897 H   0  0  0  0  0  0  0  0  0  0  0  0
    0.8100    0.7280    7.5070 H   0  0  0  0  0  0  0  0  0  0  0  0
    3.5906    1.0587    6.2997 H   0  0  0  0  0  0  0  0  0  0  0  0
    3.1708    1.2131    7.9758 H   0  0  0  0  0  0  0  0  0  0  0  0
    4.3060   -0.9383    7.3403 H   0  0  0  0  0  0  0  0  0  0  0  0
    2.7650   -1.1347    8.1414 H   0  0  0  0  0  0  0  0  0  0  0  0
    2.3399   -3.9402    6.0063 H   0  0  0  0  0  0  0  0  0  0  0  0
    1.8151   -3.1444    7.4866 H   0  0  0  0  0  0  0  0  0  0  0  0
    3.5123   -3.4490    7.2520 H   0  0  0  0  0  0  0  0  0  0  0  0
    0.6426   -1.5683    6.6269 H   0  0  0  0  0  0  0  0  0  0  0  0
    0.3790   -3.2330    4.9825 H   0  0  0  0  0  0  0  0  0  0  0  0
   -0.2698   -1.7912    4.2558 H   0  0  0  0  0  0  0  0  0  0  0  0
    1.0687   -2.6350    2.5049 H   0  0  0  0  0  0  0  0  0  0  0  0
    2.7826   -2.0204    1.3525 H   0  0  0  0  0  0  0  0  0  0  0  0
    3.8088    1.2566    1.6266 H   0  0  0  0  0  0  0  0  0  0  0  0
    2.6811    0.2124    2.4701 H   0  0  0  0  0  0  0  0  0  0  0  0
    2.7942    0.1717    0.7249 H   0  0  0  0  0  0  0  0  0  0  0  0
    4.6384   -0.3321   -0.3057 H   0  0  0  0  0  0  0  0  0  0  0  0
    6.0749   -0.0357    0.6032 H   0  0  0  0  0  0  0  0  0  0  0  0
    6.0898   -1.8741   -1.1079 H   0  0  0  0  0  0  0  0  0  0  0  0
    6.6624   -2.4065    0.4499 H   0  0  0  0  0  0  0  0  0  0  0  0
    3.7856   -2.6611   -0.5604 H   0  0  0  0  0  0  0  0  0  0  0  0
    5.8969   -4.8425   -0.6327 H   0  0  0  0  0  0  0  0  0  0  0  0
    5.2584   -3.9377   -1.9967 H   0  0  0  0  0  0  0  0  0  0  0  0
    4.2118   -5.0032   -1.1054 H   0  0  0  0  0  0  0  0  0  0  0  0
    5.9372   -4.8463    1.5549 H   0  0  0  0  0  0  0  0  0  0  0  0
    5.1380   -4.5711    3.0634 H   0  0  0  0  0  0  0  0  0  0  0  0
    6.1896   -3.3280    2.3701 H   0  0  0  0  0  0  0  0  0  0  0  0
    3.4921   -5.5129    0.9598 H   0  0  0  0  0  0  0  0  0  0  0  0
    2.2782   -4.2586    0.7277 H   0  0  0  0  0  0  0  0  0  0  0  0
    2.7323   -4.7821    2.3498 H   0  0  0  0  0  0  0  0  0  0  0  0
    6.1245   -1.2015    3.1207 H   0  0  0  0  0  0  0  0  0  0  0  0
    5.7354    0.4682    2.9578 H   0  0  0  0  0  0  0  0  0  0  0  0
    5.1497   -0.2638    5.2044 H   0  0  0  0  0  0  0  0  0  0  0  0
    3.7937    0.3278    4.3285 H   0  0  0  0  0  0  0  0  0  0  0  0
    5.2326   -2.6823    6.0468 H   0  0  0  0  0  0  0  0  0  0  0  0
    5.6691   -2.8133    4.3972 H   0  0  0  0  0  0  0  0  0  0  0  0
    4.4421   -3.8873    5.0322 H   0  0  0  0  0  0  0  0  0  0  0  0
    0.0590    0.2607    5.1788 H   0  0  0  0  0  0  0  0  0  0  0  0
    1.7392    0.3337    4.6191 H   0  0  0  0  0  0  0  0  0  0  0  0
    2.5010    2.4815    2.6453 H   0  0  0  0  0  0  0  0  0  0  0  0
    0.9203    2.5084    1.8965 H   0  0  0  0  0  0  0  0  0  0  0  0
    1.2570    1.2720    3.0715 H   0  0  0  0  0  0  0  0  0  0  0  0
   -1.5316    4.1792    2.6496 H   0  0  0  0  0  0  0  0  0  0  0  0
   -2.0743    4.5114    4.3304 H   0  0  0  0  0  0  0  0  0  0  0  0
   -0.2698    6.1966    3.0602 H   0  0  0  0  0  0  0  0  0  0  0  0
   -0.1646    5.8187    4.8113 H   0  0  0  0  0  0  0  0  0  0  0  0
    1.4754    4.7605    2.5026 H   0  0  0  0  0  0  0  0  0  0  0  0
    3.8914    4.5462    8.8602 H   0  0  0  0  0  0  0  0  0  0  0  0
    2.5916    3.5221    8.2914 H   0  0  0  0  0  0  0  0  0  0  0  0
    2.3554    5.2605    8.4180 H   0  0  0  0  0  0  0  0  0  0  0  0
  1  2  1  0
  1 46  1  0
  1 47  1  0
  1 48  1  0
  2 44  1  0
  2  3  1  0
  2 49  1  6
  3  4  1  0
  3 50  1  0
  3 51  1  0
  4 42  1  0
  4  5  2  0
  5  6  1  0
  5 52  1  0
  6  7  1  0
  6 53  1  0
  6 54  1  0
  7 41  1  0
  7  8  1  0
  7 55  1  6
  8  9  1  0
  8 42  1  0
  8 56  1  1
  9 10  1  0
  9 35  1  0
  9 57  1  6
 10 11  1  0
 11 34  1  0
 11 12  1  0
 11 58  1  1
 12 13  1  0
 12 59  1  0
 12 60  1  0
 13 14  1  0
 13 61  1  0
 13 62  1  0
 14 32  1  0
 14 15  1  1
 14 16  1  0
 15 63  1  0
 15 64  1  0
 15 65  1  0
 16 17  1  0
 16 34  1  0
 16 66  1  1
 17 18  1  0
 17 67  1  0
 17 68  1  0
 18 19  2  0
 18 69  1  0
 19 32  1  0
 19 20  1  0
 20 27  1  0
 20 21  1  0
 20 70  1  6
 21 22  1  6
 21 23  1  0
 21 30  1  0
 22 71  1  0
 22 72  1  0
 22 73  1  0
 23 24  1  0
 23 74  1  0
 23 75  1  0
 24 25  1  0
 24 76  1  0
 24 77  1  0
 25 26  1  0
 25 27  1  0
 25 78  1  6
 26 79  1  0
 26 80  1  0
 26 81  1  0
 27 28  1  0
 27 29  1  0
 28 82  1  0
 28 83  1  0
 28 84  1  0
 29 85  1  0
 29 86  1  0
 29 87  1  0
 30 31  1  0
 30 88  1  0
 30 89  1  0
 31 32  1  0
 31 90  1  0
 31 91  1  0
 32 33  1  1
 33 92  1  0
 33 93  1  0
 33 94  1  0
 34 95  1  0
 34 96  1  0
 35 41  1  0
 35 36  1  6
 35 37  1  0
 36 97  1  0
 36 98  1  0
 36 99  1  0
 37 38  2  0
 37 39  1  0
 39 40  1  0
 39100  1  0
 39101  1  0
 40 41  1  0
 40102  1  0
 40103  1  0
 41104  1  6
 42 43  1  1
 42 44  1  0
 43105  1  0
 43106  1  0
 43107  1  0
 44 45  2  0
M  END
>  <i_m_ct_stereo_status>  (172) 
1

>  <s_m_source_file>  (172) 
/var/tmp/pbs.5076255.sched01/tmpguyree9i/45_f3p7e6s.sdf

>  <i_m_source_file_index>  (172) 
29

>  <i_lp_mmshare_version>  (172) 
48012

>  <i_f3d_flags>  (172) 
0

>  <s_epik_input>  (172) 
Tz1DMVtDSDJdW0NIMl1bQ0BIXShbQ0BdMTJbQ0gzXSlbQ0BASF0zW0NASF0oW0NAXTQoW0NIM10pQyg9W0NIXVtDSDJdMylbQ0gyXVtDQEBIXShbQ0gzXSlDND1PKVtDQEhdMk9bQ0BIXShbQ0gyXVtDSDJdNSlbQ0gyXVtDQEhdKFtDQF01NltDSDNdKVtDSDJdW0NIXT1DN1tDQEhdOFtDQEBdKFtDSDNdKShbQ0gyXVtDSDJdW0NAQF02N1tDSDNdKVtDSDJdW0NIMl1bQ0BASF0oW0NIM10pQzgoW0NIM10pW0NIM10=

>  <s_epik_cmdline>  (172) 
J2VwaWtfcHl0aG9uJywgJy1waHQnLCAnMi4wJywgJy1waCcsICc3LjAnLCAnLXRuJywgJzgnLCAnLW1hJywgJzIwMCcsICctaW1hZScsICc8aW5maWxlLm1hZT4nLCAnLW9tYWUnLCAnPG91dGZpbGUubWFlPic=

>  <r_lp_tautomer_probability>  (172) 
1

>  <r_epik_Ionization_Penalty>  (172) 
2.72779e-11

>  <r_epik_Ionization_Penalty_Charging>  (172) 
0

>  <r_epik_Ionization_Penalty_Neutral>  (172) 
2.72779e-11

>  <r_epik_State_Penalty>  (172) 
-0

>  <r_epik_Charging_Adjusted_Penalty>  (172) 
0

>  <i_epik_Tot_Q>  (172) 
0

>  <i_epik_Tot_abs_Q>  (172) 
0

>  <s_lp_Force_Field>  (172) 
OPLS3e

>  <r_lp_Energy>  (172) 
97.6415

>  <b_lp_Chiralities_Consistent>  (172) 
1

>  <s_lp_Variant>  (172) 
50:0-1

>  <s_i_glide_gridfile>  (172) 
pfpi4k_grid

>  <i_i_glide_lignum>  (172) 
29

>  <i_i_glide_rotatable_bonds>  (172) 
2

>  <r_i_docking_score>  (172) 
-2.54808

>  <r_i_glide_ligand_efficiency>  (172) 
-0.056624

>  <r_i_glide_ligand_efficiency_sa>  (172) 
-0.201405

>  <r_i_glide_ligand_efficiency_ln>  (172) 
-0.530114

>  <r_i_glide_gscore>  (172) 
-2.54808

>  <r_i_glide_lipo>  (172) 
-0.594092

>  <r_i_glide_hbond>  (172) 
0

>  <r_i_glide_metal>  (172) 
-0

>  <r_i_glide_rewards>  (172) 
-0.00534341

>  <r_i_glide_evdw>  (172) 
-35.9253

>  <r_i_glide_ecoul>  (172) 
-1.4725

>  <r_i_glide_erotb>  (172) 
0.111454

>  <r_i_glide_esite>  (172) 
-0.0429587

>  <r_i_glide_emodel>  (172) 
-39.3113

>  <r_i_glide_energy>  (172) 
-37.3978

>  <r_i_glide_einternal>  (172) 
1.86818

>  <r_i_glide_intrahb_reward>  (172) 
-0

>  <i_i_glide_confnum>  (172) 
5

>  <i_i_glide_posenum>  (172) 
40

>  <r_i_glide_eff_state_penalty>  (172) 
0

>  <ligand_id>  (172) 
50

>  <original_smiles>  (172) 
CC1CC2=CCC3C(C(OC4CCC5(C)C(CC=C6C7C(C)(CCC(C)C7(C)C)CCC65C)C4)C4(C)C(=O)CCC34)C2(C)C1=O

>  <smiles>  (172) 
[H]C1=C2C([H])([H])C([H])(C([H])([H])[H])C(=O)C2(C([H])([H])[H])C2([H])C([H])(OC3([H])C([H])([H])C([H])([H])C4(C([H])([H])[H])C([H])(C([H])([H])C([H])=C5C6([H])C(C([H])([H])[H])(C([H])([H])C([H])([H])C([H])(C([H])([H])[H])C6(C([H])([H])[H])C([H])([H])[H])C([H])([H])C([H])([H])C54C([H])([H])[H])C3([H])[H])C3(C([H])([H])[H])C(=O)C([H])([H])C([H])([H])C3([H])C2([H])C1([H])[H]

$$$$
50:0:1
     RDKit          3D

107114  0  0  1  0  0  0  0  0999 V2000
    3.2657   -2.3740    6.8044 C   0  0  0  0  0  0  0  0  0  0  0  0
    3.5334   -1.5023    5.5513 C   0  0  2  0  0  0  0  0  0  0  0  0
    2.3175   -0.7647    5.0019 C   0  0  0  0  0  0  0  0  0  0  0  0
    2.5641   -0.7695    3.5133 C   0  0  0  0  0  0  0  0  0  0  0  0
    2.6473    0.3258    2.7570 C   0  0  0  0  0  0  0  0  0  0  0  0
    3.3007    0.3589    1.3959 C   0  0  0  0  0  0  0  0  0  0  0  0
    4.3490   -0.7758    1.2961 C   0  0  1  0  0  0  0  0  0  0  0  0
    3.7212   -2.1087    1.6582 C   0  0  1  0  0  0  0  0  0  0  0  0
    4.7775   -3.1232    1.2307 C   0  0  1  0  0  0  0  0  0  0  0  0
    4.1692   -4.4094    1.0366 O   0  0  0  0  0  0  0  0  0  0  0  0
    4.9726   -5.5632    1.2657 C   0  0  2  0  0  0  0  0  0  0  0  0
    4.1948   -6.8331    0.8942 C   0  0  0  0  0  0  0  0  0  0  0  0
    4.9298   -8.1405    1.3069 C   0  0  0  0  0  0  0  0  0  0  0  0
    5.5378   -8.1943    2.7577 C   0  0  1  0  0  0  0  0  0  0  0  0
    6.7174   -9.2162    2.6515 C   0  0  0  0  0  0  0  0  0  0  0  0
    6.2563   -6.8538    3.0198 C   0  0  2  0  0  0  0  0  0  0  0  0
    6.9085   -6.7866    4.4039 C   0  0  0  0  0  0  0  0  0  0  0  0
    5.9859   -7.2648    5.4852 C   0  0  0  0  0  0  0  0  0  0  0  0
    4.9074   -8.0592    5.3302 C   0  0  0  0  0  0  0  0  0  0  0  0
    3.9208   -8.1578    6.5282 C   0  0  1  0  0  0  0  0  0  0  0  0
    2.4695   -7.7097    6.1413 C   0  0  2  0  0  0  0  0  0  0  0  0
    2.4595   -6.1827    5.9071 C   0  0  0  0  0  0  0  0  0  0  0  0
    1.4123   -7.9368    7.2790 C   0  0  0  0  0  0  0  0  0  0  0  0
    1.6749   -9.0710    8.2670 C   0  0  0  0  0  0  0  0  0  0  0  0
    3.1222   -9.0517    8.7571 C   0  0  1  0  0  0  0  0  0  0  0  0
    3.2959   -9.9211   10.0217 C   0  0  0  0  0  0  0  0  0  0  0  0
    4.1074   -9.3352    7.5679 C   0  0  0  0  0  0  0  0  0  0  0  0
    3.8462  -10.7524    7.0193 C   0  0  0  0  0  0  0  0  0  0  0  0
    5.5581   -9.3182    8.0971 C   0  0  0  0  0  0  0  0  0  0  0  0
    2.0376   -8.4055    4.8229 C   0  0  0  0  0  0  0  0  0  0  0  0
    3.0329   -8.1610    3.6563 C   0  0  0  0  0  0  0  0  0  0  0  0
    4.4975   -8.6247    3.9186 C   0  0  1  0  0  0  0  0  0  0  0  0
    4.4411  -10.1709    3.9179 C   0  0  0  0  0  0  0  0  0  0  0  0
    5.3880   -5.6400    2.7369 C   0  0  0  0  0  0  0  0  0  0  0  0
    5.5448   -2.4984    0.0323 C   0  0  1  0  0  0  0  0  0  0  0  0
    7.0854   -2.5849    0.1954 C   0  0  0  0  0  0  0  0  0  0  0  0
    5.1699   -3.0755   -1.3446 C   0  0  0  0  0  0  0  0  0  0  0  0
    5.4135   -4.1965   -1.7083 O   0  0  0  0  0  0  0  0  0  0  0  0
    4.6012   -2.0253   -2.2744 C   0  0  0  0  0  0  0  0  0  0  0  0
    4.1557   -0.9474   -1.3115 C   0  0  0  0  0  0  0  0  0  0  0  0
    5.0599   -1.0401   -0.0555 C   0  0  1  0  0  0  0  0  0  0  0  0
    3.1037   -2.1428    3.1116 C   0  0  2  0  0  0  0  0  0  0  0  0
    1.9857   -3.1950    3.1674 C   0  0  0  0  0  0  0  0  0  0  0  0
    4.0218   -2.3419    4.3499 C   0  0  0  0  0  0  0  0  0  0  0  0
    4.9589   -3.0968    4.4246 O   0  0  0  0  0  0  0  0  0  0  0  0
    4.1758   -2.8574    7.1492 H   0  0  0  0  0  0  0  0  0  0  0  0
    2.5340   -3.1532    6.6093 H   0  0  0  0  0  0  0  0  0  0  0  0
    2.8929   -1.7629    7.6258 H   0  0  0  0  0  0  0  0  0  0  0  0
    4.3340   -0.8027    5.7832 H   0  0  0  0  0  0  0  0  0  0  0  0
    1.3941   -1.2904    5.2180 H   0  0  0  0  0  0  0  0  0  0  0  0
    2.2340    0.2581    5.4081 H   0  0  0  0  0  0  0  0  0  0  0  0
    2.3268    1.2943    3.1524 H   0  0  0  0  0  0  0  0  0  0  0  0
    2.5126    0.2567    0.6464 H   0  0  0  0  0  0  0  0  0  0  0  0
    3.7644    1.3456    1.2700 H   0  0  0  0  0  0  0  0  0  0  0  0
    5.1396   -0.5581    2.0199 H   0  0  0  0  0  0  0  0  0  0  0  0
    2.8842   -2.2434    0.9689 H   0  0  0  0  0  0  0  0  0  0  0  0
    5.5141   -3.1633    2.0485 H   0  0  0  0  0  0  0  0  0  0  0  0
    5.8599   -5.5102    0.6342 H   0  0  0  0  0  0  0  0  0  0  0  0
    3.1884   -6.8083    1.3109 H   0  0  0  0  0  0  0  0  0  0  0  0
    4.0316   -6.8419   -0.1821 H   0  0  0  0  0  0  0  0  0  0  0  0
    4.2971   -9.0047    1.1227 H   0  0  0  0  0  0  0  0  0  0  0  0
    5.7564   -8.2511    0.5955 H   0  0  0  0  0  0  0  0  0  0  0  0
    7.1750   -9.4196    3.6200 H   0  0  0  0  0  0  0  0  0  0  0  0
    7.5107   -8.8379    2.0080 H   0  0  0  0  0  0  0  0  0  0  0  0
    6.4234  -10.1698    2.2111 H   0  0  0  0  0  0  0  0  0  0  0  0
    7.0715   -6.7509    2.3087 H   0  0  0  0  0  0  0  0  0  0  0  0
    7.8317   -7.3659    4.4346 H   0  0  0  0  0  0  0  0  0  0  0  0
    7.1904   -5.7576    4.6235 H   0  0  0  0  0  0  0  0  0  0  0  0
    6.2134   -6.8468    6.4606 H   0  0  0  0  0  0  0  0  0  0  0  0
    4.2326   -7.3139    7.1516 H   0  0  0  0  0  0  0  0  0  0  0  0
    1.5011   -5.8416    5.5116 H   0  0  0  0  0  0  0  0  0  0  0  0
    3.2386   -5.8491    5.2229 H   0  0  0  0  0  0  0  0  0  0  0  0
    2.6388   -5.6367    6.8360 H   0  0  0  0  0  0  0  0  0  0  0  0
    1.3394   -7.0294    7.8919 H   0  0  0  0  0  0  0  0  0  0  0  0
    0.4332   -8.0763    6.8439 H   0  0  0  0  0  0  0  0  0  0  0  0
    0.9959   -8.9480    9.1153 H   0  0  0  0  0  0  0  0  0  0  0  0
    1.3988  -10.0316    7.8342 H   0  0  0  0  0  0  0  0  0  0  0  0
    3.3184   -8.0395    9.1018 H   0  0  0  0  0  0  0  0  0  0  0  0
    3.1133  -10.9803    9.8422 H   0  0  0  0  0  0  0  0  0  0  0  0
    2.5912   -9.6014   10.7944 H   0  0  0  0  0  0  0  0  0  0  0  0
    4.2877   -9.8084   10.4584 H   0  0  0  0  0  0  0  0  0  0  0  0
    3.7816  -11.4922    7.8183 H   0  0  0  0  0  0  0  0  0  0  0  0
    4.6577  -11.1041    6.3811 H   0  0  0  0  0  0  0  0  0  0  0  0
    2.9123  -10.8272    6.4742 H   0  0  0  0  0  0  0  0  0  0  0  0
    5.7481  -10.1412    8.7896 H   0  0  0  0  0  0  0  0  0  0  0  0
    5.7868   -8.3902    8.6177 H   0  0  0  0  0  0  0  0  0  0  0  0
    6.2839   -9.4359    7.2883 H   0  0  0  0  0  0  0  0  0  0  0  0
    1.8794   -9.4610    4.9893 H   0  0  0  0  0  0  0  0  0  0  0  0
    1.0598   -8.0261    4.5184 H   0  0  0  0  0  0  0  0  0  0  0  0
    2.6430   -8.6614    2.7658 H   0  0  0  0  0  0  0  0  0  0  0  0
    3.0102   -7.1076    3.4280 H   0  0  0  0  0  0  0  0  0  0  0  0
    4.3365  -10.5648    2.9031 H   0  0  0  0  0  0  0  0  0  0  0  0
    3.5904  -10.5798    4.4438 H   0  0  0  0  0  0  0  0  0  0  0  0
    5.3362  -10.6152    4.3522 H   0  0  0  0  0  0  0  0  0  0  0  0
    6.0209   -4.7795    2.9834 H   0  0  0  0  0  0  0  0  0  0  0  0
    4.5235   -5.5912    3.3810 H   0  0  0  0  0  0  0  0  0  0  0  0
    7.4124   -2.0076    1.0610 H   0  0  0  0  0  0  0  0  0  0  0  0
    7.6142   -2.2007   -0.6715 H   0  0  0  0  0  0  0  0  0  0  0  0
    7.4101   -3.6103    0.3406 H   0  0  0  0  0  0  0  0  0  0  0  0
    5.3985   -1.6705   -2.9267 H   0  0  0  0  0  0  0  0  0  0  0  0
    3.7847   -2.4192   -2.8926 H   0  0  0  0  0  0  0  0  0  0  0  0
    4.2196    0.0377   -1.7833 H   0  0  0  0  0  0  0  0  0  0  0  0
    3.1091   -1.1267   -1.0665 H   0  0  0  0  0  0  0  0  0  0  0  0
    5.8903   -0.3466   -0.1768 H   0  0  0  0  0  0  0  0  0  0  0  0
    1.5859   -3.3253    4.1735 H   0  0  0  0  0  0  0  0  0  0  0  0
    2.3322   -4.1703    2.8383 H   0  0  0  0  0  0  0  0  0  0  0  0
    1.1523   -2.8940    2.5310 H   0  0  0  0  0  0  0  0  0  0  0  0
  1  2  1  0
  1 46  1  0
  1 47  1  0
  1 48  1  0
  2 44  1  0
  2  3  1  0
  2 49  1  1
  3  4  1  0
  3 50  1  0
  3 51  1  0
  4 42  1  0
  4  5  2  0
  5  6  1  0
  5 52  1  0
  6  7  1  0
  6 53  1  0
  6 54  1  0
  7 41  1  0
  7  8  1  0
  7 55  1  1
  8  9  1  0
  8 42  1  0
  8 56  1  6
  9 10  1  0
  9 35  1  0
  9 57  1  1
 10 11  1  0
 11 34  1  0
 11 12  1  0
 11 58  1  6
 12 13  1  0
 12 59  1  0
 12 60  1  0
 13 14  1  0
 13 61  1  0
 13 62  1  0
 14 32  1  0
 14 15  1  6
 14 16  1  0
 15 63  1  0
 15 64  1  0
 15 65  1  0
 16 17  1  0
 16 34  1  0
 16 66  1  6
 17 18  1  0
 17 67  1  0
 17 68  1  0
 18 19  2  0
 18 69  1  0
 19 32  1  0
 19 20  1  0
 20 27  1  0
 20 21  1  0
 20 70  1  1
 21 22  1  6
 21 23  1  0
 21 30  1  0
 22 71  1  0
 22 72  1  0
 22 73  1  0
 23 24  1  0
 23 74  1  0
 23 75  1  0
 24 25  1  0
 24 76  1  0
 24 77  1  0
 25 26  1  0
 25 27  1  0
 25 78  1  1
 26 79  1  0
 26 80  1  0
 26 81  1  0
 27 28  1  0
 27 29  1  0
 28 82  1  0
 28 83  1  0
 28 84  1  0
 29 85  1  0
 29 86  1  0
 29 87  1  0
 30 31  1  0
 30 88  1  0
 30 89  1  0
 31 32  1  0
 31 90  1  0
 31 91  1  0
 32 33  1  1
 33 92  1  0
 33 93  1  0
 33 94  1  0
 34 95  1  0
 34 96  1  0
 35 41  1  0
 35 36  1  1
 35 37  1  0
 36 97  1  0
 36 98  1  0
 36 99  1  0
 37 38  2  0
 37 39  1  0
 39 40  1  0
 39100  1  0
 39101  1  0
 40 41  1  0
 40102  1  0
 40103  1  0
 41104  1  6
 42 43  1  6
 42 44  1  0
 43105  1  0
 43106  1  0
 43107  1  0
 44 45  2  0
M  END
>  <i_m_ct_stereo_status>  (173) 
1

>  <s_m_source_file>  (173) 
/var/tmp/pbs.5076255.sched01/tmpguyree9i/45_f3p7e6s.sdf

>  <i_m_source_file_index>  (173) 
29

>  <i_lp_mmshare_version>  (173) 
48012

>  <i_f3d_flags>  (173) 
0

>  <s_epik_input>  (173) 
Tz1DMVtDSDJdW0NIMl1bQ0BIXShbQ0BdMTJbQ0gzXSlbQ0BASF0zW0NASF0oW0NAXTQoW0NIM10pQyg9W0NIXVtDSDJdMylbQ0gyXVtDQEBIXShbQ0gzXSlDND1PKVtDQEhdMk9bQ0BIXShbQ0gyXVtDSDJdNSlbQ0gyXVtDQEhdKFtDQF01NltDSDNdKVtDSDJdW0NIXT1DN1tDQEhdOFtDQEBdKFtDSDNdKShbQ0gyXVtDSDJdW0NAQF02N1tDSDNdKVtDSDJdW0NIMl1bQ0BASF0oW0NIM10pQzgoW0NIM10pW0NIM10=

>  <s_epik_cmdline>  (173) 
J2VwaWtfcHl0aG9uJywgJy1waHQnLCAnMi4wJywgJy1waCcsICc3LjAnLCAnLXRuJywgJzgnLCAnLW1hJywgJzIwMCcsICctaW1hZScsICc8aW5maWxlLm1hZT4nLCAnLW9tYWUnLCAnPG91dGZpbGUubWFlPic=

>  <r_lp_tautomer_probability>  (173) 
1

>  <r_epik_Ionization_Penalty>  (173) 
2.72779e-11

>  <r_epik_Ionization_Penalty_Charging>  (173) 
0

>  <r_epik_Ionization_Penalty_Neutral>  (173) 
2.72779e-11

>  <r_epik_State_Penalty>  (173) 
-0

>  <r_epik_Charging_Adjusted_Penalty>  (173) 
0

>  <i_epik_Tot_Q>  (173) 
0

>  <i_epik_Tot_abs_Q>  (173) 
0

>  <s_lp_Force_Field>  (173) 
OPLS3e

>  <r_lp_Energy>  (173) 
97.6415

>  <b_lp_Chiralities_Consistent>  (173) 
1

>  <s_lp_Variant>  (173) 
50:0-1

>  <s_i_glide_gridfile>  (173) 
pfpi4k_grid

>  <i_i_glide_lignum>  (173) 
29

>  <i_i_glide_rotatable_bonds>  (173) 
2

>  <r_i_docking_score>  (173) 
-2.20605

>  <r_i_glide_ligand_efficiency>  (173) 
-0.0490233

>  <r_i_glide_ligand_efficiency_sa>  (173) 
-0.174371

>  <r_i_glide_ligand_efficiency_ln>  (173) 
-0.458956

>  <r_i_glide_gscore>  (173) 
-2.20605

>  <r_i_glide_lipo>  (173) 
-0.598328

>  <r_i_glide_hbond>  (173) 
0

>  <r_i_glide_metal>  (173) 
-0

>  <r_i_glide_rewards>  (173) 
-0.0590436

>  <r_i_glide_evdw>  (173) 
-33.7914

>  <r_i_glide_ecoul>  (173) 
0.196259

>  <r_i_glide_erotb>  (173) 
0.111454

>  <r_i_glide_esite>  (173) 
0

>  <r_i_glide_emodel>  (173) 
-37.3027

>  <r_i_glide_energy>  (173) 
-33.5951

>  <r_i_glide_einternal>  (173) 
2.34668

>  <r_i_glide_intrahb_reward>  (173) 
-0

>  <i_i_glide_confnum>  (173) 
6

>  <i_i_glide_posenum>  (173) 
13

>  <r_i_glide_eff_state_penalty>  (173) 
0

>  <ligand_id>  (173) 
50

>  <original_smiles>  (173) 
CC1CC2=CCC3C(C(OC4CCC5(C)C(CC=C6C7C(C)(CCC(C)C7(C)C)CCC65C)C4)C4(C)C(=O)CCC34)C2(C)C1=O

>  <smiles>  (173) 
[H]C1=C2C([H])([H])C([H])(C([H])([H])[H])C(=O)C2(C([H])([H])[H])C2([H])C([H])(OC3([H])C([H])([H])C([H])([H])C4(C([H])([H])[H])C([H])(C([H])([H])C([H])=C5C6([H])C(C([H])([H])[H])(C([H])([H])C([H])([H])C([H])(C([H])([H])[H])C6(C([H])([H])[H])C([H])([H])[H])C([H])([H])C([H])([H])C54C([H])([H])[H])C3([H])[H])C3(C([H])([H])[H])C(=O)C([H])([H])C([H])([H])C3([H])C2([H])C1([H])[H]

$$$$
50:0:2
     RDKit          3D

107114  0  0  1  0  0  0  0  0999 V2000
    7.8795   -6.7156    3.4506 C   0  0  0  0  0  0  0  0  0  0  0  0
    6.6845   -7.6492    3.1822 C   0  0  2  0  0  0  0  0  0  0  0  0
    6.3195   -7.8210    1.6990 C   0  0  0  0  0  0  0  0  0  0  0  0
    4.8107   -7.9638    1.7421 C   0  0  0  0  0  0  0  0  0  0  0  0
    4.1538   -9.0251    1.2526 C   0  0  0  0  0  0  0  0  0  0  0  0
    2.7410   -9.3886    1.6671 C   0  0  0  0  0  0  0  0  0  0  0  0
    2.4545   -8.8266    3.0736 C   0  0  1  0  0  0  0  0  0  0  0  0
    2.7526   -7.3309    3.1388 C   0  0  1  0  0  0  0  0  0  0  0  0
    2.1341   -6.8928    4.4844 C   0  0  1  0  0  0  0  0  0  0  0  0
    1.8102   -5.4954    4.4561 O   0  0  0  0  0  0  0  0  0  0  0  0
    2.0579   -4.7449    5.6514 C   0  0  2  0  0  0  0  0  0  0  0  0
    0.7465   -4.3685    6.3569 C   0  0  0  0  0  0  0  0  0  0  0  0
    0.9355   -3.3981    7.5314 C   0  0  0  0  0  0  0  0  0  0  0  0
    1.8304   -2.1476    7.2750 C   0  0  1  0  0  0  0  0  0  0  0  0
    2.3544   -1.7735    8.7014 C   0  0  0  0  0  0  0  0  0  0  0  0
    3.1011   -2.6238    6.5159 C   0  0  2  0  0  0  0  0  0  0  0  0
    4.0746   -1.4756    6.2543 C   0  0  0  0  0  0  0  0  0  0  0  0
    3.3832   -0.2604    5.6976 C   0  0  0  0  0  0  0  0  0  0  0  0
    2.0707    0.0340    5.8021 C   0  0  0  0  0  0  0  0  0  0  0  0
    1.5261    1.1563    4.8714 C   0  0  1  0  0  0  0  0  0  0  0  0
    0.3747    0.6533    3.9388 C   0  0  2  0  0  0  0  0  0  0  0  0
    0.9899   -0.3004    2.8858 C   0  0  0  0  0  0  0  0  0  0  0  0
   -0.2931    1.7852    3.0898 C   0  0  0  0  0  0  0  0  0  0  0  0
   -0.3025    3.1907    3.6866 C   0  0  0  0  0  0  0  0  0  0  0  0
    1.0812    3.5622    4.2237 C   0  0  1  0  0  0  0  0  0  0  0  0
    1.2081    5.0856    4.4421 C   0  0  0  0  0  0  0  0  0  0  0  0
    1.4580    2.6374    5.4274 C   0  0  0  0  0  0  0  0  0  0  0  0
    0.4552    2.8777    6.5791 C   0  0  0  0  0  0  0  0  0  0  0  0
    2.8519    3.0400    5.9622 C   0  0  0  0  0  0  0  0  0  0  0  0
   -0.6703   -0.1410    4.7609 C   0  0  0  0  0  0  0  0  0  0  0  0
   -0.0452   -1.3053    5.5786 C   0  0  0  0  0  0  0  0  0  0  0  0
    1.0777   -0.8941    6.5788 C   0  0  1  0  0  0  0  0  0  0  0  0
    0.3500   -0.1309    7.7107 C   0  0  0  0  0  0  0  0  0  0  0  0
    2.8194   -3.4715    5.2631 C   0  0  0  0  0  0  0  0  0  0  0  0
    0.9209   -7.8538    4.7296 C   0  0  1  0  0  0  0  0  0  0  0  0
    0.9477   -8.4409    6.1539 C   0  0  0  0  0  0  0  0  0  0  0  0
   -0.4730   -7.2606    4.4399 C   0  0  0  0  0  0  0  0  0  0  0  0
   -0.9960   -6.3504    5.0479 O   0  0  0  0  0  0  0  0  0  0  0  0
   -1.2245   -7.9898    3.3587 C   0  0  0  0  0  0  0  0  0  0  0  0
   -0.1144   -8.7042    2.6055 C   0  0  0  0  0  0  0  0  0  0  0  0
    1.0246   -8.9545    3.6373 C   0  0  1  0  0  0  0  0  0  0  0  0
    4.2461   -6.9816    2.7650 C   0  0  2  0  0  0  0  0  0  0  0  0
    4.3144   -5.5552    2.1989 C   0  0  0  0  0  0  0  0  0  0  0  0
    5.3659   -7.1436    3.8172 C   0  0  0  0  0  0  0  0  0  0  0  0
    5.2697   -6.8200    4.9834 O   0  0  0  0  0  0  0  0  0  0  0  0
    8.1029   -6.6660    4.5131 H   0  0  0  0  0  0  0  0  0  0  0  0
    7.6916   -5.7011    3.1095 H   0  0  0  0  0  0  0  0  0  0  0  0
    8.7776   -7.0722    2.9499 H   0  0  0  0  0  0  0  0  0  0  0  0
    6.8966   -8.6266    3.6159 H   0  0  0  0  0  0  0  0  0  0  0  0
    6.5757   -6.9303    1.1221 H   0  0  0  0  0  0  0  0  0  0  0  0
    6.8148   -8.6825    1.2350 H   0  0  0  0  0  0  0  0  0  0  0  0
    4.6502   -9.7423    0.6000 H   0  0  0  0  0  0  0  0  0  0  0  0
    2.0516   -9.0185    0.9058 H   0  0  0  0  0  0  0  0  0  0  0  0
    2.6534  -10.4731    1.6879 H   0  0  0  0  0  0  0  0  0  0  0  0
    3.1165   -9.3385    3.7791 H   0  0  0  0  0  0  0  0  0  0  0  0
    2.1347   -6.8689    2.3675 H   0  0  0  0  0  0  0  0  0  0  0  0
    2.8671   -7.1004    5.2566 H   0  0  0  0  0  0  0  0  0  0  0  0
    2.6778   -5.2965    6.3619 H   0  0  0  0  0  0  0  0  0  0  0  0
    0.0180   -4.0001    5.6372 H   0  0  0  0  0  0  0  0  0  0  0  0
    0.3195   -5.2697    6.7865 H   0  0  0  0  0  0  0  0  0  0  0  0
   -0.0414   -3.1093    7.9113 H   0  0  0  0  0  0  0  0  0  0  0  0
    1.3823   -3.9962    8.3274 H   0  0  0  0  0  0  0  0  0  0  0  0
    2.9238   -0.8454    8.7018 H   0  0  0  0  0  0  0  0  0  0  0  0
    3.0085   -2.5471    9.1068 H   0  0  0  0  0  0  0  0  0  0  0  0
    1.5538   -1.6763    9.4339 H   0  0  0  0  0  0  0  0  0  0  0  0
    3.6445   -3.3131    7.1660 H   0  0  0  0  0  0  0  0  0  0  0  0
    4.6026   -1.1932    7.1679 H   0  0  0  0  0  0  0  0  0  0  0  0
    4.8375   -1.7994    5.5447 H   0  0  0  0  0  0  0  0  0  0  0  0
    4.0383    0.3742    5.1163 H   0  0  0  0  0  0  0  0  0  0  0  0
    2.3389    1.2743    4.1527 H   0  0  0  0  0  0  0  0  0  0  0  0
    0.2225   -0.7767    2.2811 H   0  0  0  0  0  0  0  0  0  0  0  0
    1.5964   -1.0911    3.3205 H   0  0  0  0  0  0  0  0  0  0  0  0
    1.6420    0.2257    2.1883 H   0  0  0  0  0  0  0  0  0  0  0  0
    0.2084    1.8740    2.1249 H   0  0  0  0  0  0  0  0  0  0  0  0
   -1.3174    1.5061    2.8488 H   0  0  0  0  0  0  0  0  0  0  0  0
   -0.5853    3.8900    2.8928 H   0  0  0  0  0  0  0  0  0  0  0  0
   -1.0837    3.2987    4.4341 H   0  0  0  0  0  0  0  0  0  0  0  0
    1.7884    3.3542    3.4190 H   0  0  0  0  0  0  0  0  0  0  0  0
    0.5391    5.4672    5.2131 H   0  0  0  0  0  0  0  0  0  0  0  0
    0.9707    5.6166    3.5147 H   0  0  0  0  0  0  0  0  0  0  0  0
    2.2287    5.3732    4.6956 H   0  0  0  0  0  0  0  0  0  0  0  0
    0.3052    3.9396    6.7722 H   0  0  0  0  0  0  0  0  0  0  0  0
    0.8118    2.4673    7.5227 H   0  0  0  0  0  0  0  0  0  0  0  0
   -0.5292    2.4650    6.3659 H   0  0  0  0  0  0  0  0  0  0  0  0
    2.8499    4.0428    6.3937 H   0  0  0  0  0  0  0  0  0  0  0  0
    3.6032    3.0226    5.1703 H   0  0  0  0  0  0  0  0  0  0  0  0
    3.1897    2.3704    6.7569 H   0  0  0  0  0  0  0  0  0  0  0  0
   -1.2266    0.5338    5.4004 H   0  0  0  0  0  0  0  0  0  0  0  0
   -1.4193   -0.5569    4.0881 H   0  0  0  0  0  0  0  0  0  0  0  0
   -0.8491   -1.8216    6.1062 H   0  0  0  0  0  0  0  0  0  0  0  0
    0.3378   -2.0232    4.8659 H   0  0  0  0  0  0  0  0  0  0  0  0
   -0.1834   -0.8147    8.3701 H   0  0  0  0  0  0  0  0  0  0  0  0
   -0.4096    0.5537    7.3602 H   0  0  0  0  0  0  0  0  0  0  0  0
    1.0396    0.4412    8.3309 H   0  0  0  0  0  0  0  0  0  0  0  0
    3.7656   -3.7538    4.8047 H   0  0  0  0  0  0  0  0  0  0  0  0
    2.2694   -2.9108    4.5106 H   0  0  0  0  0  0  0  0  0  0  0  0
    1.8234   -9.0659    6.3120 H   0  0  0  0  0  0  0  0  0  0  0  0
    0.0773   -9.0615    6.3510 H   0  0  0  0  0  0  0  0  0  0  0  0
    0.9709   -7.6600    6.9098 H   0  0  0  0  0  0  0  0  0  0  0  0
   -1.9070   -8.6900    3.8439 H   0  0  0  0  0  0  0  0  0  0  0  0
   -1.7969   -7.2976    2.7364 H   0  0  0  0  0  0  0  0  0  0  0  0
   -0.4680   -9.6392    2.1597 H   0  0  0  0  0  0  0  0  0  0  0  0
    0.2180   -8.0492    1.7964 H   0  0  0  0  0  0  0  0  0  0  0  0
    0.8806   -9.9397    4.0808 H   0  0  0  0  0  0  0  0  0  0  0  0
    5.3410   -5.2249    2.0303 H   0  0  0  0  0  0  0  0  0  0  0  0
    3.8650   -4.8434    2.8810 H   0  0  0  0  0  0  0  0  0  0  0  0
    3.7907   -5.4816    1.2469 H   0  0  0  0  0  0  0  0  0  0  0  0
  1  2  1  0
  1 46  1  0
  1 47  1  0
  1 48  1  0
  2 44  1  0
  2  3  1  0
  2 49  1  1
  3  4  1  0
  3 50  1  0
  3 51  1  0
  4 42  1  0
  4  5  2  0
  5  6  1  0
  5 52  1  0
  6  7  1  0
  6 53  1  0
  6 54  1  0
  7 41  1  0
  7  8  1  0
  7 55  1  1
  8  9  1  0
  8 42  1  0
  8 56  1  6
  9 10  1  0
  9 35  1  0
  9 57  1  1
 10 11  1  0
 11 34  1  0
 11 12  1  0
 11 58  1  1
 12 13  1  0
 12 59  1  0
 12 60  1  0
 13 14  1  0
 13 61  1  0
 13 62  1  0
 14 32  1  0
 14 15  1  1
 14 16  1  0
 15 63  1  0
 15 64  1  0
 15 65  1  0
 16 17  1  0
 16 34  1  0
 16 66  1  1
 17 18  1  0
 17 67  1  0
 17 68  1  0
 18 19  2  0
 18 69  1  0
 19 32  1  0
 19 20  1  0
 20 27  1  0
 20 21  1  0
 20 70  1  6
 21 22  1  6
 21 23  1  0
 21 30  1  0
 22 71  1  0
 22 72  1  0
 22 73  1  0
 23 24  1  0
 23 74  1  0
 23 75  1  0
 24 25  1  0
 24 76  1  0
 24 77  1  0
 25 26  1  0
 25 27  1  0
 25 78  1  6
 26 79  1  0
 26 80  1  0
 26 81  1  0
 27 28  1  0
 27 29  1  0
 28 82  1  0
 28 83  1  0
 28 84  1  0
 29 85  1  0
 29 86  1  0
 29 87  1  0
 30 31  1  0
 30 88  1  0
 30 89  1  0
 31 32  1  0
 31 90  1  0
 31 91  1  0
 32 33  1  1
 33 92  1  0
 33 93  1  0
 33 94  1  0
 34 95  1  0
 34 96  1  0
 35 41  1  0
 35 36  1  1
 35 37  1  0
 36 97  1  0
 36 98  1  0
 36 99  1  0
 37 38  2  0
 37 39  1  0
 39 40  1  0
 39100  1  0
 39101  1  0
 40 41  1  0
 40102  1  0
 40103  1  0
 41104  1  1
 42 43  1  6
 42 44  1  0
 43105  1  0
 43106  1  0
 43107  1  0
 44 45  2  0
M  END
>  <i_m_ct_stereo_status>  (174) 
1

>  <s_m_source_file>  (174) 
/var/tmp/pbs.5076255.sched01/tmpguyree9i/45_f3p7e6s.sdf

>  <i_m_source_file_index>  (174) 
29

>  <i_lp_mmshare_version>  (174) 
48012

>  <i_f3d_flags>  (174) 
0

>  <s_epik_input>  (174) 
Tz1DMVtDSDJdW0NIMl1bQ0BIXShbQ0BdMTJbQ0gzXSlbQ0BASF0zW0NASF0oW0NAXTQoW0NIM10pQyg9W0NIXVtDSDJdMylbQ0gyXVtDQEBIXShbQ0gzXSlDND1PKVtDQEhdMk9bQ0BIXShbQ0gyXVtDSDJdNSlbQ0gyXVtDQEhdKFtDQF01NltDSDNdKVtDSDJdW0NIXT1DN1tDQEhdOFtDQEBdKFtDSDNdKShbQ0gyXVtDSDJdW0NAQF02N1tDSDNdKVtDSDJdW0NIMl1bQ0BASF0oW0NIM10pQzgoW0NIM10pW0NIM10=

>  <s_epik_cmdline>  (174) 
J2VwaWtfcHl0aG9uJywgJy1waHQnLCAnMi4wJywgJy1waCcsICc3LjAnLCAnLXRuJywgJzgnLCAnLW1hJywgJzIwMCcsICctaW1hZScsICc8aW5maWxlLm1hZT4nLCAnLW9tYWUnLCAnPG91dGZpbGUubWFlPic=

>  <r_lp_tautomer_probability>  (174) 
1

>  <r_epik_Ionization_Penalty>  (174) 
2.72779e-11

>  <r_epik_Ionization_Penalty_Charging>  (174) 
0

>  <r_epik_Ionization_Penalty_Neutral>  (174) 
2.72779e-11

>  <r_epik_State_Penalty>  (174) 
-0

>  <r_epik_Charging_Adjusted_Penalty>  (174) 
0

>  <i_epik_Tot_Q>  (174) 
0

>  <i_epik_Tot_abs_Q>  (174) 
0

>  <s_lp_Force_Field>  (174) 
OPLS3e

>  <r_lp_Energy>  (174) 
97.6415

>  <b_lp_Chiralities_Consistent>  (174) 
1

>  <s_lp_Variant>  (174) 
50:0-1

>  <s_i_glide_gridfile>  (174) 
pfpi4k_grid

>  <i_i_glide_lignum>  (174) 
29

>  <i_i_glide_rotatable_bonds>  (174) 
2

>  <r_i_docking_score>  (174) 
-2.11327

>  <r_i_glide_ligand_efficiency>  (174) 
-0.0469615

>  <r_i_glide_ligand_efficiency_sa>  (174) 
-0.167037

>  <r_i_glide_ligand_efficiency_ln>  (174) 
-0.439654

>  <r_i_glide_gscore>  (174) 
-2.11327

>  <r_i_glide_lipo>  (174) 
-0.148264

>  <r_i_glide_hbond>  (174) 
0

>  <r_i_glide_metal>  (174) 
-0

>  <r_i_glide_rewards>  (174) 
0

>  <r_i_glide_evdw>  (174) 
-38.0224

>  <r_i_glide_ecoul>  (174) 
-0.914212

>  <r_i_glide_erotb>  (174) 
0.111454

>  <r_i_glide_esite>  (174) 
-0.0382049

>  <r_i_glide_emodel>  (174) 
-42.8658

>  <r_i_glide_energy>  (174) 
-38.9366

>  <r_i_glide_einternal>  (174) 
2.16504

>  <r_i_glide_intrahb_reward>  (174) 
-0

>  <i_i_glide_confnum>  (174) 
5

>  <i_i_glide_posenum>  (174) 
17

>  <r_i_glide_eff_state_penalty>  (174) 
0

>  <ligand_id>  (174) 
50

>  <original_smiles>  (174) 
CC1CC2=CCC3C(C(OC4CCC5(C)C(CC=C6C7C(C)(CCC(C)C7(C)C)CCC65C)C4)C4(C)C(=O)CCC34)C2(C)C1=O

>  <smiles>  (174) 
[H]C1=C2C([H])([H])C([H])(C([H])([H])[H])C(=O)C2(C([H])([H])[H])C2([H])C([H])(OC3([H])C([H])([H])C([H])([H])C4(C([H])([H])[H])C([H])(C([H])([H])C([H])=C5C6([H])C(C([H])([H])[H])(C([H])([H])C([H])([H])C([H])(C([H])([H])[H])C6(C([H])([H])[H])C([H])([H])[H])C([H])([H])C([H])([H])C54C([H])([H])[H])C3([H])[H])C3(C([H])([H])[H])C(=O)C([H])([H])C([H])([H])C3([H])C2([H])C1([H])[H]

$$$$
51:0:0
     RDKit          3D

 29 30  0  0  1  0  0  0  0  0999 V2000
   -6.1613   -4.1538   -4.2226 C   0  0  0  0  0  0  0  0  0  0  0  0
   -5.4734   -5.3881   -4.4177 O   0  0  0  0  0  0  0  0  0  0  0  0
   -6.0631   -6.3271   -5.2327 C   0  0  0  0  0  0  0  0  0  0  0  0
   -7.2476   -6.0640   -5.9687 C   0  0  0  0  0  0  0  0  0  0  0  0
   -7.7866   -7.0523   -6.7871 C   0  0  0  0  0  0  0  0  0  0  0  0
   -7.1783   -8.3089   -6.8703 C   0  0  0  0  0  0  0  0  0  0  0  0
   -7.5231   -9.4342   -7.5691 N   0  0  0  0  0  0  0  0  0  0  0  0
   -6.6195  -10.4545   -7.3461 C   0  0  0  0  0  0  0  0  0  0  0  0
   -5.6480   -9.9991   -6.4805 C   0  0  0  0  0  0  0  0  0  0  0  0
   -4.4624  -10.7698   -5.9753 C   0  0  0  0  0  0  0  0  0  0  0  0
   -4.1920  -12.0585   -6.7717 C   0  0  0  0  0  0  0  0  0  0  0  0
   -2.9718  -12.7260   -6.3209 N   0  0  0  0  0  0  0  0  0  0  0  0
   -5.9872   -8.6277   -6.1539 C   0  0  0  0  0  0  0  0  0  0  0  0
   -5.4460   -7.6011   -5.3418 C   0  0  0  0  0  0  0  0  0  0  0  0
   -8.3311   -9.5087   -8.1662 H   0  0  0  0  0  0  0  0  0  0  0  0
   -5.6325   -3.4704   -3.5533 H   0  0  0  0  0  0  0  0  0  0  0  0
   -7.1447   -4.3433   -3.7892 H   0  0  0  0  0  0  0  0  0  0  0  0
   -6.2848   -3.6298   -5.1679 H   0  0  0  0  0  0  0  0  0  0  0  0
   -7.7868   -5.1241   -5.9554 H   0  0  0  0  0  0  0  0  0  0  0  0
   -8.6859   -6.8420   -7.3403 H   0  0  0  0  0  0  0  0  0  0  0  0
   -6.7532  -11.4169   -7.8267 H   0  0  0  0  0  0  0  0  0  0  0  0
   -3.5764  -10.1331   -6.0124 H   0  0  0  0  0  0  0  0  0  0  0  0
   -4.6101  -11.0305   -4.9257 H   0  0  0  0  0  0  0  0  0  0  0  0
   -5.0264  -12.7586   -6.6701 H   0  0  0  0  0  0  0  0  0  0  0  0
   -4.0768  -11.8301   -7.8345 H   0  0  0  0  0  0  0  0  0  0  0  0
   -2.8121  -13.5661   -6.8460 H   0  0  0  0  0  0  0  0  0  0  0  0
   -3.0514  -12.9919   -5.3197 H   0  0  0  0  0  0  0  0  0  0  0  0
   -4.5456   -7.8001   -4.7738 H   0  0  0  0  0  0  0  0  0  0  0  0
   -2.1937  -12.0872   -6.4293 H   0  0  0  0  0  0  0  0  0  0  0  0
  1  2  1  0
  1 16  1  0
  1 17  1  0
  1 18  1  0
  2  3  1  0
  3 14  2  0
  3  4  1  0
  4  5  2  0
  4 19  1  0
  5  6  1  0
  5 20  1  0
  6 13  2  0
  6  7  1  0
  7 15  1  0
  7  8  1  0
  8  9  2  0
  8 21  1  0
  9 10  1  0
  9 13  1  0
 10 11  1  0
 10 22  1  0
 10 23  1  0
 11 12  1  0
 11 24  1  0
 11 25  1  0
 12 26  1  0
 12 27  1  0
 12 29  1  0
 13 14  1  0
 14 28  1  0
M  CHG  1  12   1
M  END
>  <i_m_ct_stereo_status>  (175) 
1

>  <s_m_source_file>  (175) 
/var/tmp/pbs.5076255.sched01/tmpguyree9i/45_f3p7e6s.sdf

>  <i_m_source_file_index>  (175) 
30

>  <i_lp_mmshare_version>  (175) 
48012

>  <i_f3d_flags>  (175) 
0

>  <s_epik_input>  (175) 
W0NIM11PYyhbY0hdW2NIXTEpW2NIXWMoYzEyKWMoW2NIXVtuSF0yKVtDSDJdW0NIMl1bTkgyXQ==

>  <s_epik_cmdline>  (175) 
J2VwaWtfcHl0aG9uJywgJy1waHQnLCAnMi4wJywgJy1waCcsICc3LjAnLCAnLXRuJywgJzgnLCAnLW1hJywgJzIwMCcsICctaW1hZScsICc8aW5maWxlLm1hZT4nLCAnLW9tYWUnLCAnPG91dGZpbGUubWFlPic=

>  <r_epik_Ionization_Penalty>  (175) 
0.00146569

>  <r_epik_Ionization_Penalty_Charging>  (175) 
0.00146569

>  <r_epik_Ionization_Penalty_Neutral>  (175) 
2.0713e-09

>  <r_epik_State_Penalty>  (175) 
0.000980399

>  <r_epik_Charging_Adjusted_Penalty>  (175) 
0.00244609

>  <i_epik_Tot_Q>  (175) 
1

>  <i_epik_Tot_abs_Q>  (175) 
1

>  <s_lp_Force_Field>  (175) 
OPLS3e

>  <r_lp_Energy>  (175) 
19.7371

>  <b_lp_Chiralities_Consistent>  (175) 
1

>  <s_lp_Variant>  (175) 
51:0-1

>  <s_i_glide_gridfile>  (175) 
pfpi4k_grid

>  <i_i_glide_lignum>  (175) 
30

>  <i_i_glide_rotatable_bonds>  (175) 
3

>  <r_i_docking_score>  (175) 
-6.26875

>  <r_i_glide_ligand_efficiency>  (175) 
-0.447768

>  <r_i_glide_ligand_efficiency_sa>  (175) 
-1.07918

>  <r_i_glide_ligand_efficiency_ln>  (175) 
-1.72263

>  <r_i_glide_gscore>  (175) 
-6.26875

>  <r_i_glide_lipo>  (175) 
-2.04509

>  <r_i_glide_hbond>  (175) 
-0.113234

>  <r_i_glide_metal>  (175) 
-0

>  <r_i_glide_rewards>  (175) 
-2.32178

>  <r_i_glide_evdw>  (175) 
-20.1513

>  <r_i_glide_ecoul>  (175) 
-7.77975

>  <r_i_glide_erotb>  (175) 
0.439846

>  <r_i_glide_esite>  (175) 
-0.0539569

>  <r_i_glide_emodel>  (175) 
-37.9901

>  <r_i_glide_energy>  (175) 
-27.931

>  <r_i_glide_einternal>  (175) 
4.53644

>  <r_i_glide_intrahb_reward>  (175) 
-0

>  <i_i_glide_confnum>  (175) 
4

>  <i_i_glide_posenum>  (175) 
4

>  <r_i_glide_eff_state_penalty>  (175) 
0

>  <ligand_id>  (175) 
51

>  <original_smiles>  (175) 
COc1ccc2[nH]cc(CCN)c2c1

>  <smiles>  (175) 
[H]c1c(OC([H])([H])[H])c([H])c2c(C([H])([H])C([H])([H])[N+]([H])([H])[H])c([H])n([H])c2c1[H]

$$$$
51:0:1
     RDKit          3D

 29 30  0  0  1  0  0  0  0  0999 V2000
   -6.0340   -3.7915   -3.9149 C   0  0  0  0  0  0  0  0  0  0  0  0
   -5.3780   -4.7513   -4.7291 O   0  0  0  0  0  0  0  0  0  0  0  0
   -6.1590   -5.6460   -5.4062 C   0  0  0  0  0  0  0  0  0  0  0  0
   -7.4676   -5.3315   -5.8314 C   0  0  0  0  0  0  0  0  0  0  0  0
   -8.1793   -6.2663   -6.5758 C   0  0  0  0  0  0  0  0  0  0  0  0
   -7.6051   -7.5114   -6.8663 C   0  0  0  0  0  0  0  0  0  0  0  0
   -8.0975   -8.6063   -7.5363 N   0  0  0  0  0  0  0  0  0  0  0  0
   -7.1669   -9.6261   -7.5955 C   0  0  0  0  0  0  0  0  0  0  0  0
   -6.0299   -9.2072   -6.9496 C   0  0  0  0  0  0  0  0  0  0  0  0
   -4.7511   -9.9671   -6.8135 C   0  0  0  0  0  0  0  0  0  0  0  0
   -4.7306  -10.9179   -5.6219 C   0  0  0  0  0  0  0  0  0  0  0  0
   -3.3682  -11.4531   -5.4317 N   0  0  0  0  0  0  0  0  0  0  0  0
   -6.2955   -7.8758   -6.4575 C   0  0  0  0  0  0  0  0  0  0  0  0
   -5.5761   -6.8980   -5.7258 C   0  0  0  0  0  0  0  0  0  0  0  0
   -9.0244   -8.6782   -7.9148 H   0  0  0  0  0  0  0  0  0  0  0  0
   -5.3040   -3.1241   -3.4611 H   0  0  0  0  0  0  0  0  0  0  0  0
   -6.6146   -4.2792   -3.1371 H   0  0  0  0  0  0  0  0  0  0  0  0
   -6.6939   -3.1566   -4.5045 H   0  0  0  0  0  0  0  0  0  0  0  0
   -7.9578   -4.3824   -5.6294 H   0  0  0  0  0  0  0  0  0  0  0  0
   -9.1779   -6.0362   -6.8804 H   0  0  0  0  0  0  0  0  0  0  0  0
   -7.3655  -10.5614   -8.1027 H   0  0  0  0  0  0  0  0  0  0  0  0
   -4.5203  -10.5088   -7.7409 H   0  0  0  0  0  0  0  0  0  0  0  0
   -3.9804   -9.2320   -6.5997 H   0  0  0  0  0  0  0  0  0  0  0  0
   -4.9663  -10.3582   -4.7086 H   0  0  0  0  0  0  0  0  0  0  0  0
   -5.4328  -11.7462   -5.7652 H   0  0  0  0  0  0  0  0  0  0  0  0
   -3.3841  -12.0883   -4.6345 H   0  0  0  0  0  0  0  0  0  0  0  0
   -2.7454  -10.6957   -5.1958 H   0  0  0  0  0  0  0  0  0  0  0  0
   -4.5542   -7.0841   -5.4302 H   0  0  0  0  0  0  0  0  0  0  0  0
   -3.0099  -11.9615   -6.2273 H   0  0  0  0  0  0  0  0  0  0  0  0
  1  2  1  0
  1 16  1  0
  1 17  1  0
  1 18  1  0
  2  3  1  0
  3 14  2  0
  3  4  1  0
  4  5  2  0
  4 19  1  0
  5  6  1  0
  5 20  1  0
  6 13  2  0
  6  7  1  0
  7 15  1  0
  7  8  1  0
  8  9  2  0
  8 21  1  0
  9 10  1  0
  9 13  1  0
 10 11  1  0
 10 22  1  0
 10 23  1  0
 11 12  1  0
 11 24  1  0
 11 25  1  0
 12 26  1  0
 12 27  1  0
 12 29  1  0
 13 14  1  0
 14 28  1  0
M  CHG  1  12   1
M  END
>  <i_m_ct_stereo_status>  (176) 
1

>  <s_m_source_file>  (176) 
/var/tmp/pbs.5076255.sched01/tmpguyree9i/45_f3p7e6s.sdf

>  <i_m_source_file_index>  (176) 
30

>  <i_lp_mmshare_version>  (176) 
48012

>  <i_f3d_flags>  (176) 
0

>  <s_epik_input>  (176) 
W0NIM11PYyhbY0hdW2NIXTEpW2NIXWMoYzEyKWMoW2NIXVtuSF0yKVtDSDJdW0NIMl1bTkgyXQ==

>  <s_epik_cmdline>  (176) 
J2VwaWtfcHl0aG9uJywgJy1waHQnLCAnMi4wJywgJy1waCcsICc3LjAnLCAnLXRuJywgJzgnLCAnLW1hJywgJzIwMCcsICctaW1hZScsICc8aW5maWxlLm1hZT4nLCAnLW9tYWUnLCAnPG91dGZpbGUubWFlPic=

>  <r_epik_Ionization_Penalty>  (176) 
0.00146569

>  <r_epik_Ionization_Penalty_Charging>  (176) 
0.00146569

>  <r_epik_Ionization_Penalty_Neutral>  (176) 
2.0713e-09

>  <r_epik_State_Penalty>  (176) 
0.000980399

>  <r_epik_Charging_Adjusted_Penalty>  (176) 
0.00244609

>  <i_epik_Tot_Q>  (176) 
1

>  <i_epik_Tot_abs_Q>  (176) 
1

>  <s_lp_Force_Field>  (176) 
OPLS3e

>  <r_lp_Energy>  (176) 
19.7371

>  <b_lp_Chiralities_Consistent>  (176) 
1

>  <s_lp_Variant>  (176) 
51:0-1

>  <s_i_glide_gridfile>  (176) 
pfpi4k_grid

>  <i_i_glide_lignum>  (176) 
30

>  <i_i_glide_rotatable_bonds>  (176) 
3

>  <r_i_docking_score>  (176) 
-5.74222

>  <r_i_glide_ligand_efficiency>  (176) 
-0.410159

>  <r_i_glide_ligand_efficiency_sa>  (176) 
-0.988541

>  <r_i_glide_ligand_efficiency_ln>  (176) 
-1.57794

>  <r_i_glide_gscore>  (176) 
-5.74222

>  <r_i_glide_lipo>  (176) 
-1.89362

>  <r_i_glide_hbond>  (176) 
0

>  <r_i_glide_metal>  (176) 
-0

>  <r_i_glide_rewards>  (176) 
-2.3943

>  <r_i_glide_evdw>  (176) 
-14.9129

>  <r_i_glide_ecoul>  (176) 
-7.3808

>  <r_i_glide_erotb>  (176) 
0.439846

>  <r_i_glide_esite>  (176) 
-0.041383

>  <r_i_glide_emodel>  (176) 
-30.7295

>  <r_i_glide_energy>  (176) 
-22.2937

>  <r_i_glide_einternal>  (176) 
5.29206

>  <r_i_glide_intrahb_reward>  (176) 
-0

>  <i_i_glide_confnum>  (176) 
2

>  <i_i_glide_posenum>  (176) 
13

>  <r_i_glide_eff_state_penalty>  (176) 
0

>  <ligand_id>  (176) 
51

>  <original_smiles>  (176) 
COc1ccc2[nH]cc(CCN)c2c1

>  <smiles>  (176) 
[H]c1c(OC([H])([H])[H])c([H])c2c(C([H])([H])C([H])([H])[N+]([H])([H])[H])c([H])n([H])c2c1[H]

$$$$
51:0:2
     RDKit          3D

 29 30  0  0  1  0  0  0  0  0999 V2000
    1.8899   -6.1851    0.5663 C   0  0  0  0  0  0  0  0  0  0  0  0
    2.0820   -5.1669    1.5438 O   0  0  0  0  0  0  0  0  0  0  0  0
    2.7876   -4.0380    1.1752 C   0  0  0  0  0  0  0  0  0  0  0  0
    3.0488   -3.0765    2.1763 C   0  0  0  0  0  0  0  0  0  0  0  0
    3.7354   -1.8900    1.8560 C   0  0  0  0  0  0  0  0  0  0  0  0
    4.1228   -1.6536    0.5259 C   0  0  0  0  0  0  0  0  0  0  0  0
    4.7815   -0.6061   -0.0831 N   0  0  0  0  0  0  0  0  0  0  0  0
    4.8869   -0.8093   -1.4510 C   0  0  0  0  0  0  0  0  0  0  0  0
    4.3227   -2.0158   -1.7646 C   0  0  0  0  0  0  0  0  0  0  0  0
    4.2151   -2.6031   -3.1447 C   0  0  0  0  0  0  0  0  0  0  0  0
    2.7684   -2.6674   -3.6959 C   0  0  0  0  0  0  0  0  0  0  0  0
    1.9013   -3.4403   -2.7918 N   0  0  0  0  0  0  0  0  0  0  0  0
    3.8669   -2.5881   -0.5169 C   0  0  0  0  0  0  0  0  0  0  0  0
    3.2424   -3.8095   -0.1418 C   0  0  0  0  0  0  0  0  0  0  0  0
    5.0853    0.2500    0.3587 H   0  0  0  0  0  0  0  0  0  0  0  0
    1.3624   -7.0248    1.0183 H   0  0  0  0  0  0  0  0  0  0  0  0
    2.8479   -6.5575    0.2010 H   0  0  0  0  0  0  0  0  0  0  0  0
    1.2926   -5.8528   -0.2867 H   0  0  0  0  0  0  0  0  0  0  0  0
    2.7445   -3.2756    3.1935 H   0  0  0  0  0  0  0  0  0  0  0  0
    3.9630   -1.1635    2.6220 H   0  0  0  0  0  0  0  0  0  0  0  0
    5.3414   -0.0675   -2.0966 H   0  0  0  0  0  0  0  0  0  0  0  0
    4.8024   -2.0066   -3.8523 H   0  0  0  0  0  0  0  0  0  0  0  0
    4.6735   -3.5930   -3.1414 H   0  0  0  0  0  0  0  0  0  0  0  0
    2.3597   -1.6577   -3.8136 H   0  0  0  0  0  0  0  0  0  0  0  0
    2.7708   -3.1506   -4.6768 H   0  0  0  0  0  0  0  0  0  0  0  0
    0.9653   -3.5291   -3.1618 H   0  0  0  0  0  0  0  0  0  0  0  0
    1.8643   -2.9520   -1.9106 H   0  0  0  0  0  0  0  0  0  0  0  0
    3.1160   -4.5619   -0.9086 H   0  0  0  0  0  0  0  0  0  0  0  0
    2.2661   -4.3794   -2.7071 H   0  0  0  0  0  0  0  0  0  0  0  0
  1  2  1  0
  1 16  1  0
  1 17  1  0
  1 18  1  0
  2  3  1  0
  3 14  2  0
  3  4  1  0
  4  5  2  0
  4 19  1  0
  5  6  1  0
  5 20  1  0
  6 13  2  0
  6  7  1  0
  7 15  1  0
  7  8  1  0
  8  9  2  0
  8 21  1  0
  9 10  1  0
  9 13  1  0
 10 11  1  0
 10 22  1  0
 10 23  1  0
 11 12  1  0
 11 24  1  0
 11 25  1  0
 12 26  1  0
 12 27  1  0
 12 29  1  0
 13 14  1  0
 14 28  1  0
M  CHG  1  12   1
M  END
>  <i_m_ct_stereo_status>  (177) 
1

>  <s_m_source_file>  (177) 
/var/tmp/pbs.5076255.sched01/tmpguyree9i/45_f3p7e6s.sdf

>  <i_m_source_file_index>  (177) 
30

>  <i_lp_mmshare_version>  (177) 
48012

>  <i_f3d_flags>  (177) 
0

>  <s_epik_input>  (177) 
W0NIM11PYyhbY0hdW2NIXTEpW2NIXWMoYzEyKWMoW2NIXVtuSF0yKVtDSDJdW0NIMl1bTkgyXQ==

>  <s_epik_cmdline>  (177) 
J2VwaWtfcHl0aG9uJywgJy1waHQnLCAnMi4wJywgJy1waCcsICc3LjAnLCAnLXRuJywgJzgnLCAnLW1hJywgJzIwMCcsICctaW1hZScsICc8aW5maWxlLm1hZT4nLCAnLW9tYWUnLCAnPG91dGZpbGUubWFlPic=

>  <r_epik_Ionization_Penalty>  (177) 
0.00146569

>  <r_epik_Ionization_Penalty_Charging>  (177) 
0.00146569

>  <r_epik_Ionization_Penalty_Neutral>  (177) 
2.0713e-09

>  <r_epik_State_Penalty>  (177) 
0.000980399

>  <r_epik_Charging_Adjusted_Penalty>  (177) 
0.00244609

>  <i_epik_Tot_Q>  (177) 
1

>  <i_epik_Tot_abs_Q>  (177) 
1

>  <s_lp_Force_Field>  (177) 
OPLS3e

>  <r_lp_Energy>  (177) 
19.7371

>  <b_lp_Chiralities_Consistent>  (177) 
1

>  <s_lp_Variant>  (177) 
51:0-1

>  <s_i_glide_gridfile>  (177) 
pfpi4k_grid

>  <i_i_glide_lignum>  (177) 
30

>  <i_i_glide_rotatable_bonds>  (177) 
3

>  <r_i_docking_score>  (177) 
-4.19041

>  <r_i_glide_ligand_efficiency>  (177) 
-0.299315

>  <r_i_glide_ligand_efficiency_sa>  (177) 
-0.721391

>  <r_i_glide_ligand_efficiency_ln>  (177) 
-1.15151

>  <r_i_glide_gscore>  (177) 
-4.19041

>  <r_i_glide_lipo>  (177) 
-0.363777

>  <r_i_glide_hbond>  (177) 
-0.0430435

>  <r_i_glide_metal>  (177) 
-0

>  <r_i_glide_rewards>  (177) 
-2.10512

>  <r_i_glide_evdw>  (177) 
-14.8778

>  <r_i_glide_ecoul>  (177) 
-9.16283

>  <r_i_glide_erotb>  (177) 
0.439846

>  <r_i_glide_esite>  (177) 
0

>  <r_i_glide_emodel>  (177) 
-30.146

>  <r_i_glide_energy>  (177) 
-24.0407

>  <r_i_glide_einternal>  (177) 
3.37354

>  <r_i_glide_intrahb_reward>  (177) 
-0

>  <i_i_glide_confnum>  (177) 
2

>  <i_i_glide_posenum>  (177) 
12

>  <r_i_glide_eff_state_penalty>  (177) 
0

>  <ligand_id>  (177) 
51

>  <original_smiles>  (177) 
COc1ccc2[nH]cc(CCN)c2c1

>  <smiles>  (177) 
[H]c1c(OC([H])([H])[H])c([H])c2c(C([H])([H])C([H])([H])[N+]([H])([H])[H])c([H])n([H])c2c1[H]

$$$$
52:0:0
     RDKit          3D

 73 78  0  0  1  0  0  0  0  0999 V2000
   -0.5372   -8.5184    4.8775 C   0  0  0  0  0  0  0  0  0  0  0  0
    0.0170   -7.4285    3.9682 C   0  0  0  0  0  0  0  0  0  0  0  0
   -0.6662   -6.9177    3.0776 O   0  0  0  0  0  0  0  0  0  0  0  0
    1.2852   -7.0893    4.2914 O   0  0  0  0  0  0  0  0  0  0  0  0
    2.0321   -6.1199    3.5503 C   0  0  2  0  0  0  0  0  0  0  0  0
    2.9296   -7.0494    2.6896 C   0  0  0  0  0  0  0  0  0  0  0  0
    3.9195   -6.5309    1.6264 C   0  0  1  0  0  0  0  0  0  0  0  0
    4.4775   -7.7961    0.9865 C   0  0  0  0  0  0  0  0  0  0  0  0
    3.7225   -5.2975    0.7475 C   0  0  2  0  0  0  0  0  0  0  0  0
    3.4389   -3.7867    0.6620 C   0  0  2  0  0  0  0  0  0  0  0  0
    2.5545   -3.6478   -0.5997 C   0  0  0  0  0  0  0  0  0  0  0  0
    4.7448   -2.9689    0.3614 C   0  0  2  0  0  0  0  0  0  0  0  0
    6.1387   -3.5856    0.7105 C   0  0  0  0  0  0  0  0  0  0  0  0
    6.1320   -5.0893    1.0274 C   0  0  0  0  0  0  0  0  0  0  0  0
    4.8625   -5.4115    1.7921 C   0  0  2  0  0  0  0  0  0  0  0  0
    5.0080   -4.9848    3.2581 C   0  0  0  0  0  0  0  0  0  0  0  0
    3.8738   -4.2098    4.0131 C   0  0  2  0  0  0  0  0  0  0  0  0
    4.5759   -3.6830    5.3094 C   0  0  0  0  0  0  0  0  0  0  0  0
    3.7365   -2.7377    6.1660 C   0  0  0  0  0  0  0  0  0  0  0  0
    2.2977   -3.1838    6.3419 C   0  0  0  0  0  0  0  0  0  0  0  0
    1.5762   -2.5207    7.0885 O   0  0  0  0  0  0  0  0  0  0  0  0
    1.7212   -4.4188    5.6029 C   0  0  0  0  0  0  0  0  0  0  0  0
    1.3121   -5.3832    6.7526 C   0  0  0  0  0  0  0  0  0  0  0  0
    0.4374   -3.9267    4.8911 C   0  0  0  0  0  0  0  0  0  0  0  0
    2.7214   -5.1421    4.5850 C   0  0  1  0  0  0  0  0  0  0  0  0
    3.4276   -2.9726    3.1748 C   0  0  1  0  0  0  0  0  0  0  0  0
    4.6212   -2.2155    2.9830 O   0  0  0  0  0  0  0  0  0  0  0  0
    4.7161   -1.1825    2.0530 C   0  0  0  0  0  0  0  0  0  0  0  0
    3.7907    0.0225    2.3748 C   0  0  0  0  0  0  0  0  0  0  0  0
    6.1251   -0.6605    2.1858 C   0  0  0  0  0  0  0  0  0  0  0  0
    4.5467   -1.5914    0.7182 O   0  0  0  0  0  0  0  0  0  0  0  0
    2.6601   -3.2840    1.8788 C   0  0  1  0  0  0  0  0  0  0  0  0
    1.8270   -2.1815    1.6329 O   0  0  0  0  0  0  0  0  0  0  0  0
   -0.5251   -8.2059    5.9223 H   0  0  0  0  0  0  0  0  0  0  0  0
    0.0611   -9.4256    4.7948 H   0  0  0  0  0  0  0  0  0  0  0  0
   -1.5643   -8.7661    4.6100 H   0  0  0  0  0  0  0  0  0  0  0  0
    1.3277   -5.5968    2.9145 H   0  0  0  0  0  0  0  0  0  0  0  0
    3.4968   -7.6967    3.3650 H   0  0  0  0  0  0  0  0  0  0  0  0
    2.2513   -7.7289    2.1582 H   0  0  0  0  0  0  0  0  0  0  0  0
    5.1544   -7.5406    0.1860 H   0  0  0  0  0  0  0  0  0  0  0  0
    3.6917   -8.4061    0.5462 H   0  0  0  0  0  0  0  0  0  0  0  0
    5.0207   -8.4012    1.7135 H   0  0  0  0  0  0  0  0  0  0  0  0
    3.9355   -5.6278   -0.2545 H   0  0  0  0  0  0  0  0  0  0  0  0
    2.3406   -2.6071   -0.8331 H   0  0  0  0  0  0  0  0  0  0  0  0
    1.6106   -4.1804   -0.5123 H   0  0  0  0  0  0  0  0  0  0  0  0
    3.0427   -4.0361   -1.4889 H   0  0  0  0  0  0  0  0  0  0  0  0
    4.7962   -2.9184   -0.7257 H   0  0  0  0  0  0  0  0  0  0  0  0
    6.8327   -3.3775   -0.1042 H   0  0  0  0  0  0  0  0  0  0  0  0
    6.5909   -3.1291    1.5687 H   0  0  0  0  0  0  0  0  0  0  0  0
    6.1494   -5.6275    0.0940 H   0  0  0  0  0  0  0  0  0  0  0  0
    7.0177   -5.3939    1.5894 H   0  0  0  0  0  0  0  0  0  0  0  0
    5.2607   -5.8797    3.8287 H   0  0  0  0  0  0  0  0  0  0  0  0
    5.9147   -4.3783    3.3282 H   0  0  0  0  0  0  0  0  0  0  0  0
    4.8635   -4.5226    5.9391 H   0  0  0  0  0  0  0  0  0  0  0  0
    5.5174   -3.1696    5.0810 H   0  0  0  0  0  0  0  0  0  0  0  0
    4.1917   -2.6109    7.1475 H   0  0  0  0  0  0  0  0  0  0  0  0
    3.7175   -1.7505    5.7148 H   0  0  0  0  0  0  0  0  0  0  0  0
    0.6058   -6.1514    6.4508 H   0  0  0  0  0  0  0  0  0  0  0  0
    0.8300   -4.8675    7.5819 H   0  0  0  0  0  0  0  0  0  0  0  0
    2.1836   -5.8799    7.1745 H   0  0  0  0  0  0  0  0  0  0  0  0
   -0.1842   -4.7482    4.5496 H   0  0  0  0  0  0  0  0  0  0  0  0
    0.6651   -3.3098    4.0272 H   0  0  0  0  0  0  0  0  0  0  0  0
   -0.2024   -3.3320    5.5425 H   0  0  0  0  0  0  0  0  0  0  0  0
    3.2697   -5.8513    5.2063 H   0  0  0  0  0  0  0  0  0  0  0  0
    2.7705   -2.3544    3.7801 H   0  0  0  0  0  0  0  0  0  0  0  0
    2.7337   -0.1694    2.2880 H   0  0  0  0  0  0  0  0  0  0  0  0
    4.0073    0.8201    1.6630 H   0  0  0  0  0  0  0  0  0  0  0  0
    3.9708    0.3969    3.3878 H   0  0  0  0  0  0  0  0  0  0  0  0
    6.7655   -1.4230    2.5725 H   0  0  0  0  0  0  0  0  0  0  0  0
    6.1759    0.1566    2.9063 H   0  0  0  0  0  0  0  0  0  0  0  0
    6.4947   -0.3411    1.2162 H   0  0  0  0  0  0  0  0  0  0  0  0
    1.9004   -4.0150    2.0742 H   0  0  0  0  0  0  0  0  0  0  0  0
    1.9976   -1.8373    0.7626 H   0  0  0  0  0  0  0  0  0  0  0  0
  1  2  1  0
  1 34  1  0
  1 35  1  0
  1 36  1  0
  2  3  2  0
  2  4  1  0
  4  5  1  0
  5 25  1  0
  5  6  1  0
  5 37  1  6
  6  7  1  0
  6 38  1  0
  6 39  1  0
  7 15  1  0
  7  8  1  6
  7  9  1  0
  8 40  1  0
  8 41  1  0
  8 42  1  0
  9 15  1  0
  9 10  1  0
  9 43  1  6
 10 32  1  0
 10 11  1  6
 10 12  1  0
 11 44  1  0
 11 45  1  0
 11 46  1  0
 12 31  1  0
 12 13  1  0
 12 47  1  6
 13 14  1  0
 13 48  1  0
 13 49  1  0
 15 14  1  6
 14 50  1  0
 14 51  1  0
 15 16  1  0
 16 17  1  0
 16 52  1  0
 16 53  1  0
 17 25  1  0
 17 18  1  1
 17 26  1  0
 18 19  1  0
 18 54  1  0
 18 55  1  0
 19 20  1  0
 19 56  1  0
 19 57  1  0
 20 21  2  0
 20 22  1  0
 22 23  1  0
 22 24  1  0
 22 25  1  0
 23 58  1  0
 23 59  1  0
 23 60  1  0
 24 61  1  0
 24 62  1  0
 24 63  1  0
 25 64  1  1
 26 27  1  0
 26 32  1  0
 26 65  1  1
 27 28  1  0
 28 29  1  0
 28 30  1  0
 28 31  1  0
 29 66  1  0
 29 67  1  0
 29 68  1  0
 30 69  1  0
 30 70  1  0
 30 71  1  0
 32 33  1  0
 32 72  1  1
 33 73  1  0
M  END
>  <i_m_ct_stereo_status>  (178) 
1

>  <s_m_source_file>  (178) 
/var/tmp/pbs.5076255.sched01/tmpguyree9i/45_f3p7e6s.sdf

>  <i_m_source_file_index>  (178) 
31

>  <i_lp_mmshare_version>  (178) 
48012

>  <i_f3d_flags>  (178) 
0

>  <s_epik_input>  (178) 
W0NIM11DKD1PKU9bQ0BIXShbQ0gyXTEpW0NASF0oQyhbQ0gzXSkoW0NIM10pQyg9TylbQ0gyXVtDSDJdMilDMihbQ0gyXTMpW0NASF0oW0NASF00W09IXSlPQyhbQ0gzXSkoW0NIM10pT1tDQEBIXShbQ0gyXVtDSDJdNSlbQ0BAXTQoW0NIM10pW0NAQEhdNltDQF0xKFtDQEBdMzU2KVtDSDNd

>  <s_epik_cmdline>  (178) 
J2VwaWtfcHl0aG9uJywgJy1waHQnLCAnMi4wJywgJy1waCcsICc3LjAnLCAnLXRuJywgJzgnLCAnLW1hJywgJzIwMCcsICctaW1hZScsICc8aW5maWxlLm1hZT4nLCAnLW9tYWUnLCAnPG91dGZpbGUubWFlPic=

>  <r_lp_tautomer_probability>  (178) 
1

>  <r_epik_Ionization_Penalty>  (178) 
4.73466e-08

>  <r_epik_Ionization_Penalty_Charging>  (178) 
0

>  <r_epik_Ionization_Penalty_Neutral>  (178) 
4.73466e-08

>  <r_epik_State_Penalty>  (178) 
-0

>  <r_epik_Charging_Adjusted_Penalty>  (178) 
0

>  <i_epik_Tot_Q>  (178) 
0

>  <i_epik_Tot_abs_Q>  (178) 
0

>  <s_epik_Chemistry_Notes>  (178) 
This compound has an ester and may undergo hydrolysis at high or low pH.

>  <s_lp_Force_Field>  (178) 
OPLS3e

>  <r_lp_Energy>  (178) 
121.756

>  <b_lp_Chiralities_Consistent>  (178) 
1

>  <s_lp_Variant>  (178) 
52:0-1

>  <s_i_glide_gridfile>  (178) 
pfpi4k_grid

>  <i_i_glide_lignum>  (178) 
31

>  <i_i_glide_rotatable_bonds>  (178) 
3

>  <r_i_docking_score>  (178) 
-2.33608

>  <r_i_glide_ligand_efficiency>  (178) 
-0.0707902

>  <r_i_glide_ligand_efficiency_sa>  (178) 
-0.227062

>  <r_i_glide_ligand_efficiency_ln>  (178) 
-0.519531

>  <r_i_glide_gscore>  (178) 
-2.33608

>  <r_i_glide_lipo>  (178) 
-0.374241

>  <r_i_glide_hbond>  (178) 
-0.16

>  <r_i_glide_metal>  (178) 
-0

>  <r_i_glide_rewards>  (178) 
-0.362031

>  <r_i_glide_evdw>  (178) 
-21.96

>  <r_i_glide_ecoul>  (178) 
-2.67903

>  <r_i_glide_erotb>  (178) 
0.0948821

>  <r_i_glide_esite>  (178) 
-0.0348307

>  <r_i_glide_emodel>  (178) 
-26.0795

>  <r_i_glide_energy>  (178) 
-24.6391

>  <r_i_glide_einternal>  (178) 
1.3206

>  <r_i_glide_intrahb_reward>  (178) 
-0

>  <i_i_glide_confnum>  (178) 
1

>  <i_i_glide_posenum>  (178) 
11

>  <r_i_glide_eff_state_penalty>  (178) 
0

>  <ligand_id>  (178) 
52

>  <original_smiles>  (178) 
CC(=O)OC1CC2(C)C3C4(C)C5CCC32CC2(CCC(=O)C(C)(C)C12)C(OC(C)(C)O5)C4O

>  <smiles>  (178) 
[H]OC1([H])C2([H])OC(C([H])([H])[H])(C([H])([H])[H])OC3([H])C([H])([H])C([H])([H])C45C([H])([H])C26C([H])([H])C([H])([H])C(=O)C(C([H])([H])[H])(C([H])([H])[H])C6([H])C([H])(OC(=O)C([H])([H])[H])C([H])([H])C4(C([H])([H])[H])C5([H])C31C([H])([H])[H]

$$$$
52:0:1
     RDKit          3D

 73 78  0  0  1  0  0  0  0  0999 V2000
    1.5434   -4.1398    7.7275 C   0  0  0  0  0  0  0  0  0  0  0  0
    1.8812   -4.4937    6.2689 C   0  0  0  0  0  0  0  0  0  0  0  0
    1.2390   -5.3134    5.6291 O   0  0  0  0  0  0  0  0  0  0  0  0
    2.9251   -3.7517    5.8053 O   0  0  0  0  0  0  0  0  0  0  0  0
    3.4225   -3.8791    4.4655 C   0  0  2  0  0  0  0  0  0  0  0  0
    4.7992   -4.5785    4.7039 C   0  0  0  0  0  0  0  0  0  0  0  0
    5.7441   -5.0347    3.5863 C   0  0  1  0  0  0  0  0  0  0  0  0
    6.8794   -5.7793    4.2701 C   0  0  0  0  0  0  0  0  0  0  0  0
    5.3165   -5.5304    2.1866 C   0  0  2  0  0  0  0  0  0  0  0  0
    4.5178   -5.2611    0.9216 C   0  0  2  0  0  0  0  0  0  0  0  0
    4.0001   -6.6694    0.5401 C   0  0  0  0  0  0  0  0  0  0  0  0
    5.4552   -4.7871   -0.2642 C   0  0  2  0  0  0  0  0  0  0  0  0
    6.8423   -4.1292    0.0570 C   0  0  0  0  0  0  0  0  0  0  0  0
    7.3103   -4.3566    1.4771 C   0  0  0  0  0  0  0  0  0  0  0  0
    6.1218   -4.2212    2.3928 C   0  0  2  0  0  0  0  0  0  0  0  0
    5.7068   -2.7445    2.5111 C   0  0  0  0  0  0  0  0  0  0  0  0
    4.2262   -2.2531    2.4452 C   0  0  2  0  0  0  0  0  0  0  0  0
    4.3746   -0.6992    2.3146 C   0  0  0  0  0  0  0  0  0  0  0  0
    3.0726    0.0475    2.0319 C   0  0  0  0  0  0  0  0  0  0  0  0
    1.9096   -0.4299    2.8766 C   0  0  0  0  0  0  0  0  0  0  0  0
    0.8565    0.1999    2.7869 O   0  0  0  0  0  0  0  0  0  0  0  0
    2.0316   -1.6533    3.8390 C   0  0  0  0  0  0  0  0  0  0  0  0
    1.7501   -1.0565    5.2421 C   0  0  0  0  0  0  0  0  0  0  0  0
    0.8726   -2.5986    3.4601 C   0  0  0  0  0  0  0  0  0  0  0  0
    3.4303   -2.4318    3.8070 C   0  0  1  0  0  0  0  0  0  0  0  0
    3.5534   -2.8097    1.1317 C   0  0  1  0  0  0  0  0  0  0  0  0
    4.3939   -2.3011    0.0824 O   0  0  0  0  0  0  0  0  0  0  0  0
    4.3858   -2.7879   -1.2207 C   0  0  0  0  0  0  0  0  0  0  0  0
    3.0280   -2.5174   -1.8858 C   0  0  0  0  0  0  0  0  0  0  0  0
    5.4422   -1.9641   -1.9816 C   0  0  0  0  0  0  0  0  0  0  0  0
    4.7219   -4.1517   -1.3204 O   0  0  0  0  0  0  0  0  0  0  0  0
    3.2991   -4.3421    1.1393 C   0  0  1  0  0  0  0  0  0  0  0  0
    2.2019   -4.6397    0.2981 O   0  0  0  0  0  0  0  0  0  0  0  0
    1.4868   -3.0639    7.8728 H   0  0  0  0  0  0  0  0  0  0  0  0
    2.3035   -4.5224    8.4043 H   0  0  0  0  0  0  0  0  0  0  0  0
    0.5851   -4.5586    8.0254 H   0  0  0  0  0  0  0  0  0  0  0  0
    2.7594   -4.5674    3.9513 H   0  0  0  0  0  0  0  0  0  0  0  0
    5.3904   -3.9495    5.3795 H   0  0  0  0  0  0  0  0  0  0  0  0
    4.5837   -5.4819    5.2835 H   0  0  0  0  0  0  0  0  0  0  0  0
    7.6146   -6.1496    3.5635 H   0  0  0  0  0  0  0  0  0  0  0  0
    6.4982   -6.6299    4.8349 H   0  0  0  0  0  0  0  0  0  0  0  0
    7.3959   -5.1089    4.9628 H   0  0  0  0  0  0  0  0  0  0  0  0
    5.8839   -6.4344    2.0216 H   0  0  0  0  0  0  0  0  0  0  0  0
    3.4866   -6.6261   -0.4169 H   0  0  0  0  0  0  0  0  0  0  0  0
    3.3160   -7.0558    1.2999 H   0  0  0  0  0  0  0  0  0  0  0  0
    4.8118   -7.3901    0.4215 H   0  0  0  0  0  0  0  0  0  0  0  0
    5.7797   -5.7276   -0.6960 H   0  0  0  0  0  0  0  0  0  0  0  0
    7.6276   -4.4859   -0.6023 H   0  0  0  0  0  0  0  0  0  0  0  0
    6.8574   -3.0638   -0.1114 H   0  0  0  0  0  0  0  0  0  0  0  0
    7.7712   -5.3360    1.5536 H   0  0  0  0  0  0  0  0  0  0  0  0
    8.0858   -3.6218    1.6995 H   0  0  0  0  0  0  0  0  0  0  0  0
    6.1071   -2.4062    3.4646 H   0  0  0  0  0  0  0  0  0  0  0  0
    6.3001   -2.1770    1.7758 H   0  0  0  0  0  0  0  0  0  0  0  0
    4.8071   -0.2849    3.2313 H   0  0  0  0  0  0  0  0  0  0  0  0
    5.0892   -0.4115    1.5300 H   0  0  0  0  0  0  0  0  0  0  0  0
    3.2098    1.1162    2.1920 H   0  0  0  0  0  0  0  0  0  0  0  0
    2.7813   -0.0789    0.9918 H   0  0  0  0  0  0  0  0  0  0  0  0
    1.4642   -1.7987    5.9785 H   0  0  0  0  0  0  0  0  0  0  0  0
    0.9264   -0.3463    5.2301 H   0  0  0  0  0  0  0  0  0  0  0  0
    2.6074   -0.5116    5.6244 H   0  0  0  0  0  0  0  0  0  0  0  0
    0.6425   -3.3691    4.1900 H   0  0  0  0  0  0  0  0  0  0  0  0
    1.0775   -3.0614    2.4963 H   0  0  0  0  0  0  0  0  0  0  0  0
   -0.0331   -2.0212    3.2634 H   0  0  0  0  0  0  0  0  0  0  0  0
    4.0586   -1.8970    4.5198 H   0  0  0  0  0  0  0  0  0  0  0  0
    2.5894   -2.3296    0.9807 H   0  0  0  0  0  0  0  0  0  0  0  0
    2.2030   -3.0491   -1.4316 H   0  0  0  0  0  0  0  0  0  0  0  0
    3.0982   -2.8329   -2.9211 H   0  0  0  0  0  0  0  0  0  0  0  0
    2.7885   -1.4510   -1.8758 H   0  0  0  0  0  0  0  0  0  0  0  0
    6.2046   -1.5441   -1.3254 H   0  0  0  0  0  0  0  0  0  0  0  0
    4.9791   -1.1100   -2.4744 H   0  0  0  0  0  0  0  0  0  0  0  0
    5.9085   -2.5940   -2.7410 H   0  0  0  0  0  0  0  0  0  0  0  0
    2.8865   -4.6382    2.0947 H   0  0  0  0  0  0  0  0  0  0  0  0
    2.5224   -4.5731   -0.6093 H   0  0  0  0  0  0  0  0  0  0  0  0
  1  2  1  0
  1 34  1  0
  1 35  1  0
  1 36  1  0
  2  3  2  0
  2  4  1  0
  4  5  1  0
  5 25  1  0
  5  6  1  0
  5 37  1  6
  6  7  1  0
  6 38  1  0
  6 39  1  0
  7 15  1  0
  7  8  1  1
  7  9  1  0
  8 40  1  0
  8 41  1  0
  8 42  1  0
  9 15  1  0
  9 10  1  0
  9 43  1  6
 10 32  1  0
 10 11  1  6
 10 12  1  0
 11 44  1  0
 11 45  1  0
 11 46  1  0
 12 31  1  0
 12 13  1  0
 12 47  1  6
 13 14  1  0
 13 48  1  0
 13 49  1  0
 15 14  1  6
 14 50  1  0
 14 51  1  0
 15 16  1  0
 16 17  1  0
 16 52  1  0
 16 53  1  0
 17 25  1  0
 17 18  1  6
 17 26  1  0
 18 19  1  0
 18 54  1  0
 18 55  1  0
 19 20  1  0
 19 56  1  0
 19 57  1  0
 20 21  2  0
 20 22  1  0
 22 23  1  0
 22 24  1  0
 22 25  1  0
 23 58  1  0
 23 59  1  0
 23 60  1  0
 24 61  1  0
 24 62  1  0
 24 63  1  0
 25 64  1  1
 26 27  1  0
 26 32  1  0
 26 65  1  6
 27 28  1  0
 28 29  1  0
 28 30  1  0
 28 31  1  0
 29 66  1  0
 29 67  1  0
 29 68  1  0
 30 69  1  0
 30 70  1  0
 30 71  1  0
 32 33  1  0
 32 72  1  1
 33 73  1  0
M  END
>  <i_m_ct_stereo_status>  (179) 
1

>  <s_m_source_file>  (179) 
/var/tmp/pbs.5076255.sched01/tmpguyree9i/45_f3p7e6s.sdf

>  <i_m_source_file_index>  (179) 
31

>  <i_lp_mmshare_version>  (179) 
48012

>  <i_f3d_flags>  (179) 
0

>  <s_epik_input>  (179) 
W0NIM11DKD1PKU9bQ0BIXShbQ0gyXTEpW0NASF0oQyhbQ0gzXSkoW0NIM10pQyg9TylbQ0gyXVtDSDJdMilDMihbQ0gyXTMpW0NASF0oW0NASF00W09IXSlPQyhbQ0gzXSkoW0NIM10pT1tDQEBIXShbQ0gyXVtDSDJdNSlbQ0BAXTQoW0NIM10pW0NAQEhdNltDQF0xKFtDQEBdMzU2KVtDSDNd

>  <s_epik_cmdline>  (179) 
J2VwaWtfcHl0aG9uJywgJy1waHQnLCAnMi4wJywgJy1waCcsICc3LjAnLCAnLXRuJywgJzgnLCAnLW1hJywgJzIwMCcsICctaW1hZScsICc8aW5maWxlLm1hZT4nLCAnLW9tYWUnLCAnPG91dGZpbGUubWFlPic=

>  <r_lp_tautomer_probability>  (179) 
1

>  <r_epik_Ionization_Penalty>  (179) 
4.73466e-08

>  <r_epik_Ionization_Penalty_Charging>  (179) 
0

>  <r_epik_Ionization_Penalty_Neutral>  (179) 
4.73466e-08

>  <r_epik_State_Penalty>  (179) 
-0

>  <r_epik_Charging_Adjusted_Penalty>  (179) 
0

>  <i_epik_Tot_Q>  (179) 
0

>  <i_epik_Tot_abs_Q>  (179) 
0

>  <s_epik_Chemistry_Notes>  (179) 
This compound has an ester and may undergo hydrolysis at high or low pH.

>  <s_lp_Force_Field>  (179) 
OPLS3e

>  <r_lp_Energy>  (179) 
121.756

>  <b_lp_Chiralities_Consistent>  (179) 
1

>  <s_lp_Variant>  (179) 
52:0-1

>  <s_i_glide_gridfile>  (179) 
pfpi4k_grid

>  <i_i_glide_lignum>  (179) 
31

>  <i_i_glide_rotatable_bonds>  (179) 
3

>  <r_i_docking_score>  (179) 
-1.84417

>  <r_i_glide_ligand_efficiency>  (179) 
-0.0558839

>  <r_i_glide_ligand_efficiency_sa>  (179) 
-0.17925

>  <r_i_glide_ligand_efficiency_ln>  (179) 
-0.410134

>  <r_i_glide_gscore>  (179) 
-1.84417

>  <r_i_glide_lipo>  (179) 
-0.61762

>  <r_i_glide_hbond>  (179) 
0

>  <r_i_glide_metal>  (179) 
-0

>  <r_i_glide_rewards>  (179) 
-0.268617

>  <r_i_glide_evdw>  (179) 
-17.8504

>  <r_i_glide_ecoul>  (179) 
-0.88061

>  <r_i_glide_erotb>  (179) 
0.0948821

>  <r_i_glide_esite>  (179) 
-0.0282012

>  <r_i_glide_emodel>  (179) 
-20.1954

>  <r_i_glide_energy>  (179) 
-18.731

>  <r_i_glide_einternal>  (179) 
0.379322

>  <r_i_glide_intrahb_reward>  (179) 
-0

>  <i_i_glide_confnum>  (179) 
2

>  <i_i_glide_posenum>  (179) 
2

>  <r_i_glide_eff_state_penalty>  (179) 
0

>  <ligand_id>  (179) 
52

>  <original_smiles>  (179) 
CC(=O)OC1CC2(C)C3C4(C)C5CCC32CC2(CCC(=O)C(C)(C)C12)C(OC(C)(C)O5)C4O

>  <smiles>  (179) 
[H]OC1([H])C2([H])OC(C([H])([H])[H])(C([H])([H])[H])OC3([H])C([H])([H])C([H])([H])C45C([H])([H])C26C([H])([H])C([H])([H])C(=O)C(C([H])([H])[H])(C([H])([H])[H])C6([H])C([H])(OC(=O)C([H])([H])[H])C([H])([H])C4(C([H])([H])[H])C5([H])C31C([H])([H])[H]

$$$$
52:0:2
     RDKit          3D

 73 78  0  0  1  0  0  0  0  0999 V2000
   -0.6221   -4.8902    7.3716 C   0  0  0  0  0  0  0  0  0  0  0  0
    0.1433   -5.0413    6.0620 C   0  0  0  0  0  0  0  0  0  0  0  0
   -0.2872   -5.7316    5.1390 O   0  0  0  0  0  0  0  0  0  0  0  0
    1.2993   -4.3451    6.0558 O   0  0  0  0  0  0  0  0  0  0  0  0
    2.1532   -4.2943    4.9077 C   0  0  2  0  0  0  0  0  0  0  0  0
    3.0095   -5.5908    5.0615 C   0  0  0  0  0  0  0  0  0  0  0  0
    4.0625   -6.0500    4.0405 C   0  0  1  0  0  0  0  0  0  0  0  0
    4.5337   -7.4108    4.5465 C   0  0  0  0  0  0  0  0  0  0  0  0
    3.9868   -5.8334    2.5261 C   0  0  2  0  0  0  0  0  0  0  0  0
    3.8311   -4.8519    1.3594 C   0  0  2  0  0  0  0  0  0  0  0  0
    2.9748   -5.6225    0.3291 C   0  0  0  0  0  0  0  0  0  0  0  0
    5.2116   -4.5455    0.6507 C   0  0  2  0  0  0  0  0  0  0  0  0
    6.5412   -4.7764    1.4491 C   0  0  0  0  0  0  0  0  0  0  0  0
    6.3916   -5.5790    2.7526 C   0  0  0  0  0  0  0  0  0  0  0  0
    5.0844   -5.1970    3.4161 C   0  0  2  0  0  0  0  0  0  0  0  0
    5.2010   -3.8352    4.1297 C   0  0  0  0  0  0  0  0  0  0  0  0
    4.1237   -2.7098    3.9820 C   0  0  2  0  0  0  0  0  0  0  0  0
    4.8353   -1.4405    4.5535 C   0  0  0  0  0  0  0  0  0  0  0  0
    4.0621   -0.1366    4.3812 C   0  0  0  0  0  0  0  0  0  0  0  0
    2.5853   -0.2537    4.7078 C   0  0  0  0  0  0  0  0  0  0  0  0
    1.9099    0.7751    4.6964 O   0  0  0  0  0  0  0  0  0  0  0  0
    1.9303   -1.6239    5.0501 C   0  0  0  0  0  0  0  0  0  0  0  0
    1.4155   -1.4293    6.5082 C   0  0  0  0  0  0  0  0  0  0  0  0
    0.7039   -1.7711    4.1103 C   0  0  0  0  0  0  0  0  0  0  0  0
    2.8939   -2.8978    4.9528 C   0  0  1  0  0  0  0  0  0  0  0  0
    3.8199   -2.4516    2.4629 C   0  0  1  0  0  0  0  0  0  0  0  0
    5.0857   -2.1071    1.8901 O   0  0  0  0  0  0  0  0  0  0  0  0
    5.3386   -2.0835    0.5180 C   0  0  0  0  0  0  0  0  0  0  0  0
    4.4845   -1.0088   -0.2016 C   0  0  0  0  0  0  0  0  0  0  0  0
    6.8174   -1.6703    0.3615 C   0  0  0  0  0  0  0  0  0  0  0  0
    5.1591   -3.3277   -0.1123 O   0  0  0  0  0  0  0  0  0  0  0  0
    3.0559   -3.5897    1.7563 C   0  0  1  0  0  0  0  0  0  0  0  0
    2.3158   -3.0352    0.7006 O   0  0  0  0  0  0  0  0  0  0  0  0
   -0.8760   -3.8460    7.5503 H   0  0  0  0  0  0  0  0  0  0  0  0
   -0.0200   -5.2487    8.2066 H   0  0  0  0  0  0  0  0  0  0  0  0
   -1.5487   -5.4627    7.3443 H   0  0  0  0  0  0  0  0  0  0  0  0
    1.4984   -4.3775    4.0483 H   0  0  0  0  0  0  0  0  0  0  0  0
    3.4969   -5.5608    6.0382 H   0  0  0  0  0  0  0  0  0  0  0  0
    2.3093   -6.4249    5.1272 H   0  0  0  0  0  0  0  0  0  0  0  0
    5.2728   -7.8573    3.8835 H   0  0  0  0  0  0  0  0  0  0  0  0
    3.7002   -8.1090    4.6093 H   0  0  0  0  0  0  0  0  0  0  0  0
    4.9856   -7.3176    5.5339 H   0  0  0  0  0  0  0  0  0  0  0  0
    4.1968   -6.8096    2.0872 H   0  0  0  0  0  0  0  0  0  0  0  0
    2.8672   -5.0505   -0.5977 H   0  0  0  0  0  0  0  0  0  0  0  0
    1.9820   -5.8567    0.7049 H   0  0  0  0  0  0  0  0  0  0  0  0
    3.4493   -6.5612    0.0402 H   0  0  0  0  0  0  0  0  0  0  0  0
    5.2953   -5.2992   -0.1341 H   0  0  0  0  0  0  0  0  0  0  0  0
    7.2676   -5.2591    0.7954 H   0  0  0  0  0  0  0  0  0  0  0  0
    7.0054   -3.8479    1.7243 H   0  0  0  0  0  0  0  0  0  0  0  0
    6.3926   -6.6373    2.4961 H   0  0  0  0  0  0  0  0  0  0  0  0
    7.2351   -5.4452    3.4281 H   0  0  0  0  0  0  0  0  0  0  0  0
    5.3724   -4.0416    5.1889 H   0  0  0  0  0  0  0  0  0  0  0  0
    6.1295   -3.3945    3.7954 H   0  0  0  0  0  0  0  0  0  0  0  0
    5.0509   -1.5699    5.6178 H   0  0  0  0  0  0  0  0  0  0  0  0
    5.8085   -1.2830    4.0923 H   0  0  0  0  0  0  0  0  0  0  0  0
    4.5055    0.6451    5.0000 H   0  0  0  0  0  0  0  0  0  0  0  0
    4.1485    0.2144    3.3513 H   0  0  0  0  0  0  0  0  0  0  0  0
    0.6532   -2.1441    6.7985 H   0  0  0  0  0  0  0  0  0  0  0  0
    0.9530   -0.4529    6.6635 H   0  0  0  0  0  0  0  0  0  0  0  0
    2.2328   -1.4974    7.2272 H   0  0  0  0  0  0  0  0  0  0  0  0
    0.0315   -2.5663    4.4228 H   0  0  0  0  0  0  0  0  0  0  0  0
    1.0096   -1.9797    3.0853 H   0  0  0  0  0  0  0  0  0  0  0  0
    0.0981   -0.8640    4.0753 H   0  0  0  0  0  0  0  0  0  0  0  0
    3.3649   -2.9506    5.9343 H   0  0  0  0  0  0  0  0  0  0  0  0
    3.1935   -1.5698    2.3724 H   0  0  0  0  0  0  0  0  0  0  0  0
    3.4183   -1.1871   -0.1922 H   0  0  0  0  0  0  0  0  0  0  0  0
    4.7866   -0.9691   -1.2462 H   0  0  0  0  0  0  0  0  0  0  0  0
    4.6482   -0.0210    0.2359 H   0  0  0  0  0  0  0  0  0  0  0  0
    7.3956   -1.8886    1.2574 H   0  0  0  0  0  0  0  0  0  0  0  0
    6.8967   -0.5937    0.2190 H   0  0  0  0  0  0  0  0  0  0  0  0
    7.2577   -2.1807   -0.4929 H   0  0  0  0  0  0  0  0  0  0  0  0
    2.2485   -3.9295    2.3813 H   0  0  0  0  0  0  0  0  0  0  0  0
    2.8939   -2.5403    0.1450 H   0  0  0  0  0  0  0  0  0  0  0  0
  1  2  1  0
  1 34  1  0
  1 35  1  0
  1 36  1  0
  2  3  2  0
  2  4  1  0
  4  5  1  0
  5 25  1  0
  5  6  1  0
  5 37  1  6
  6  7  1  0
  6 38  1  0
  6 39  1  0
  7 15  1  0
  7  8  1  6
  7  9  1  0
  8 40  1  0
  8 41  1  0
  8 42  1  0
  9 15  1  0
  9 10  1  0
  9 43  1  6
 10 32  1  0
 10 11  1  6
 10 12  1  0
 11 44  1  0
 11 45  1  0
 11 46  1  0
 12 31  1  0
 12 13  1  0
 12 47  1  6
 13 14  1  0
 13 48  1  0
 13 49  1  0
 15 14  1  6
 14 50  1  0
 14 51  1  0
 15 16  1  0
 16 17  1  0
 16 52  1  0
 16 53  1  0
 17 25  1  0
 17 18  1  1
 17 26  1  0
 18 19  1  0
 18 54  1  0
 18 55  1  0
 19 20  1  0
 19 56  1  0
 19 57  1  0
 20 21  2  0
 20 22  1  0
 22 23  1  0
 22 24  1  0
 22 25  1  0
 23 58  1  0
 23 59  1  0
 23 60  1  0
 24 61  1  0
 24 62  1  0
 24 63  1  0
 25 64  1  1
 26 27  1  0
 26 32  1  0
 26 65  1  1
 27 28  1  0
 28 29  1  0
 28 30  1  0
 28 31  1  0
 29 66  1  0
 29 67  1  0
 29 68  1  0
 30 69  1  0
 30 70  1  0
 30 71  1  0
 32 33  1  0
 32 72  1  1
 33 73  1  0
M  END
>  <i_m_ct_stereo_status>  (180) 
1

>  <s_m_source_file>  (180) 
/var/tmp/pbs.5076255.sched01/tmpguyree9i/45_f3p7e6s.sdf

>  <i_m_source_file_index>  (180) 
31

>  <i_lp_mmshare_version>  (180) 
48012

>  <i_f3d_flags>  (180) 
0

>  <s_epik_input>  (180) 
W0NIM11DKD1PKU9bQ0BIXShbQ0gyXTEpW0NASF0oQyhbQ0gzXSkoW0NIM10pQyg9TylbQ0gyXVtDSDJdMilDMihbQ0gyXTMpW0NASF0oW0NASF00W09IXSlPQyhbQ0gzXSkoW0NIM10pT1tDQEBIXShbQ0gyXVtDSDJdNSlbQ0BAXTQoW0NIM10pW0NAQEhdNltDQF0xKFtDQEBdMzU2KVtDSDNd

>  <s_epik_cmdline>  (180) 
J2VwaWtfcHl0aG9uJywgJy1waHQnLCAnMi4wJywgJy1waCcsICc3LjAnLCAnLXRuJywgJzgnLCAnLW1hJywgJzIwMCcsICctaW1hZScsICc8aW5maWxlLm1hZT4nLCAnLW9tYWUnLCAnPG91dGZpbGUubWFlPic=

>  <r_lp_tautomer_probability>  (180) 
1

>  <r_epik_Ionization_Penalty>  (180) 
4.73466e-08

>  <r_epik_Ionization_Penalty_Charging>  (180) 
0

>  <r_epik_Ionization_Penalty_Neutral>  (180) 
4.73466e-08

>  <r_epik_State_Penalty>  (180) 
-0

>  <r_epik_Charging_Adjusted_Penalty>  (180) 
0

>  <i_epik_Tot_Q>  (180) 
0

>  <i_epik_Tot_abs_Q>  (180) 
0

>  <s_epik_Chemistry_Notes>  (180) 
This compound has an ester and may undergo hydrolysis at high or low pH.

>  <s_lp_Force_Field>  (180) 
OPLS3e

>  <r_lp_Energy>  (180) 
121.756

>  <b_lp_Chiralities_Consistent>  (180) 
1

>  <s_lp_Variant>  (180) 
52:0-1

>  <s_i_glide_gridfile>  (180) 
pfpi4k_grid

>  <i_i_glide_lignum>  (180) 
31

>  <i_i_glide_rotatable_bonds>  (180) 
3

>  <r_i_docking_score>  (180) 
-1.49694

>  <r_i_glide_ligand_efficiency>  (180) 
-0.045362

>  <r_i_glide_ligand_efficiency_sa>  (180) 
-0.1455

>  <r_i_glide_ligand_efficiency_ln>  (180) 
-0.332913

>  <r_i_glide_gscore>  (180) 
-1.49694

>  <r_i_glide_lipo>  (180) 
-0.273195

>  <r_i_glide_hbond>  (180) 
0

>  <r_i_glide_metal>  (180) 
-0

>  <r_i_glide_rewards>  (180) 
-0.3335

>  <r_i_glide_evdw>  (180) 
-21.1823

>  <r_i_glide_ecoul>  (180) 
0.521094

>  <r_i_glide_erotb>  (180) 
0.0948821

>  <r_i_glide_esite>  (180) 
-0.00417967

>  <r_i_glide_emodel>  (180) 
-22.0604

>  <r_i_glide_energy>  (180) 
-20.6612

>  <r_i_glide_einternal>  (180) 
0.498891

>  <r_i_glide_intrahb_reward>  (180) 
-0

>  <i_i_glide_confnum>  (180) 
1

>  <i_i_glide_posenum>  (180) 
6

>  <r_i_glide_eff_state_penalty>  (180) 
0

>  <ligand_id>  (180) 
52

>  <original_smiles>  (180) 
CC(=O)OC1CC2(C)C3C4(C)C5CCC32CC2(CCC(=O)C(C)(C)C12)C(OC(C)(C)O5)C4O

>  <smiles>  (180) 
[H]OC1([H])C2([H])OC(C([H])([H])[H])(C([H])([H])[H])OC3([H])C([H])([H])C([H])([H])C45C([H])([H])C26C([H])([H])C([H])([H])C(=O)C(C([H])([H])[H])(C([H])([H])[H])C6([H])C([H])(OC(=O)C([H])([H])[H])C([H])([H])C4(C([H])([H])[H])C5([H])C31C([H])([H])[H]

$$$$
52:1:0
     RDKit          3D

 73 78  0  0  1  0  0  0  0  0999 V2000
    0.6353   -7.7360    4.7058 C   0  0  0  0  0  0  0  0  0  0  0  0
    0.0077   -7.0331    3.4804 C   0  0  0  0  0  0  0  0  0  0  0  0
   -1.1225   -7.2761    3.0935 O   0  0  0  0  0  0  0  0  0  0  0  0
    0.7902   -6.1219    2.8433 O   0  0  0  0  0  0  0  0  0  0  0  0
    2.0622   -5.6778    3.2874 C   0  0  2  0  0  0  0  0  0  0  0  0
    1.8286   -4.3939    4.2798 C   0  0  0  0  0  0  0  0  0  0  0  0
    2.1971   -2.8318    4.1061 C   0  0  1  0  0  0  0  0  0  0  0  0
    1.3297   -2.1139    5.1401 C   0  0  0  0  0  0  0  0  0  0  0  0
    3.5187   -1.9485    3.6660 C   0  0  2  0  0  0  0  0  0  0  0  0
    4.5398   -1.4277    2.4896 C   0  0  2  0  0  0  0  0  0  0  0  0
    5.4279   -0.3799    3.2154 C   0  0  0  0  0  0  0  0  0  0  0  0
    3.8613   -0.6135    1.3083 C   0  0  2  0  0  0  0  0  0  0  0  0
    2.5618    0.0208    1.8300 C   0  0  0  0  0  0  0  0  0  0  0  0
    1.5665   -1.0743    2.2518 C   0  0  0  0  0  0  0  0  0  0  0  0
    2.3284   -2.2880    2.8043 C   0  0  2  0  0  0  0  0  0  0  0  0
    2.5428   -3.3973    1.8596 C   0  0  0  0  0  0  0  0  0  0  0  0
    3.8226   -4.3348    2.1194 C   0  0  1  0  0  0  0  0  0  0  0  0
    4.6447   -4.6343    3.4914 C   0  0  0  0  0  0  0  0  0  0  0  0
    5.7058   -5.7391    3.3158 C   0  0  0  0  0  0  0  0  0  0  0  0
    5.0310   -7.0562    2.9250 C   0  0  0  0  0  0  0  0  0  0  0  0
    5.3770   -8.1098    3.4634 O   0  0  0  0  0  0  0  0  0  0  0  0
    3.9265   -7.0018    1.8466 C   0  0  0  0  0  0  0  0  0  0  0  0
    4.6127   -7.0603    0.4796 C   0  0  0  0  0  0  0  0  0  0  0  0
    3.0549   -8.2978    1.9650 C   0  0  0  0  0  0  0  0  0  0  0  0
    3.0538   -5.6812    2.0089 C   0  0  1  0  0  0  0  0  0  0  0  0
    4.8956   -3.6987    1.1571 C   0  0  1  0  0  0  0  0  0  0  0  0
    4.4309   -3.4425   -0.1747 O   0  0  0  0  0  0  0  0  0  0  0  0
    4.1223   -2.1707   -0.7138 C   0  0  0  0  0  0  0  0  0  0  0  0
    5.3386   -1.4726   -1.3546 C   0  0  0  0  0  0  0  0  0  0  0  0
    3.1421   -2.5217   -1.8365 C   0  0  0  0  0  0  0  0  0  0  0  0
    3.4173   -1.2820    0.1147 O   0  0  0  0  0  0  0  0  0  0  0  0
    5.5243   -2.4776    1.8763 C   0  0  1  0  0  0  0  0  0  0  0  0
    6.6092   -1.9431    1.1503 O   0  0  0  0  0  0  0  0  0  0  0  0
    1.5681   -8.2465    4.4646 H   0  0  0  0  0  0  0  0  0  0  0  0
   -0.0762   -8.4870    5.1155 H   0  0  0  0  0  0  0  0  0  0  0  0
    0.7750   -7.0133    5.5209 H   0  0  0  0  0  0  0  0  0  0  0  0
    2.4818   -6.4390    3.9362 H   0  0  0  0  0  0  0  0  0  0  0  0
    0.7578   -4.3988    4.4923 H   0  0  0  0  0  0  0  0  0  0  0  0
    2.2269   -4.6704    5.2507 H   0  0  0  0  0  0  0  0  0  0  0  0
    1.4900   -1.0421    5.1157 H   0  0  0  0  0  0  0  0  0  0  0  0
    1.5540   -2.4658    6.1495 H   0  0  0  0  0  0  0  0  0  0  0  0
    0.2773   -2.2893    4.9200 H   0  0  0  0  0  0  0  0  0  0  0  0
    3.5073   -1.1384    4.3925 H   0  0  0  0  0  0  0  0  0  0  0  0
    6.1222    0.1219    2.5437 H   0  0  0  0  0  0  0  0  0  0  0  0
    5.9924   -0.8217    4.0319 H   0  0  0  0  0  0  0  0  0  0  0  0
    4.8242    0.4174    3.6383 H   0  0  0  0  0  0  0  0  0  0  0  0
    4.5424    0.1734    0.9834 H   0  0  0  0  0  0  0  0  0  0  0  0
    2.7953    0.6566    2.6835 H   0  0  0  0  0  0  0  0  0  0  0  0
    2.1086    0.6602    1.0817 H   0  0  0  0  0  0  0  0  0  0  0  0
    0.8744   -0.6793    2.9909 H   0  0  0  0  0  0  0  0  0  0  0  0
    0.9667   -1.3939    1.4004 H   0  0  0  0  0  0  0  0  0  0  0  0
    1.5693   -3.8737    1.8649 H   0  0  0  0  0  0  0  0  0  0  0  0
    2.3985   -3.1028    0.8388 H   0  0  0  0  0  0  0  0  0  0  0  0
    5.0835   -3.7902    4.0131 H   0  0  0  0  0  0  0  0  0  0  0  0
    4.1049   -5.0407    4.3323 H   0  0  0  0  0  0  0  0  0  0  0  0
    6.4600   -5.5079    2.5650 H   0  0  0  0  0  0  0  0  0  0  0  0
    6.2474   -5.8937    4.2519 H   0  0  0  0  0  0  0  0  0  0  0  0
    3.9051   -6.8260   -0.3215 H   0  0  0  0  0  0  0  0  0  0  0  0
    4.9998   -8.0686    0.2811 H   0  0  0  0  0  0  0  0  0  0  0  0
    5.4632   -6.3908    0.3791 H   0  0  0  0  0  0  0  0  0  0  0  0
    2.1909   -8.2290    1.2873 H   0  0  0  0  0  0  0  0  0  0  0  0
    2.7309   -8.4694    2.9815 H   0  0  0  0  0  0  0  0  0  0  0  0
    3.6272   -9.1772    1.6039 H   0  0  0  0  0  0  0  0  0  0  0  0
    2.4606   -5.6595    1.0856 H   0  0  0  0  0  0  0  0  0  0  0  0
    5.6976   -4.4028    1.0109 H   0  0  0  0  0  0  0  0  0  0  0  0
    5.7603   -0.7003   -0.7174 H   0  0  0  0  0  0  0  0  0  0  0  0
    5.0397   -0.9573   -2.2738 H   0  0  0  0  0  0  0  0  0  0  0  0
    6.1019   -2.2045   -1.6106 H   0  0  0  0  0  0  0  0  0  0  0  0
    2.2811   -3.0445   -1.4354 H   0  0  0  0  0  0  0  0  0  0  0  0
    3.6194   -3.1661   -2.5762 H   0  0  0  0  0  0  0  0  0  0  0  0
    2.7848   -1.6122   -2.3231 H   0  0  0  0  0  0  0  0  0  0  0  0
    6.1503   -2.8240    2.6868 H   0  0  0  0  0  0  0  0  0  0  0  0
    7.0071   -1.2657    1.6802 H   0  0  0  0  0  0  0  0  0  0  0  0
  1  2  1  0
  1 34  1  0
  1 35  1  0
  1 36  1  0
  2  3  2  0
  2  4  1  0
  4  5  1  0
  5 25  1  0
  5  6  1  0
  5 37  1  1
  6  7  1  0
  6 38  1  0
  6 39  1  0
  7 15  1  0
  7  8  1  1
  7  9  1  0
  8 40  1  0
  8 41  1  0
  8 42  1  0
  9 15  1  0
  9 10  1  0
  9 43  1  1
 10 32  1  0
 10 11  1  1
 10 12  1  0
 11 44  1  0
 11 45  1  0
 11 46  1  0
 12 31  1  0
 12 13  1  0
 12 47  1  6
 13 14  1  0
 13 48  1  0
 13 49  1  0
 15 14  1  6
 14 50  1  0
 14 51  1  0
 15 16  1  0
 16 17  1  0
 16 52  1  0
 16 53  1  0
 17 25  1  0
 17 18  1  1
 17 26  1  0
 18 19  1  0
 18 54  1  0
 18 55  1  0
 19 20  1  0
 19 56  1  0
 19 57  1  0
 20 21  2  0
 20 22  1  0
 22 23  1  0
 22 24  1  0
 22 25  1  0
 23 58  1  0
 23 59  1  0
 23 60  1  0
 24 61  1  0
 24 62  1  0
 24 63  1  0
 25 64  1  6
 26 27  1  0
 26 32  1  0
 26 65  1  6
 27 28  1  0
 28 29  1  0
 28 30  1  0
 28 31  1  0
 29 66  1  0
 29 67  1  0
 29 68  1  0
 30 69  1  0
 30 70  1  0
 30 71  1  0
 32 33  1  0
 32 72  1  1
 33 73  1  0
M  END
>  <i_m_ct_stereo_status>  (181) 
1

>  <s_m_source_file>  (181) 
/var/tmp/pbs.5076255.sched01/tmpguyree9i/45_f3p7e6s.sdf

>  <i_m_source_file_index>  (181) 
32

>  <i_lp_mmshare_version>  (181) 
48012

>  <i_f3d_flags>  (181) 
0

>  <s_epik_input>  (181) 
W0NIM11DKD1PKU9bQ0BIXShbQ0gyXTEpW0NASF0oQyhbQ0gzXSkoW0NIM10pQyg9TylbQ0gyXVtDSDJdMilDMihbQ0gyXTMpW0NASF0oW0NASF00W09IXSlPQyhbQ0gzXSkoW0NIM10pT1tDQEBIXShbQ0gyXVtDSDJdNSlbQ0BAXTQoW0NIM10pW0NAQEhdNltDQF0xKFtDQEBdMzU2KVtDSDNd

>  <s_epik_cmdline>  (181) 
J2VwaWtfcHl0aG9uJywgJy1waHQnLCAnMi4wJywgJy1waCcsICc3LjAnLCAnLXRuJywgJzgnLCAnLW1hJywgJzIwMCcsICctaW1hZScsICc8aW5maWxlLm1hZT4nLCAnLW9tYWUnLCAnPG91dGZpbGUubWFlPic=

>  <r_lp_tautomer_probability>  (181) 
1

>  <r_epik_Ionization_Penalty>  (181) 
4.73466e-08

>  <r_epik_Ionization_Penalty_Charging>  (181) 
0

>  <r_epik_Ionization_Penalty_Neutral>  (181) 
4.73466e-08

>  <r_epik_State_Penalty>  (181) 
-0

>  <r_epik_Charging_Adjusted_Penalty>  (181) 
0

>  <i_epik_Tot_Q>  (181) 
0

>  <i_epik_Tot_abs_Q>  (181) 
0

>  <s_epik_Chemistry_Notes>  (181) 
This compound has an ester and may undergo hydrolysis at high or low pH.

>  <s_lp_Force_Field>  (181) 
OPLS3e

>  <r_lp_Energy>  (181) 
222.168

>  <b_lp_Chiralities_Consistent>  (181) 
1

>  <s_lp_Variant>  (181) 
52:0-2

>  <s_i_glide_gridfile>  (181) 
pfpi4k_grid

>  <i_i_glide_lignum>  (181) 
32

>  <i_i_glide_rotatable_bonds>  (181) 
3

>  <r_i_docking_score>  (181) 
-2.60685

>  <r_i_glide_ligand_efficiency>  (181) 
-0.0789954

>  <r_i_glide_ligand_efficiency_sa>  (181) 
-0.25338

>  <r_i_glide_ligand_efficiency_ln>  (181) 
-0.579749

>  <r_i_glide_gscore>  (181) 
-2.60685

>  <r_i_glide_lipo>  (181) 
-0.466221

>  <r_i_glide_hbond>  (181) 
-0.0843351

>  <r_i_glide_metal>  (181) 
-0

>  <r_i_glide_rewards>  (181) 
-0.268617

>  <r_i_glide_evdw>  (181) 
-32.084

>  <r_i_glide_ecoul>  (181) 
-1.34051

>  <r_i_glide_erotb>  (181) 
0.0948821

>  <r_i_glide_esite>  (181) 
-0.0772818

>  <r_i_glide_emodel>  (181) 
-35.2922

>  <r_i_glide_energy>  (181) 
-33.4245

>  <r_i_glide_einternal>  (181) 
5.54007

>  <r_i_glide_intrahb_reward>  (181) 
-0

>  <i_i_glide_confnum>  (181) 
3

>  <i_i_glide_posenum>  (181) 
19

>  <r_i_glide_eff_state_penalty>  (181) 
0

>  <ligand_id>  (181) 
52

>  <original_smiles>  (181) 
CC(=O)OC1CC2(C)C3C4(C)C5CCC32CC2(CCC(=O)C(C)(C)C12)C(OC(C)(C)O5)C4O

>  <smiles>  (181) 
[H]OC1([H])C2([H])OC(C([H])([H])[H])(C([H])([H])[H])OC3([H])C([H])([H])C([H])([H])C45C([H])([H])C26C([H])([H])C([H])([H])C(=O)C(C([H])([H])[H])(C([H])([H])[H])C6([H])C([H])(OC(=O)C([H])([H])[H])C([H])([H])C4(C([H])([H])[H])C5([H])C31C([H])([H])[H]

$$$$
52:1:1
     RDKit          3D

 73 78  0  0  1  0  0  0  0  0999 V2000
    0.6293   -7.7526    4.6650 C   0  0  0  0  0  0  0  0  0  0  0  0
    0.0105   -7.0509    3.4557 C   0  0  0  0  0  0  0  0  0  0  0  0
   -1.1365   -7.2921    3.0692 O   0  0  0  0  0  0  0  0  0  0  0  0
    0.7769   -6.1243    2.8268 O   0  0  0  0  0  0  0  0  0  0  0  0
    2.0451   -5.6822    3.2748 C   0  0  2  0  0  0  0  0  0  0  0  0
    1.8168   -4.3990    4.2687 C   0  0  0  0  0  0  0  0  0  0  0  0
    2.1863   -2.8331    4.0963 C   0  0  1  0  0  0  0  0  0  0  0  0
    1.3092   -2.1126    5.1269 C   0  0  0  0  0  0  0  0  0  0  0  0
    3.4980   -1.9479    3.6669 C   0  0  2  0  0  0  0  0  0  0  0  0
    4.5338   -1.4334    2.4821 C   0  0  2  0  0  0  0  0  0  0  0  0
    5.4145   -0.3897    3.2185 C   0  0  0  0  0  0  0  0  0  0  0  0
    3.8601   -0.6223    1.3096 C   0  0  2  0  0  0  0  0  0  0  0  0
    2.5577    0.0156    1.8218 C   0  0  0  0  0  0  0  0  0  0  0  0
    1.5569   -1.0750    2.2435 C   0  0  0  0  0  0  0  0  0  0  0  0
    2.3199   -2.2943    2.7955 C   0  0  2  0  0  0  0  0  0  0  0  0
    2.5346   -3.4004    1.8547 C   0  0  0  0  0  0  0  0  0  0  0  0
    3.8093   -4.3426    2.1168 C   0  0  1  0  0  0  0  0  0  0  0  0
    4.6319   -4.6437    3.4913 C   0  0  0  0  0  0  0  0  0  0  0  0
    5.6938   -5.7477    3.3195 C   0  0  0  0  0  0  0  0  0  0  0  0
    5.0171   -7.0602    2.9318 C   0  0  0  0  0  0  0  0  0  0  0  0
    5.3676   -8.1161    3.4659 O   0  0  0  0  0  0  0  0  0  0  0  0
    3.9245   -7.0102    1.8445 C   0  0  0  0  0  0  0  0  0  0  0  0
    4.6092   -7.0637    0.4878 C   0  0  0  0  0  0  0  0  0  0  0  0
    3.0517   -8.2985    1.9569 C   0  0  0  0  0  0  0  0  0  0  0  0
    3.0465   -5.6888    2.0043 C   0  0  1  0  0  0  0  0  0  0  0  0
    4.8886   -3.7078    1.1632 C   0  0  1  0  0  0  0  0  0  0  0  0
    4.4392   -3.4493   -0.1765 O   0  0  0  0  0  0  0  0  0  0  0  0
    4.1259   -2.1731   -0.7193 C   0  0  0  0  0  0  0  0  0  0  0  0
    5.3503   -1.4767   -1.3462 C   0  0  0  0  0  0  0  0  0  0  0  0
    3.1508   -2.5281   -1.8354 C   0  0  0  0  0  0  0  0  0  0  0  0
    3.4160   -1.2915    0.1162 O   0  0  0  0  0  0  0  0  0  0  0  0
    5.5131   -2.4900    1.8869 C   0  0  1  0  0  0  0  0  0  0  0  0
    6.6064   -1.9637    1.1553 O   0  0  0  0  0  0  0  0  0  0  0  0
    1.5664   -8.2534    4.4196 H   0  0  0  0  0  0  0  0  0  0  0  0
   -0.0630   -8.5301    5.0708 H   0  0  0  0  0  0  0  0  0  0  0  0
    0.7719   -7.0447    5.4868 H   0  0  0  0  0  0  0  0  0  0  0  0
    2.4714   -6.4347    3.9235 H   0  0  0  0  0  0  0  0  0  0  0  0
    0.7348   -4.4063    4.4790 H   0  0  0  0  0  0  0  0  0  0  0  0
    2.2051   -4.6772    5.2432 H   0  0  0  0  0  0  0  0  0  0  0  0
    1.4672   -1.0455    5.1040 H   0  0  0  0  0  0  0  0  0  0  0  0
    1.5271   -2.4630    6.1412 H   0  0  0  0  0  0  0  0  0  0  0  0
    0.2533   -2.2881    4.9076 H   0  0  0  0  0  0  0  0  0  0  0  0
    3.4960   -1.1523    4.3894 H   0  0  0  0  0  0  0  0  0  0  0  0
    6.1250    0.0870    2.5396 H   0  0  0  0  0  0  0  0  0  0  0  0
    5.9860   -0.8248    4.0364 H   0  0  0  0  0  0  0  0  0  0  0  0
    4.8223    0.4159    3.6351 H   0  0  0  0  0  0  0  0  0  0  0  0
    4.5395    0.1688    0.9794 H   0  0  0  0  0  0  0  0  0  0  0  0
    2.7888    0.6520    2.6832 H   0  0  0  0  0  0  0  0  0  0  0  0
    2.1081    0.6639    1.0776 H   0  0  0  0  0  0  0  0  0  0  0  0
    0.8664   -0.6797    2.9765 H   0  0  0  0  0  0  0  0  0  0  0  0
    0.9602   -1.3928    1.3891 H   0  0  0  0  0  0  0  0  0  0  0  0
    1.5629   -3.8812    1.8529 H   0  0  0  0  0  0  0  0  0  0  0  0
    2.3974   -3.1098    0.8285 H   0  0  0  0  0  0  0  0  0  0  0  0
    5.0670   -3.7976    4.0133 H   0  0  0  0  0  0  0  0  0  0  0  0
    4.0878   -5.0461    4.3280 H   0  0  0  0  0  0  0  0  0  0  0  0
    6.4511   -5.5130    2.5712 H   0  0  0  0  0  0  0  0  0  0  0  0
    6.2311   -5.8976    4.2560 H   0  0  0  0  0  0  0  0  0  0  0  0
    3.9077   -6.8314   -0.3199 H   0  0  0  0  0  0  0  0  0  0  0  0
    5.0020   -8.0740    0.2815 H   0  0  0  0  0  0  0  0  0  0  0  0
    5.4590   -6.3984    0.3830 H   0  0  0  0  0  0  0  0  0  0  0  0
    2.1856   -8.2367    1.2817 H   0  0  0  0  0  0  0  0  0  0  0  0
    2.7200   -8.4735    2.9717 H   0  0  0  0  0  0  0  0  0  0  0  0
    3.6182   -9.1876    1.6099 H   0  0  0  0  0  0  0  0  0  0  0  0
    2.4562   -5.6697    1.0798 H   0  0  0  0  0  0  0  0  0  0  0  0
    5.6901   -4.4125    1.0153 H   0  0  0  0  0  0  0  0  0  0  0  0
    5.7649   -0.7075   -0.7062 H   0  0  0  0  0  0  0  0  0  0  0  0
    5.0506   -0.9581   -2.2718 H   0  0  0  0  0  0  0  0  0  0  0  0
    6.1093   -2.2050   -1.6039 H   0  0  0  0  0  0  0  0  0  0  0  0
    2.2864   -3.0478   -1.4431 H   0  0  0  0  0  0  0  0  0  0  0  0
    3.6272   -3.1723   -2.5825 H   0  0  0  0  0  0  0  0  0  0  0  0
    2.7910   -1.6145   -2.3292 H   0  0  0  0  0  0  0  0  0  0  0  0
    6.1361   -2.8284    2.6965 H   0  0  0  0  0  0  0  0  0  0  0  0
    7.2222   -2.6805    1.0103 H   0  0  0  0  0  0  0  0  0  0  0  0
  1  2  1  0
  1 34  1  0
  1 35  1  0
  1 36  1  0
  2  3  2  0
  2  4  1  0
  4  5  1  0
  5 25  1  0
  5  6  1  0
  5 37  1  1
  6  7  1  0
  6 38  1  0
  6 39  1  0
  7 15  1  0
  7  8  1  1
  7  9  1  0
  8 40  1  0
  8 41  1  0
  8 42  1  0
  9 15  1  0
  9 10  1  0
  9 43  1  1
 10 32  1  0
 10 11  1  1
 10 12  1  0
 11 44  1  0
 11 45  1  0
 11 46  1  0
 12 31  1  0
 12 13  1  0
 12 47  1  6
 13 14  1  0
 13 48  1  0
 13 49  1  0
 15 14  1  6
 14 50  1  0
 14 51  1  0
 15 16  1  0
 16 17  1  0
 16 52  1  0
 16 53  1  0
 17 25  1  0
 17 18  1  1
 17 26  1  0
 18 19  1  0
 18 54  1  0
 18 55  1  0
 19 20  1  0
 19 56  1  0
 19 57  1  0
 20 21  2  0
 20 22  1  0
 22 23  1  0
 22 24  1  0
 22 25  1  0
 23 58  1  0
 23 59  1  0
 23 60  1  0
 24 61  1  0
 24 62  1  0
 24 63  1  0
 25 64  1  6
 26 27  1  0
 26 32  1  0
 26 65  1  6
 27 28  1  0
 28 29  1  0
 28 30  1  0
 28 31  1  0
 29 66  1  0
 29 67  1  0
 29 68  1  0
 30 69  1  0
 30 70  1  0
 30 71  1  0
 32 33  1  0
 32 72  1  1
 33 73  1  0
M  END
>  <i_m_ct_stereo_status>  (182) 
1

>  <s_m_source_file>  (182) 
/var/tmp/pbs.5076255.sched01/tmpguyree9i/45_f3p7e6s.sdf

>  <i_m_source_file_index>  (182) 
32

>  <i_lp_mmshare_version>  (182) 
48012

>  <i_f3d_flags>  (182) 
0

>  <s_epik_input>  (182) 
W0NIM11DKD1PKU9bQ0BIXShbQ0gyXTEpW0NASF0oQyhbQ0gzXSkoW0NIM10pQyg9TylbQ0gyXVtDSDJdMilDMihbQ0gyXTMpW0NASF0oW0NASF00W09IXSlPQyhbQ0gzXSkoW0NIM10pT1tDQEBIXShbQ0gyXVtDSDJdNSlbQ0BAXTQoW0NIM10pW0NAQEhdNltDQF0xKFtDQEBdMzU2KVtDSDNd

>  <s_epik_cmdline>  (182) 
J2VwaWtfcHl0aG9uJywgJy1waHQnLCAnMi4wJywgJy1waCcsICc3LjAnLCAnLXRuJywgJzgnLCAnLW1hJywgJzIwMCcsICctaW1hZScsICc8aW5maWxlLm1hZT4nLCAnLW9tYWUnLCAnPG91dGZpbGUubWFlPic=

>  <r_lp_tautomer_probability>  (182) 
1

>  <r_epik_Ionization_Penalty>  (182) 
4.73466e-08

>  <r_epik_Ionization_Penalty_Charging>  (182) 
0

>  <r_epik_Ionization_Penalty_Neutral>  (182) 
4.73466e-08

>  <r_epik_State_Penalty>  (182) 
-0

>  <r_epik_Charging_Adjusted_Penalty>  (182) 
0

>  <i_epik_Tot_Q>  (182) 
0

>  <i_epik_Tot_abs_Q>  (182) 
0

>  <s_epik_Chemistry_Notes>  (182) 
This compound has an ester and may undergo hydrolysis at high or low pH.

>  <s_lp_Force_Field>  (182) 
OPLS3e

>  <r_lp_Energy>  (182) 
222.168

>  <b_lp_Chiralities_Consistent>  (182) 
1

>  <s_lp_Variant>  (182) 
52:0-2

>  <s_i_glide_gridfile>  (182) 
pfpi4k_grid

>  <i_i_glide_lignum>  (182) 
32

>  <i_i_glide_rotatable_bonds>  (182) 
3

>  <r_i_docking_score>  (182) 
-2.46605

>  <r_i_glide_ligand_efficiency>  (182) 
-0.0747289

>  <r_i_glide_ligand_efficiency_sa>  (182) 
-0.239695

>  <r_i_glide_ligand_efficiency_ln>  (182) 
-0.548437

>  <r_i_glide_gscore>  (182) 
-2.46605

>  <r_i_glide_lipo>  (182) 
-0.462894

>  <r_i_glide_hbond>  (182) 
-0.0820826

>  <r_i_glide_metal>  (182) 
-0

>  <r_i_glide_rewards>  (182) 
-0.268617

>  <r_i_glide_evdw>  (182) 
-32.0988

>  <r_i_glide_ecoul>  (182) 
-0.43464

>  <r_i_glide_erotb>  (182) 
0.0948821

>  <r_i_glide_esite>  (182) 
-0.0772054

>  <r_i_glide_emodel>  (182) 
-34.1156

>  <r_i_glide_energy>  (182) 
-32.5334

>  <r_i_glide_einternal>  (182) 
5.48864

>  <r_i_glide_intrahb_reward>  (182) 
-0

>  <i_i_glide_confnum>  (182) 
3

>  <i_i_glide_posenum>  (182) 
1

>  <r_i_glide_eff_state_penalty>  (182) 
0

>  <ligand_id>  (182) 
52

>  <original_smiles>  (182) 
CC(=O)OC1CC2(C)C3C4(C)C5CCC32CC2(CCC(=O)C(C)(C)C12)C(OC(C)(C)O5)C4O

>  <smiles>  (182) 
[H]OC1([H])C2([H])OC(C([H])([H])[H])(C([H])([H])[H])OC3([H])C([H])([H])C([H])([H])C45C([H])([H])C26C([H])([H])C([H])([H])C(=O)C(C([H])([H])[H])(C([H])([H])[H])C6([H])C([H])(OC(=O)C([H])([H])[H])C([H])([H])C4(C([H])([H])[H])C5([H])C31C([H])([H])[H]

$$$$
52:1:2
     RDKit          3D

 73 78  0  0  1  0  0  0  0  0999 V2000
    1.1682    5.8015    3.6854 C   0  0  0  0  0  0  0  0  0  0  0  0
    0.7570    4.8874    4.8342 C   0  0  0  0  0  0  0  0  0  0  0  0
   -0.2533    5.1026    5.5079 O   0  0  0  0  0  0  0  0  0  0  0  0
    1.6176    3.8628    4.9925 O   0  0  0  0  0  0  0  0  0  0  0  0
    1.4043    2.8038    5.9392 C   0  0  2  0  0  0  0  0  0  0  0  0
    2.4706    2.9920    7.1796 C   0  0  0  0  0  0  0  0  0  0  0  0
    3.7627    2.1127    7.6142 C   0  0  1  0  0  0  0  0  0  0  0  0
    4.5707    3.0512    8.5160 C   0  0  0  0  0  0  0  0  0  0  0  0
    4.1457    0.5292    7.8647 C   0  0  2  0  0  0  0  0  0  0  0  0
    4.4108   -0.9673    7.2760 C   0  0  2  0  0  0  0  0  0  0  0  0
    4.8721   -1.7907    8.5099 C   0  0  0  0  0  0  0  0  0  0  0  0
    5.6275   -1.0788    6.2622 C   0  0  2  0  0  0  0  0  0  0  0  0
    6.6258    0.0602    6.5529 C   0  0  0  0  0  0  0  0  0  0  0  0
    5.9433    1.4201    6.3139 C   0  0  0  0  0  0  0  0  0  0  0  0
    4.4521    1.3392    6.6452 C   0  0  2  0  0  0  0  0  0  0  0  0
    3.5448    1.1543    5.4899 C   0  0  0  0  0  0  0  0  0  0  0  0
    2.1475    0.4146    5.8259 C   0  0  1  0  0  0  0  0  0  0  0  0
    1.3107    0.2978    7.2147 C   0  0  0  0  0  0  0  0  0  0  0  0
   -0.0557   -0.3857    7.0314 C   0  0  0  0  0  0  0  0  0  0  0  0
   -0.9252    0.4337    6.0883 C   0  0  0  0  0  0  0  0  0  0  0  0
   -2.1117    0.6029    6.3661 O   0  0  0  0  0  0  0  0  0  0  0  0
   -0.2669    0.9844    4.8148 C   0  0  0  0  0  0  0  0  0  0  0  0
   -0.3201   -0.1116    3.7272 C   0  0  0  0  0  0  0  0  0  0  0  0
   -1.1255    2.1504    4.2690 C   0  0  0  0  0  0  0  0  0  0  0  0
    1.2289    1.4307    5.0956 C   0  0  1  0  0  0  0  0  0  0  0  0
    2.4799   -1.0947    5.4687 C   0  0  1  0  0  0  0  0  0  0  0  0
    3.1433   -1.3009    4.2112 O   0  0  0  0  0  0  0  0  0  0  0  0
    4.5098   -1.6165    4.0305 C   0  0  0  0  0  0  0  0  0  0  0  0
    4.7813   -3.1386    4.0315 C   0  0  0  0  0  0  0  0  0  0  0  0
    4.7864   -1.0873    2.6136 C   0  0  0  0  0  0  0  0  0  0  0  0
    5.4204   -0.9283    4.8461 O   0  0  0  0  0  0  0  0  0  0  0  0
    3.1898   -1.7467    6.6900 C   0  0  1  0  0  0  0  0  0  0  0  0
    3.3481   -3.1419    6.5173 O   0  0  0  0  0  0  0  0  0  0  0  0
    2.1525    6.2379    3.8708 H   0  0  0  0  0  0  0  0  0  0  0  0
    0.4502    6.6122    3.5726 H   0  0  0  0  0  0  0  0  0  0  0  0
    1.2008    5.2612    2.7376 H   0  0  0  0  0  0  0  0  0  0  0  0
    0.4414    2.9862    6.4219 H   0  0  0  0  0  0  0  0  0  0  0  0
    2.8478    4.0080    7.0497 H   0  0  0  0  0  0  0  0  0  0  0  0
    1.8900    3.0901    8.0990 H   0  0  0  0  0  0  0  0  0  0  0  0
    5.4864    2.5772    8.8761 H   0  0  0  0  0  0  0  0  0  0  0  0
    3.9828    3.3477    9.3853 H   0  0  0  0  0  0  0  0  0  0  0  0
    4.8652    3.9419    7.9582 H   0  0  0  0  0  0  0  0  0  0  0  0
    4.7444    0.5759    8.7744 H   0  0  0  0  0  0  0  0  0  0  0  0
    5.1597   -2.8138    8.2523 H   0  0  0  0  0  0  0  0  0  0  0  0
    4.0944   -1.8501    9.2702 H   0  0  0  0  0  0  0  0  0  0  0  0
    5.7538   -1.3485    8.9784 H   0  0  0  0  0  0  0  0  0  0  0  0
    6.1419   -2.0344    6.3952 H   0  0  0  0  0  0  0  0  0  0  0  0
    6.9531   -0.0054    7.5911 H   0  0  0  0  0  0  0  0  0  0  0  0
    7.5258   -0.0254    5.9398 H   0  0  0  0  0  0  0  0  0  0  0  0
    6.4501    2.1951    6.8892 H   0  0  0  0  0  0  0  0  0  0  0  0
    6.0624    1.7125    5.2727 H   0  0  0  0  0  0  0  0  0  0  0  0
    3.4951    2.1481    5.0460 H   0  0  0  0  0  0  0  0  0  0  0  0
    4.0437    0.7736    4.6191 H   0  0  0  0  0  0  0  0  0  0  0  0
    1.8083   -0.1392    8.0763 H   0  0  0  0  0  0  0  0  0  0  0  0
    1.0093    1.2132    7.6940 H   0  0  0  0  0  0  0  0  0  0  0  0
    0.0010   -1.4000    6.6471 H   0  0  0  0  0  0  0  0  0  0  0  0
   -0.5626   -0.4353    7.9934 H   0  0  0  0  0  0  0  0  0  0  0  0
    0.2985    0.1441    2.8657 H   0  0  0  0  0  0  0  0  0  0  0  0
   -1.3413   -0.2212    3.3574 H   0  0  0  0  0  0  0  0  0  0  0  0
   -0.0235   -1.0943    4.0853 H   0  0  0  0  0  0  0  0  0  0  0  0
   -0.6142    2.6639    3.4581 H   0  0  0  0  0  0  0  0  0  0  0  0
   -1.3445    2.8789    5.0521 H   0  0  0  0  0  0  0  0  0  0  0  0
   -2.0748    1.7946    3.8495 H   0  0  0  0  0  0  0  0  0  0  0  0
    1.6518    1.5903    4.1034 H   0  0  0  0  0  0  0  0  0  0  0  0
    1.5565   -1.6519    5.3500 H   0  0  0  0  0  0  0  0  0  0  0  0
    5.2046   -3.4982    4.9634 H   0  0  0  0  0  0  0  0  0  0  0  0
    5.5135   -3.3823    3.2597 H   0  0  0  0  0  0  0  0  0  0  0  0
    3.8667   -3.6789    3.7938 H   0  0  0  0  0  0  0  0  0  0  0  0
    4.5698   -0.0205    2.5572 H   0  0  0  0  0  0  0  0  0  0  0  0
    4.1483   -1.6070    1.8963 H   0  0  0  0  0  0  0  0  0  0  0  0
    5.8318   -1.2478    2.3447 H   0  0  0  0  0  0  0  0  0  0  0  0
    2.4882   -1.8754    7.5061 H   0  0  0  0  0  0  0  0  0  0  0  0
    3.9383   -3.2878    5.8104 H   0  0  0  0  0  0  0  0  0  0  0  0
  1  2  1  0
  1 34  1  0
  1 35  1  0
  1 36  1  0
  2  3  2  0
  2  4  1  0
  4  5  1  0
  5 25  1  0
  5  6  1  0
  5 37  1  1
  6  7  1  0
  6 38  1  0
  6 39  1  0
  7 15  1  0
  7  8  1  1
  7  9  1  0
  8 40  1  0
  8 41  1  0
  8 42  1  0
  9 15  1  0
  9 10  1  0
  9 43  1  1
 10 32  1  0
 10 11  1  1
 10 12  1  0
 11 44  1  0
 11 45  1  0
 11 46  1  0
 12 31  1  0
 12 13  1  0
 12 47  1  6
 13 14  1  0
 13 48  1  0
 13 49  1  0
 15 14  1  6
 14 50  1  0
 14 51  1  0
 15 16  1  0
 16 17  1  0
 16 52  1  0
 16 53  1  0
 17 25  1  0
 17 18  1  1
 17 26  1  0
 18 19  1  0
 18 54  1  0
 18 55  1  0
 19 20  1  0
 19 56  1  0
 19 57  1  0
 20 21  2  0
 20 22  1  0
 22 23  1  0
 22 24  1  0
 22 25  1  0
 23 58  1  0
 23 59  1  0
 23 60  1  0
 24 61  1  0
 24 62  1  0
 24 63  1  0
 25 64  1  6
 26 27  1  0
 26 32  1  0
 26 65  1  6
 27 28  1  0
 28 29  1  0
 28 30  1  0
 28 31  1  0
 29 66  1  0
 29 67  1  0
 29 68  1  0
 30 69  1  0
 30 70  1  0
 30 71  1  0
 32 33  1  0
 32 72  1  1
 33 73  1  0
M  END
>  <i_m_ct_stereo_status>  (183) 
1

>  <s_m_source_file>  (183) 
/var/tmp/pbs.5076255.sched01/tmpguyree9i/45_f3p7e6s.sdf

>  <i_m_source_file_index>  (183) 
32

>  <i_lp_mmshare_version>  (183) 
48012

>  <i_f3d_flags>  (183) 
0

>  <s_epik_input>  (183) 
W0NIM11DKD1PKU9bQ0BIXShbQ0gyXTEpW0NASF0oQyhbQ0gzXSkoW0NIM10pQyg9TylbQ0gyXVtDSDJdMilDMihbQ0gyXTMpW0NASF0oW0NASF00W09IXSlPQyhbQ0gzXSkoW0NIM10pT1tDQEBIXShbQ0gyXVtDSDJdNSlbQ0BAXTQoW0NIM10pW0NAQEhdNltDQF0xKFtDQEBdMzU2KVtDSDNd

>  <s_epik_cmdline>  (183) 
J2VwaWtfcHl0aG9uJywgJy1waHQnLCAnMi4wJywgJy1waCcsICc3LjAnLCAnLXRuJywgJzgnLCAnLW1hJywgJzIwMCcsICctaW1hZScsICc8aW5maWxlLm1hZT4nLCAnLW9tYWUnLCAnPG91dGZpbGUubWFlPic=

>  <r_lp_tautomer_probability>  (183) 
1

>  <r_epik_Ionization_Penalty>  (183) 
4.73466e-08

>  <r_epik_Ionization_Penalty_Charging>  (183) 
0

>  <r_epik_Ionization_Penalty_Neutral>  (183) 
4.73466e-08

>  <r_epik_State_Penalty>  (183) 
-0

>  <r_epik_Charging_Adjusted_Penalty>  (183) 
0

>  <i_epik_Tot_Q>  (183) 
0

>  <i_epik_Tot_abs_Q>  (183) 
0

>  <s_epik_Chemistry_Notes>  (183) 
This compound has an ester and may undergo hydrolysis at high or low pH.

>  <s_lp_Force_Field>  (183) 
OPLS3e

>  <r_lp_Energy>  (183) 
222.168

>  <b_lp_Chiralities_Consistent>  (183) 
1

>  <s_lp_Variant>  (183) 
52:0-2

>  <s_i_glide_gridfile>  (183) 
pfpi4k_grid

>  <i_i_glide_lignum>  (183) 
32

>  <i_i_glide_rotatable_bonds>  (183) 
3

>  <r_i_docking_score>  (183) 
-2.23463

>  <r_i_glide_ligand_efficiency>  (183) 
-0.0677159

>  <r_i_glide_ligand_efficiency_sa>  (183) 
-0.217201

>  <r_i_glide_ligand_efficiency_ln>  (183) 
-0.496969

>  <r_i_glide_gscore>  (183) 
-2.23463

>  <r_i_glide_lipo>  (183) 
-0.27293

>  <r_i_glide_hbond>  (183) 
-0.16

>  <r_i_glide_metal>  (183) 
-0

>  <r_i_glide_rewards>  (183) 
-0.302913

>  <r_i_glide_evdw>  (183) 
-20.3736

>  <r_i_glide_ecoul>  (183) 
-3.37126

>  <r_i_glide_erotb>  (183) 
0.0948821

>  <r_i_glide_esite>  (183) 
-0.0692931

>  <r_i_glide_emodel>  (183) 
-27.4707

>  <r_i_glide_energy>  (183) 
-23.7449

>  <r_i_glide_einternal>  (183) 
0.532865

>  <r_i_glide_intrahb_reward>  (183) 
-0

>  <i_i_glide_confnum>  (183) 
1

>  <i_i_glide_posenum>  (183) 
9

>  <r_i_glide_eff_state_penalty>  (183) 
0

>  <ligand_id>  (183) 
52

>  <original_smiles>  (183) 
CC(=O)OC1CC2(C)C3C4(C)C5CCC32CC2(CCC(=O)C(C)(C)C12)C(OC(C)(C)O5)C4O

>  <smiles>  (183) 
[H]OC1([H])C2([H])OC(C([H])([H])[H])(C([H])([H])[H])OC3([H])C([H])([H])C([H])([H])C45C([H])([H])C26C([H])([H])C([H])([H])C(=O)C(C([H])([H])[H])(C([H])([H])[H])C6([H])C([H])(OC(=O)C([H])([H])[H])C([H])([H])C4(C([H])([H])[H])C5([H])C31C([H])([H])[H]

$$$$
53:0:0
     RDKit          3D

 51 57  0  0  1  0  0  0  0  0999 V2000
    3.3146   -2.7301   -1.2433 C   0  0  0  0  0  0  0  0  0  0  0  0
    3.8790   -2.3506    0.0981 C   0  0  0  0  0  0  0  0  0  0  0  0
    3.5782   -2.5600    1.3812 C   0  0  0  0  0  0  0  0  0  0  0  0
    2.8357   -3.5844    2.1378 C   0  0  0  0  0  0  0  0  0  0  0  0
    1.8823   -3.2044    2.8339 O   0  0  0  0  0  0  0  0  0  0  0  0
    3.1847   -5.1298    2.1878 C   0  0  2  0  0  0  0  0  0  0  0  0
    1.9431   -5.8315    1.4434 C   0  0  1  0  0  0  0  0  0  0  0  0
    1.8082   -5.4803    0.0634 O   0  0  0  0  0  0  0  0  0  0  0  0
    1.7507   -7.1960    1.6367 O   0  0  0  0  0  0  0  0  0  0  0  0
    2.8188   -8.1230    1.8365 C   0  0  0  0  0  0  0  0  0  0  0  0
    3.6411   -7.8948    3.1379 C   0  0  1  0  0  0  0  0  0  0  0  0
    2.3365   -7.7663    4.0558 C   0  0  0  0  0  0  0  0  0  0  0  0
    1.9555   -6.2650    4.2974 C   0  0  0  0  0  0  0  0  0  0  0  0
    3.1882   -5.5342    3.7528 C   0  0  1  0  0  0  0  0  0  0  0  0
    4.1065   -6.7099    4.0607 C   0  0  2  0  0  0  0  0  0  0  0  0
    5.5342   -6.9761    3.7193 C   0  0  0  0  0  0  0  0  0  0  0  0
    4.8560   -7.0601    2.3881 C   0  0  2  0  0  0  0  0  0  0  0  0
    4.5938   -5.6960    1.6206 C   0  0  1  0  0  0  0  0  0  0  0  0
    4.6056   -5.9312    0.0814 C   0  0  0  0  0  0  0  0  0  0  0  0
    5.7977   -4.7153    1.9198 C   0  0  0  0  0  0  0  0  0  0  0  0
    5.7947   -4.0400    2.9479 O   0  0  0  0  0  0  0  0  0  0  0  0
    6.9885   -4.4841    0.9490 C   0  0  0  0  0  0  0  0  0  0  0  0
    6.5735   -3.3609    0.0078 C   0  0  0  0  0  0  0  0  0  0  0  0
    6.4128   -2.0999    0.4572 C   0  0  0  0  0  0  0  0  0  0  0  0
    5.0290   -1.4504    0.4152 C   0  0  1  0  0  0  0  0  0  0  0  0
    4.7265   -0.2666    1.1237 O   0  0  0  0  0  0  0  0  0  0  0  0
    4.4725   -1.4713    1.8759 C   0  0  1  0  0  0  0  0  0  0  0  0
    4.0620   -3.0837   -1.9464 H   0  0  0  0  0  0  0  0  0  0  0  0
    2.8760   -1.8165   -1.6324 H   0  0  0  0  0  0  0  0  0  0  0  0
    2.5104   -3.4446   -1.1595 H   0  0  0  0  0  0  0  0  0  0  0  0
    1.0241   -5.4465    1.8662 H   0  0  0  0  0  0  0  0  0  0  0  0
    2.5744   -5.7656   -0.3774 H   0  0  0  0  0  0  0  0  0  0  0  0
    2.3451   -9.1041    1.8955 H   0  0  0  0  0  0  0  0  0  0  0  0
    3.4207   -8.2527    0.9428 H   0  0  0  0  0  0  0  0  0  0  0  0
    1.4587   -8.3249    3.7219 H   0  0  0  0  0  0  0  0  0  0  0  0
    2.5070   -8.2548    5.0198 H   0  0  0  0  0  0  0  0  0  0  0  0
    0.9980   -5.9725    3.8741 H   0  0  0  0  0  0  0  0  0  0  0  0
    1.8546   -6.0891    5.3710 H   0  0  0  0  0  0  0  0  0  0  0  0
    3.4454   -4.6847    4.3938 H   0  0  0  0  0  0  0  0  0  0  0  0
    4.1496   -6.9081    5.1447 H   0  0  0  0  0  0  0  0  0  0  0  0
    6.2335   -6.1803    3.9724 H   0  0  0  0  0  0  0  0  0  0  0  0
    5.8970   -7.9302    4.0993 H   0  0  0  0  0  0  0  0  0  0  0  0
    5.4570   -7.7393    1.7734 H   0  0  0  0  0  0  0  0  0  0  0  0
    3.9313   -6.7018   -0.2715 H   0  0  0  0  0  0  0  0  0  0  0  0
    5.5746   -6.2530   -0.2939 H   0  0  0  0  0  0  0  0  0  0  0  0
    4.3373   -5.0371   -0.4696 H   0  0  0  0  0  0  0  0  0  0  0  0
    7.8632   -4.1755    1.5286 H   0  0  0  0  0  0  0  0  0  0  0  0
    7.2894   -5.3847    0.4110 H   0  0  0  0  0  0  0  0  0  0  0  0
    5.9438   -3.7254   -0.7966 H   0  0  0  0  0  0  0  0  0  0  0  0
    6.9600   -1.8057    1.3439 H   0  0  0  0  0  0  0  0  0  0  0  0
    5.0475   -1.5915    2.8053 H   0  0  0  0  0  0  0  0  0  0  0  0
  1  2  1  0
  1 28  1  0
  1 29  1  0
  1 30  1  0
  2 25  1  0
  2  3  2  0
  3 27  1  0
  3  4  1  0
  4  5  2  0
  6  4  1  1
  6 14  1  0
  6 18  1  0
  6  7  1  0
  7  8  1  0
  7  9  1  0
  7 31  1  1
  8 32  1  0
  9 10  1  0
 10 11  1  0
 10 33  1  0
 10 34  1  0
 11 15  1  0
 11 17  1  0
 11 12  1  1
 12 13  1  0
 12 35  1  0
 12 36  1  0
 13 14  1  0
 13 37  1  0
 13 38  1  0
 14 15  1  0
 14 39  1  1
 15 16  1  0
 15 40  1  1
 16 17  1  0
 16 41  1  0
 16 42  1  0
 17 18  1  0
 17 43  1  6
 18 19  1  6
 18 20  1  0
 19 44  1  0
 19 45  1  0
 19 46  1  0
 20 21  2  0
 20 22  1  0
 22 23  1  0
 22 47  1  0
 22 48  1  0
 23 24  2  3
 23 49  1  0
 24 25  1  0
 24 50  1  0
 25 27  1  0
 25 26  1  6
 26 27  1  0
 27 51  1  1
M  END
>  <i_m_ct_stereo_status>  (184) 
1

>  <s_m_source_file>  (184) 
/var/tmp/pbs.5076255.sched01/tmpguyree9i/45_f3p7e6s.sdf

>  <i_m_source_file_index>  (184) 
33

>  <i_lp_mmshare_version>  (184) 
48012

>  <i_f3d_flags>  (184) 
2

>  <s_epik_input>  (184) 
W0NIM11DMT1DKEMyPU8pW0NIXShPMylDMTMvW0NIXT1bQ0hdXFtDSDJdQyg9TylbQ0BAXTQoW0NIM10pW0NAQEhdKFtDSDJdNSlDKFtDSDJdW0NIMl02KShbQ0BASF01W0NASF02W0NAQF0yNDcpW0NIMl1PW0NAQEhdN1tPSF0=

>  <s_epik_cmdline>  (184) 
J2VwaWtfcHl0aG9uJywgJy1waHQnLCAnMi4wJywgJy1waCcsICc3LjAnLCAnLXRuJywgJzgnLCAnLW1hJywgJzIwMCcsICctaW1hZScsICc8aW5maWxlLm1hZT4nLCAnLW9tYWUnLCAnPG91dGZpbGUubWFlPic=

>  <r_lp_tautomer_probability>  (184) 
1

>  <r_epik_Ionization_Penalty>  (184) 
2.15944e-06

>  <r_epik_Ionization_Penalty_Charging>  (184) 
0

>  <r_epik_Ionization_Penalty_Neutral>  (184) 
2.15944e-06

>  <r_epik_State_Penalty>  (184) 
-0

>  <r_epik_Charging_Adjusted_Penalty>  (184) 
0

>  <i_epik_Tot_Q>  (184) 
0

>  <i_epik_Tot_abs_Q>  (184) 
0

>  <s_epik_Chemistry_Notes>  (184) 
This compound contains an acetal/aminal-like group ( X-CH(R)-Y where X, Y are N, S, or O) that may be acid/base labile, releasing an aldehyde.

>  <s_lp_Force_Field>  (184) 
OPLS3e

>  <r_lp_Energy>  (184) 
232.53

>  <b_lp_Chiralities_Consistent>  (184) 
0

>  <s_lp_Variant>  (184) 
53:0-1

>  <s_i_glide_gridfile>  (184) 
pfpi4k_grid

>  <i_i_glide_lignum>  (184) 
33

>  <i_i_glide_rotatable_bonds>  (184) 
1

>  <r_i_docking_score>  (184) 
-2.95012

>  <r_i_glide_ligand_efficiency>  (184) 
-0.109264

>  <r_i_glide_ligand_efficiency_sa>  (184) 
-0.327791

>  <r_i_glide_ligand_efficiency_ln>  (184) 
-0.686738

>  <r_i_glide_gscore>  (184) 
-2.95012

>  <r_i_glide_lipo>  (184) 
-0.467533

>  <r_i_glide_hbond>  (184) 
0

>  <r_i_glide_metal>  (184) 
-0

>  <r_i_glide_rewards>  (184) 
-0.955878

>  <r_i_glide_evdw>  (184) 
-24.3539

>  <r_i_glide_ecoul>  (184) 
-1.73455

>  <r_i_glide_erotb>  (184) 
0

>  <r_i_glide_esite>  (184) 
-0.0488251

>  <r_i_glide_emodel>  (184) 
-30.537

>  <r_i_glide_energy>  (184) 
-26.0885

>  <r_i_glide_einternal>  (184) 
0.00217064

>  <r_i_glide_intrahb_reward>  (184) 
-0

>  <i_i_glide_confnum>  (184) 
1

>  <i_i_glide_posenum>  (184) 
12

>  <r_i_glide_eff_state_penalty>  (184) 
0

>  <ligand_id>  (184) 
53

>  <original_smiles>  (184) 
CC1=C2C(=O)C34C(O)OCC56CCC3C5CC6C4(C)C(=O)CC=CC13OC23

>  <smiles>  (184) 
[H]OC1([H])OC([H])([H])C23C([H])([H])C([H])([H])C4([H])C2([H])C([H])([H])C3([H])C2(C([H])([H])[H])C(=O)C([H])([H])C([H])=C([H])C35OC3([H])C(=C5C([H])([H])[H])C(=O)C142

$$$$
53:0:1
     RDKit          3D

 51 57  0  0  1  0  0  0  0  0999 V2000
    2.8152   -3.1281   -1.7046 C   0  0  0  0  0  0  0  0  0  0  0  0
    3.5862   -2.4773   -0.5956 C   0  0  0  0  0  0  0  0  0  0  0  0
    3.5231   -2.4027    0.7360 C   0  0  0  0  0  0  0  0  0  0  0  0
    2.9962   -3.2448    1.8107 C   0  0  0  0  0  0  0  0  0  0  0  0
    2.1323   -2.7715    2.5624 O   0  0  0  0  0  0  0  0  0  0  0  0
    3.4908   -4.7253    2.1273 C   0  0  2  0  0  0  0  0  0  0  0  0
    2.2072   -5.6178    1.7714 C   0  0  1  0  0  0  0  0  0  0  0  0
    1.8216   -5.5895    0.4210 O   0  0  0  0  0  0  0  0  0  0  0  0
    2.1755   -6.9165    2.2846 O   0  0  0  0  0  0  0  0  0  0  0  0
    3.3399   -7.7174    2.4710 C   0  0  0  0  0  0  0  0  0  0  0  0
    4.3531   -7.1684    3.5202 C   0  0  1  0  0  0  0  0  0  0  0  0
    3.2200   -6.9017    4.6215 C   0  0  0  0  0  0  0  0  0  0  0  0
    2.7541   -5.4058    4.6107 C   0  0  0  0  0  0  0  0  0  0  0  0
    3.8039   -4.7550    3.7004 C   0  0  1  0  0  0  0  0  0  0  0  0
    4.8667   -5.7895    4.0752 C   0  0  2  0  0  0  0  0  0  0  0  0
    6.2294   -6.0530    3.5308 C   0  0  0  0  0  0  0  0  0  0  0  0
    5.3440   -6.4668    2.4035 C   0  0  2  0  0  0  0  0  0  0  0  0
    4.8346   -5.3151    1.4203 C   0  0  1  0  0  0  0  0  0  0  0  0
    4.5994   -5.8941   -0.0003 C   0  0  0  0  0  0  0  0  0  0  0  0
    5.9756   -4.2326    1.2871 C   0  0  0  0  0  0  0  0  0  0  0  0
    6.0844   -3.3358    2.0915 O   0  0  0  0  0  0  0  0  0  0  0  0
    6.9649   -4.1794    0.0762 C   0  0  0  0  0  0  0  0  0  0  0  0
    6.3167   -3.3242   -0.9825 C   0  0  0  0  0  0  0  0  0  0  0  0
    6.1010   -2.0078   -0.7824 C   0  0  0  0  0  0  0  0  0  0  0  0
    4.6960   -1.4758   -0.6919 C   0  0  1  0  0  0  0  0  0  0  0  0
    4.3919   -0.2144   -0.1863 O   0  0  0  0  0  0  0  0  0  0  0  0
    4.3980   -1.2046    0.8162 C   0  0  1  0  0  0  0  0  0  0  0  0
    3.4640   -3.5890   -2.4402 H   0  0  0  0  0  0  0  0  0  0  0  0
    2.2503   -2.3330   -2.1887 H   0  0  0  0  0  0  0  0  0  0  0  0
    2.1000   -3.8442   -1.3297 H   0  0  0  0  0  0  0  0  0  0  0  0
    1.3337   -5.1925    2.2599 H   0  0  0  0  0  0  0  0  0  0  0  0
    2.5773   -5.8250   -0.1031 H   0  0  0  0  0  0  0  0  0  0  0  0
    2.9717   -8.6822    2.8238 H   0  0  0  0  0  0  0  0  0  0  0  0
    3.7893   -8.0188    1.5298 H   0  0  0  0  0  0  0  0  0  0  0  0
    2.3502   -7.5627    4.5825 H   0  0  0  0  0  0  0  0  0  0  0  0
    3.5973   -7.1551    5.6176 H   0  0  0  0  0  0  0  0  0  0  0  0
    1.7192   -5.2631    4.3151 H   0  0  0  0  0  0  0  0  0  0  0  0
    2.8247   -4.9992    5.6190 H   0  0  0  0  0  0  0  0  0  0  0  0
    4.0953   -3.7743    4.0879 H   0  0  0  0  0  0  0  0  0  0  0  0
    5.1095   -5.7353    5.1456 H   0  0  0  0  0  0  0  0  0  0  0  0
    6.8847   -5.1909    3.4676 H   0  0  0  0  0  0  0  0  0  0  0  0
    6.7380   -6.8793    4.0322 H   0  0  0  0  0  0  0  0  0  0  0  0
    5.8859   -7.2337    1.8399 H   0  0  0  0  0  0  0  0  0  0  0  0
    3.9426   -6.7542   -0.0511 H   0  0  0  0  0  0  0  0  0  0  0  0
    5.5087   -6.2582   -0.4629 H   0  0  0  0  0  0  0  0  0  0  0  0
    4.1680   -5.1567   -0.6693 H   0  0  0  0  0  0  0  0  0  0  0  0
    7.8964   -3.7027    0.4142 H   0  0  0  0  0  0  0  0  0  0  0  0
    7.2466   -5.1670   -0.2858 H   0  0  0  0  0  0  0  0  0  0  0  0
    5.5767   -3.8842   -1.5631 H   0  0  0  0  0  0  0  0  0  0  0  0
    6.7683   -1.5011   -0.0895 H   0  0  0  0  0  0  0  0  0  0  0  0
    5.1113   -1.0397    1.6356 H   0  0  0  0  0  0  0  0  0  0  0  0
  1  2  1  0
  1 28  1  0
  1 29  1  0
  1 30  1  0
  2 25  1  0
  2  3  2  0
  3 27  1  0
  3  4  1  0
  4  5  2  0
  6  4  1  6
  6 14  1  0
  6 18  1  0
  6  7  1  0
  7  8  1  0
  7  9  1  0
  7 31  1  1
  8 32  1  0
  9 10  1  0
 10 11  1  0
 10 33  1  0
 10 34  1  0
 11 15  1  0
 11 17  1  0
 11 12  1  1
 12 13  1  0
 12 35  1  0
 12 36  1  0
 13 14  1  0
 13 37  1  0
 13 38  1  0
 14 15  1  0
 14 39  1  1
 15 16  1  0
 15 40  1  1
 16 17  1  0
 16 41  1  0
 16 42  1  0
 17 18  1  0
 17 43  1  6
 18 19  1  6
 18 20  1  0
 19 44  1  0
 19 45  1  0
 19 46  1  0
 20 21  2  0
 20 22  1  0
 22 23  1  0
 22 47  1  0
 22 48  1  0
 23 24  2  3
 23 49  1  0
 24 25  1  0
 24 50  1  0
 25 27  1  0
 25 26  1  6
 26 27  1  0
 27 51  1  1
M  END
>  <i_m_ct_stereo_status>  (185) 
1

>  <s_m_source_file>  (185) 
/var/tmp/pbs.5076255.sched01/tmpguyree9i/45_f3p7e6s.sdf

>  <i_m_source_file_index>  (185) 
33

>  <i_lp_mmshare_version>  (185) 
48012

>  <i_f3d_flags>  (185) 
2

>  <s_epik_input>  (185) 
W0NIM11DMT1DKEMyPU8pW0NIXShPMylDMTMvW0NIXT1bQ0hdXFtDSDJdQyg9TylbQ0BAXTQoW0NIM10pW0NAQEhdKFtDSDJdNSlDKFtDSDJdW0NIMl02KShbQ0BASF01W0NASF02W0NAQF0yNDcpW0NIMl1PW0NAQEhdN1tPSF0=

>  <s_epik_cmdline>  (185) 
J2VwaWtfcHl0aG9uJywgJy1waHQnLCAnMi4wJywgJy1waCcsICc3LjAnLCAnLXRuJywgJzgnLCAnLW1hJywgJzIwMCcsICctaW1hZScsICc8aW5maWxlLm1hZT4nLCAnLW9tYWUnLCAnPG91dGZpbGUubWFlPic=

>  <r_lp_tautomer_probability>  (185) 
1

>  <r_epik_Ionization_Penalty>  (185) 
2.15944e-06

>  <r_epik_Ionization_Penalty_Charging>  (185) 
0

>  <r_epik_Ionization_Penalty_Neutral>  (185) 
2.15944e-06

>  <r_epik_State_Penalty>  (185) 
-0

>  <r_epik_Charging_Adjusted_Penalty>  (185) 
0

>  <i_epik_Tot_Q>  (185) 
0

>  <i_epik_Tot_abs_Q>  (185) 
0

>  <s_epik_Chemistry_Notes>  (185) 
This compound contains an acetal/aminal-like group ( X-CH(R)-Y where X, Y are N, S, or O) that may be acid/base labile, releasing an aldehyde.

>  <s_lp_Force_Field>  (185) 
OPLS3e

>  <r_lp_Energy>  (185) 
232.53

>  <b_lp_Chiralities_Consistent>  (185) 
0

>  <s_lp_Variant>  (185) 
53:0-1

>  <s_i_glide_gridfile>  (185) 
pfpi4k_grid

>  <i_i_glide_lignum>  (185) 
33

>  <i_i_glide_rotatable_bonds>  (185) 
1

>  <r_i_docking_score>  (185) 
-2.65686

>  <r_i_glide_ligand_efficiency>  (185) 
-0.0984021

>  <r_i_glide_ligand_efficiency_sa>  (185) 
-0.295206

>  <r_i_glide_ligand_efficiency_ln>  (185) 
-0.618472

>  <r_i_glide_gscore>  (185) 
-2.65686

>  <r_i_glide_lipo>  (185) 
-0.346785

>  <r_i_glide_hbond>  (185) 
0

>  <r_i_glide_metal>  (185) 
-0

>  <r_i_glide_rewards>  (185) 
-1.00153

>  <r_i_glide_evdw>  (185) 
-20.9891

>  <r_i_glide_ecoul>  (185) 
-1.5406

>  <r_i_glide_erotb>  (185) 
0

>  <r_i_glide_esite>  (185) 
-0.0279936

>  <r_i_glide_emodel>  (185) 
-26.4349

>  <r_i_glide_energy>  (185) 
-22.5297

>  <r_i_glide_einternal>  (185) 
0.103737

>  <r_i_glide_intrahb_reward>  (185) 
-0

>  <i_i_glide_confnum>  (185) 
2

>  <i_i_glide_posenum>  (185) 
38

>  <r_i_glide_eff_state_penalty>  (185) 
0

>  <ligand_id>  (185) 
53

>  <original_smiles>  (185) 
CC1=C2C(=O)C34C(O)OCC56CCC3C5CC6C4(C)C(=O)CC=CC13OC23

>  <smiles>  (185) 
[H]OC1([H])OC([H])([H])C23C([H])([H])C([H])([H])C4([H])C2([H])C([H])([H])C3([H])C2(C([H])([H])[H])C(=O)C([H])([H])C([H])=C([H])C35OC3([H])C(=C5C([H])([H])[H])C(=O)C142

$$$$
53:0:2
     RDKit          3D

 51 57  0  0  1  0  0  0  0  0999 V2000
    4.4353   -4.1726    4.1234 C   0  0  0  0  0  0  0  0  0  0  0  0
    4.4963   -5.2019    3.0110 C   0  0  0  0  0  0  0  0  0  0  0  0
    3.8363   -5.3653    1.8961 C   0  0  0  0  0  0  0  0  0  0  0  0
    3.2297   -4.4680    0.8592 C   0  0  0  0  0  0  0  0  0  0  0  0
    2.0981   -4.7376    0.4822 O   0  0  0  0  0  0  0  0  0  0  0  0
    3.9862   -3.2802    0.0887 C   0  0  2  0  0  0  0  0  0  0  0  0
    3.2762   -1.9727    0.6253 C   0  0  1  0  0  0  0  0  0  0  0  0
    3.4997   -1.7170    1.9913 O   0  0  0  0  0  0  0  0  0  0  0  0
    3.4614   -0.8460   -0.1381 O   0  0  0  0  0  0  0  0  0  0  0  0
    4.6323   -0.6272   -0.8958 C   0  0  0  0  0  0  0  0  0  0  0  0
    4.9337   -1.5177   -2.0896 C   0  0  1  0  0  0  0  0  0  0  0  0
    3.4323   -1.4292   -2.6578 C   0  0  0  0  0  0  0  0  0  0  0  0
    2.5739   -2.6558   -2.1519 C   0  0  0  0  0  0  0  0  0  0  0  0
    3.6619   -3.4948   -1.4718 C   0  0  1  0  0  0  0  0  0  0  0  0
    4.7369   -3.0109   -2.4311 C   0  0  2  0  0  0  0  0  0  0  0  0
    6.1959   -3.2156   -2.4543 C   0  0  0  0  0  0  0  0  0  0  0  0
    6.0211   -2.4026   -1.2317 C   0  0  2  0  0  0  0  0  0  0  0  0
    5.6042   -3.1440    0.1140 C   0  0  1  0  0  0  0  0  0  0  0  0
    6.1617   -2.4045    1.3545 C   0  0  0  0  0  0  0  0  0  0  0  0
    6.2749   -4.5593    0.1517 C   0  0  0  0  0  0  0  0  0  0  0  0
    5.6531   -5.5057   -0.2923 O   0  0  0  0  0  0  0  0  0  0  0  0
    7.6182   -4.9123    0.8362 C   0  0  0  0  0  0  0  0  0  0  0  0
    7.1931   -5.4239    2.2093 C   0  0  0  0  0  0  0  0  0  0  0  0
    6.5322   -6.5819    2.4101 C   0  0  0  0  0  0  0  0  0  0  0  0
    5.1291   -6.5503    2.9555 C   0  0  1  0  0  0  0  0  0  0  0  0
    4.2594   -7.6710    2.9206 O   0  0  0  0  0  0  0  0  0  0  0  0
    4.1450   -6.8135    1.7706 C   0  0  1  0  0  0  0  0  0  0  0  0
    5.4300   -3.9226    4.4745 H   0  0  0  0  0  0  0  0  0  0  0  0
    3.8877   -4.6355    4.9381 H   0  0  0  0  0  0  0  0  0  0  0  0
    3.8816   -3.2638    3.8616 H   0  0  0  0  0  0  0  0  0  0  0  0
    2.1993   -2.0746    0.5626 H   0  0  0  0  0  0  0  0  0  0  0  0
    4.4190   -1.5394    2.1049 H   0  0  0  0  0  0  0  0  0  0  0  0
    4.3971    0.2990   -1.3722 H   0  0  0  0  0  0  0  0  0  0  0  0
    5.4885   -0.3325   -0.2935 H   0  0  0  0  0  0  0  0  0  0  0  0
    2.8791   -0.5058   -2.4554 H   0  0  0  0  0  0  0  0  0  0  0  0
    3.4427   -1.4010   -3.7523 H   0  0  0  0  0  0  0  0  0  0  0  0
    1.7344   -2.4840   -1.5668 H   0  0  0  0  0  0  0  0  0  0  0  0
    2.1408   -3.1600   -3.0236 H   0  0  0  0  0  0  0  0  0  0  0  0
    3.5065   -4.5442   -1.5795 H   0  0  0  0  0  0  0  0  0  0  0  0
    4.4978   -3.2491   -3.4787 H   0  0  0  0  0  0  0  0  0  0  0  0
    6.4376   -4.2149   -2.4432 H   0  0  0  0  0  0  0  0  0  0  0  0
    6.6209   -2.6852   -3.3017 H   0  0  0  0  0  0  0  0  0  0  0  0
    6.9450   -1.8422   -1.0970 H   0  0  0  0  0  0  0  0  0  0  0  0
    5.8810   -1.3589    1.4311 H   0  0  0  0  0  0  0  0  0  0  0  0
    7.2471   -2.3937    1.3545 H   0  0  0  0  0  0  0  0  0  0  0  0
    5.8265   -2.8898    2.2674 H   0  0  0  0  0  0  0  0  0  0  0  0
    8.1244   -5.7204    0.3013 H   0  0  0  0  0  0  0  0  0  0  0  0
    8.3268   -4.0831    0.8847 H   0  0  0  0  0  0  0  0  0  0  0  0
    6.9298   -4.6379    2.8776 H   0  0  0  0  0  0  0  0  0  0  0  0
    6.6751   -7.3553    1.6788 H   0  0  0  0  0  0  0  0  0  0  0  0
    4.4040   -7.2572    0.8175 H   0  0  0  0  0  0  0  0  0  0  0  0
  1  2  1  0
  1 28  1  0
  1 29  1  0
  1 30  1  0
  2 25  1  0
  2  3  2  0
  3 27  1  0
  3  4  1  0
  4  5  2  0
  6  4  1  1
  6 14  1  0
  6 18  1  0
  6  7  1  0
  7  8  1  0
  7  9  1  0
  7 31  1  1
  8 32  1  0
  9 10  1  0
 10 11  1  0
 10 33  1  0
 10 34  1  0
 11 15  1  0
 11 17  1  0
 11 12  1  6
 12 13  1  0
 12 35  1  0
 12 36  1  0
 13 14  1  0
 13 37  1  0
 13 38  1  0
 14 15  1  0
 14 39  1  1
 15 16  1  0
 15 40  1  6
 16 17  1  0
 16 41  1  0
 16 42  1  0
 17 18  1  0
 17 43  1  1
 18 19  1  1
 18 20  1  0
 19 44  1  0
 19 45  1  0
 19 46  1  0
 20 21  2  0
 20 22  1  0
 22 23  1  0
 22 47  1  0
 22 48  1  0
 23 24  2  3
 23 49  1  0
 24 25  1  0
 24 50  1  0
 25 27  1  0
 25 26  1  1
 26 27  1  0
 27 51  1  6
M  END
>  <i_m_ct_stereo_status>  (186) 
1

>  <s_m_source_file>  (186) 
/var/tmp/pbs.5076255.sched01/tmpguyree9i/45_f3p7e6s.sdf

>  <i_m_source_file_index>  (186) 
33

>  <i_lp_mmshare_version>  (186) 
48012

>  <i_f3d_flags>  (186) 
2

>  <s_epik_input>  (186) 
W0NIM11DMT1DKEMyPU8pW0NIXShPMylDMTMvW0NIXT1bQ0hdXFtDSDJdQyg9TylbQ0BAXTQoW0NIM10pW0NAQEhdKFtDSDJdNSlDKFtDSDJdW0NIMl02KShbQ0BASF01W0NASF02W0NAQF0yNDcpW0NIMl1PW0NAQEhdN1tPSF0=

>  <s_epik_cmdline>  (186) 
J2VwaWtfcHl0aG9uJywgJy1waHQnLCAnMi4wJywgJy1waCcsICc3LjAnLCAnLXRuJywgJzgnLCAnLW1hJywgJzIwMCcsICctaW1hZScsICc8aW5maWxlLm1hZT4nLCAnLW9tYWUnLCAnPG91dGZpbGUubWFlPic=

>  <r_lp_tautomer_probability>  (186) 
1

>  <r_epik_Ionization_Penalty>  (186) 
2.15944e-06

>  <r_epik_Ionization_Penalty_Charging>  (186) 
0

>  <r_epik_Ionization_Penalty_Neutral>  (186) 
2.15944e-06

>  <r_epik_State_Penalty>  (186) 
-0

>  <r_epik_Charging_Adjusted_Penalty>  (186) 
0

>  <i_epik_Tot_Q>  (186) 
0

>  <i_epik_Tot_abs_Q>  (186) 
0

>  <s_epik_Chemistry_Notes>  (186) 
This compound contains an acetal/aminal-like group ( X-CH(R)-Y where X, Y are N, S, or O) that may be acid/base labile, releasing an aldehyde.

>  <s_lp_Force_Field>  (186) 
OPLS3e

>  <r_lp_Energy>  (186) 
232.53

>  <b_lp_Chiralities_Consistent>  (186) 
0

>  <s_lp_Variant>  (186) 
53:0-1

>  <s_i_glide_gridfile>  (186) 
pfpi4k_grid

>  <i_i_glide_lignum>  (186) 
33

>  <i_i_glide_rotatable_bonds>  (186) 
1

>  <r_i_docking_score>  (186) 
-2.26201

>  <r_i_glide_ligand_efficiency>  (186) 
-0.0837782

>  <r_i_glide_ligand_efficiency_sa>  (186) 
-0.251335

>  <r_i_glide_ligand_efficiency_ln>  (186) 
-0.526559

>  <r_i_glide_gscore>  (186) 
-2.26201

>  <r_i_glide_lipo>  (186) 
-0.750955

>  <r_i_glide_hbond>  (186) 
-0.0286786

>  <r_i_glide_metal>  (186) 
-0

>  <r_i_glide_rewards>  (186) 
-1.01612

>  <r_i_glide_evdw>  (186) 
-6.30026

>  <r_i_glide_ecoul>  (186) 
-0.636817

>  <r_i_glide_erotb>  (186) 
0

>  <r_i_glide_esite>  (186) 
-0.0557267

>  <r_i_glide_emodel>  (186) 
-8.88935

>  <r_i_glide_energy>  (186) 
-6.93707

>  <r_i_glide_einternal>  (186) 
0.0178433

>  <r_i_glide_intrahb_reward>  (186) 
-0

>  <i_i_glide_confnum>  (186) 
2

>  <i_i_glide_posenum>  (186) 
7

>  <r_i_glide_eff_state_penalty>  (186) 
0

>  <ligand_id>  (186) 
53

>  <original_smiles>  (186) 
CC1=C2C(=O)C34C(O)OCC56CCC3C5CC6C4(C)C(=O)CC=CC13OC23

>  <smiles>  (186) 
[H]OC1([H])OC([H])([H])C23C([H])([H])C([H])([H])C4([H])C2([H])C([H])([H])C3([H])C2(C([H])([H])[H])C(=O)C([H])([H])C([H])=C([H])C35OC3([H])C(=C5C([H])([H])[H])C(=O)C142

$$$$
54:0:0
     RDKit          3D

 76 81  0  0  1  0  0  0  0  0999 V2000
   -2.2086    2.1090    7.6794 C   0  0  0  0  0  0  0  0  0  0  0  0
   -1.3794    1.1971    6.7922 C   0  0  0  0  0  0  0  0  0  0  0  0
   -0.5018    0.4805    7.2751 O   0  0  0  0  0  0  0  0  0  0  0  0
   -1.7367    1.2746    5.4855 O   0  0  0  0  0  0  0  0  0  0  0  0
   -0.9529    0.7207    4.4206 C   0  0  2  0  0  0  0  0  0  0  0  0
   -0.6201   -0.7583    4.6142 C   0  0  0  0  0  0  0  0  0  0  0  0
    0.5734   -1.2914    4.3018 C   0  0  0  0  0  0  0  0  0  0  0  0
    1.1182   -2.5619    4.9389 C   0  0  1  0  0  0  0  0  0  0  0  0
    0.9911   -3.8041    4.0240 C   0  0  0  0  0  0  0  0  0  0  0  0
    2.0152   -4.9085    4.2769 C   0  0  0  0  0  0  0  0  0  0  0  0
    1.9214   -6.1740    3.7925 C   0  0  0  0  0  0  0  0  0  0  0  0
    0.7472   -6.6925    2.9605 C   0  0  0  0  0  0  0  0  0  0  0  0
    0.0988   -7.9505    3.5840 C   0  0  0  0  0  0  0  0  0  0  0  0
   -0.5304   -7.6045    4.9494 C   0  0  0  0  0  0  0  0  0  0  0  0
   -1.0043   -8.4789    2.6519 C   0  0  0  0  0  0  0  0  0  0  0  0
    1.1707   -9.0505    3.7477 C   0  0  0  0  0  0  0  0  0  0  0  0
    2.4160   -8.5468    4.4774 C   0  0  0  0  0  0  0  0  0  0  0  0
    2.9229   -9.1980    5.3901 O   0  0  0  0  0  0  0  0  0  0  0  0
    3.0241   -7.2253    3.9861 C   0  0  2  0  0  0  0  0  0  0  0  0
    4.1907   -6.7449    4.8782 C   0  0  0  0  0  0  0  0  0  0  0  0
    4.4930   -5.2619    4.6554 C   0  0  0  0  0  0  0  0  0  0  0  0
    3.2621   -4.4189    4.9971 C   0  0  1  0  0  0  0  0  0  0  0  0
    3.5113   -3.0556    4.6804 O   0  0  0  0  0  0  0  0  0  0  0  0
    2.5759   -2.1752    5.3044 C   0  0  1  0  0  0  0  0  0  0  0  0
    2.7554   -0.7220    4.8019 C   0  0  1  0  0  0  0  0  0  0  0  0
    4.0961   -0.4297    4.4702 O   0  0  0  0  0  0  0  0  0  0  0  0
    1.7178   -0.5113    3.6744 C   0  0  1  0  0  0  0  0  0  0  0  0
    2.2152   -1.1986    2.5385 O   0  0  0  0  0  0  0  0  0  0  0  0
    1.3225    0.9591    3.2312 C   0  0  2  0  0  0  0  0  0  0  0  0
    0.6614    0.9304    1.8146 C   0  0  0  0  0  0  0  0  0  0  0  0
    2.5735    1.8745    3.1732 C   0  0  0  0  0  0  0  0  0  0  0  0
    2.2627    3.3310    2.8018 C   0  0  0  0  0  0  0  0  0  0  0  0
    1.2397    3.9488    3.7660 C   0  0  1  0  0  0  0  0  0  0  0  0
    0.8530    5.2137    3.2783 O   0  0  0  0  0  0  0  0  0  0  0  0
   -0.0172    3.0736    3.9289 C   0  0  0  0  0  0  0  0  0  0  0  0
    0.3249    1.5900    4.2460 C   0  0  1  0  0  0  0  0  0  0  0  0
   -3.2563    1.8114    7.6693 H   0  0  0  0  0  0  0  0  0  0  0  0
   -2.1261    3.1411    7.3381 H   0  0  0  0  0  0  0  0  0  0  0  0
   -1.8356    2.0513    8.7005 H   0  0  0  0  0  0  0  0  0  0  0  0
   -1.5668    0.7807    3.5213 H   0  0  0  0  0  0  0  0  0  0  0  0
   -1.3325   -1.3443    5.1834 H   0  0  0  0  0  0  0  0  0  0  0  0
    0.5755   -2.7536    5.8647 H   0  0  0  0  0  0  0  0  0  0  0  0
   -0.0189   -4.1959    4.1277 H   0  0  0  0  0  0  0  0  0  0  0  0
    1.1145   -3.5063    2.9855 H   0  0  0  0  0  0  0  0  0  0  0  0
   -0.0046   -5.9260    2.8077 H   0  0  0  0  0  0  0  0  0  0  0  0
    1.1350   -6.9408    1.9709 H   0  0  0  0  0  0  0  0  0  0  0  0
   -0.9899   -8.4885    5.3960 H   0  0  0  0  0  0  0  0  0  0  0  0
   -1.2884   -6.8253    4.8555 H   0  0  0  0  0  0  0  0  0  0  0  0
    0.2158   -7.2421    5.6615 H   0  0  0  0  0  0  0  0  0  0  0  0
   -1.4697   -9.3814    3.0572 H   0  0  0  0  0  0  0  0  0  0  0  0
   -0.5774   -8.7346    1.6838 H   0  0  0  0  0  0  0  0  0  0  0  0
   -1.7875   -7.7357    2.4881 H   0  0  0  0  0  0  0  0  0  0  0  0
    0.7604   -9.9185    4.2663 H   0  0  0  0  0  0  0  0  0  0  0  0
    1.4924   -9.4055    2.7698 H   0  0  0  0  0  0  0  0  0  0  0  0
    3.4273   -7.4240    2.9931 H   0  0  0  0  0  0  0  0  0  0  0  0
    3.9649   -6.9025    5.9344 H   0  0  0  0  0  0  0  0  0  0  0  0
    5.0800   -7.3416    4.6664 H   0  0  0  0  0  0  0  0  0  0  0  0
    5.3353   -4.9504    5.2752 H   0  0  0  0  0  0  0  0  0  0  0  0
    4.7789   -5.0958    3.6148 H   0  0  0  0  0  0  0  0  0  0  0  0
    3.0690   -4.5158    6.0678 H   0  0  0  0  0  0  0  0  0  0  0  0
    2.7325   -2.2066    6.3851 H   0  0  0  0  0  0  0  0  0  0  0  0
    2.4979   -0.0614    5.6266 H   0  0  0  0  0  0  0  0  0  0  0  0
    4.3269   -1.0066    3.7552 H   0  0  0  0  0  0  0  0  0  0  0  0
    1.6697   -0.9587    1.8007 H   0  0  0  0  0  0  0  0  0  0  0  0
    0.2239    1.8828    1.5190 H   0  0  0  0  0  0  0  0  0  0  0  0
   -0.1393    0.1938    1.7501 H   0  0  0  0  0  0  0  0  0  0  0  0
    1.3882    0.6943    1.0361 H   0  0  0  0  0  0  0  0  0  0  0  0
    3.0583    1.9010    4.1462 H   0  0  0  0  0  0  0  0  0  0  0  0
    3.2992    1.4652    2.4743 H   0  0  0  0  0  0  0  0  0  0  0  0
    3.1849    3.9173    2.8224 H   0  0  0  0  0  0  0  0  0  0  0  0
    1.9079    3.3798    1.7722 H   0  0  0  0  0  0  0  0  0  0  0  0
    1.7115    4.0813    4.7410 H   0  0  0  0  0  0  0  0  0  0  0  0
    0.6109    5.1020    2.3541 H   0  0  0  0  0  0  0  0  0  0  0  0
   -0.6043    3.4989    4.7412 H   0  0  0  0  0  0  0  0  0  0  0  0
   -0.6527    3.1497    3.0432 H   0  0  0  0  0  0  0  0  0  0  0  0
    0.8493    1.6084    5.1991 H   0  0  0  0  0  0  0  0  0  0  0  0
  1  2  1  0
  1 37  1  0
  1 38  1  0
  1 39  1  0
  2  3  2  0
  2  4  1  0
  4  5  1  0
  5 36  1  0
  5  6  1  0
  5 40  1  6
  6  7  2  0
  6 41  1  0
  7 27  1  0
  7  8  1  0
  8 24  1  0
  8  9  1  0
  8 42  1  1
  9 10  1  0
  9 43  1  0
  9 44  1  0
 10 22  1  0
 10 11  2  0
 11 19  1  0
 11 12  1  0
 12 13  1  0
 12 45  1  0
 12 46  1  0
 13 14  1  0
 13 15  1  0
 13 16  1  0
 14 47  1  0
 14 48  1  0
 14 49  1  0
 15 50  1  0
 15 51  1  0
 15 52  1  0
 16 17  1  0
 16 53  1  0
 16 54  1  0
 17 18  2  0
 17 19  1  0
 19 20  1  0
 19 55  1  6
 20 21  1  0
 20 56  1  0
 20 57  1  0
 21 22  1  0
 21 58  1  0
 21 59  1  0
 22 23  1  0
 22 60  1  1
 23 24  1  0
 24 25  1  0
 24 61  1  1
 25 26  1  0
 25 27  1  0
 25 62  1  1
 26 63  1  0
 27 28  1  6
 27 29  1  0
 28 64  1  0
 29 36  1  0
 29 30  1  6
 29 31  1  0
 30 65  1  0
 30 66  1  0
 30 67  1  0
 31 32  1  0
 31 68  1  0
 31 69  1  0
 32 33  1  0
 32 70  1  0
 32 71  1  0
 33 34  1  0
 33 35  1  0
 33 72  1  1
 34 73  1  0
 35 36  1  0
 35 74  1  0
 35 75  1  0
 36 76  1  1
M  END
>  <i_m_ct_stereo_status>  (187) 
1

>  <s_m_source_file>  (187) 
/var/tmp/pbs.5076255.sched01/tmpguyree9i/45_f3p7e6s.sdf

>  <i_m_source_file_index>  (187) 
34

>  <i_lp_mmshare_version>  (187) 
48012

>  <i_f3d_flags>  (187) 
0

>  <s_epik_input>  (187) 
W09IXVtDQEBIXShbQ0gyXTEpW0NIMl1bQ0gyXVtDQF0yKFtDSDNdKVtDQEBIXTFbQ0BIXShPQyg9TylbQ0gzXSlbQ0hdPUMoW0NAQF0yM1tPSF0pW0NAQEhdNFtDQEhdKFtDQEhdM1tPSF0pT1tDQEhdNUMoW0NIMl00KT1DNltDQEBIXShbQ0gyXVtDSDJdNSlDKD1PKVtDSDJdQyhbQ0gyXTYpKFtDSDNdKVtDSDNd

>  <s_epik_cmdline>  (187) 
J2VwaWtfcHl0aG9uJywgJy1waHQnLCAnMi4wJywgJy1waCcsICc3LjAnLCAnLXRuJywgJzgnLCAnLW1hJywgJzIwMCcsICctaW1hZScsICc8aW5maWxlLm1hZT4nLCAnLW9tYWUnLCAnPG91dGZpbGUubWFlPic=

>  <r_lp_tautomer_probability>  (187) 
1

>  <r_epik_Ionization_Penalty>  (187) 
8.52623e-07

>  <r_epik_Ionization_Penalty_Charging>  (187) 
0

>  <r_epik_Ionization_Penalty_Neutral>  (187) 
8.52623e-07

>  <r_epik_State_Penalty>  (187) 
-0

>  <r_epik_Charging_Adjusted_Penalty>  (187) 
0

>  <i_epik_Tot_Q>  (187) 
0

>  <i_epik_Tot_abs_Q>  (187) 
0

>  <s_epik_Chemistry_Notes>  (187) 
This compound has an ester and may undergo hydrolysis at high or low pH.

>  <s_lp_Force_Field>  (187) 
OPLS3e

>  <r_lp_Energy>  (187) 
54.2801

>  <b_lp_Chiralities_Consistent>  (187) 
1

>  <s_lp_Variant>  (187) 
54:0-1

>  <s_i_glide_gridfile>  (187) 
pfpi4k_grid

>  <i_i_glide_lignum>  (187) 
34

>  <i_i_glide_rotatable_bonds>  (187) 
5

>  <r_i_docking_score>  (187) 
-2.53987

>  <r_i_glide_ligand_efficiency>  (187) 
-0.0705519

>  <r_i_glide_ligand_efficiency_sa>  (187) 
-0.232957

>  <r_i_glide_ligand_efficiency_ln>  (187) 
-0.554131

>  <r_i_glide_gscore>  (187) 
-2.53987

>  <r_i_glide_lipo>  (187) 
-0.0151828

>  <r_i_glide_hbond>  (187) 
-0.16621

>  <r_i_glide_metal>  (187) 
-0

>  <r_i_glide_rewards>  (187) 
0

>  <r_i_glide_evdw>  (187) 
-33.4264

>  <r_i_glide_ecoul>  (187) 
-4.73207

>  <r_i_glide_erotb>  (187) 
0.0814802

>  <r_i_glide_esite>  (187) 
-0.0588252

>  <r_i_glide_emodel>  (187) 
-43.1322

>  <r_i_glide_energy>  (187) 
-38.1585

>  <r_i_glide_einternal>  (187) 
2.3935

>  <r_i_glide_intrahb_reward>  (187) 
-0

>  <i_i_glide_confnum>  (187) 
4

>  <i_i_glide_posenum>  (187) 
20

>  <r_i_glide_eff_state_penalty>  (187) 
0

>  <ligand_id>  (187) 
54

>  <original_smiles>  (187) 
CC(=O)OC1C=C2C3CC4=C5CC(C)(C)CC(=O)C5CCC4OC3C(O)C2(O)C2(C)CCC(O)CC12

>  <smiles>  (187) 
[H]OC1([H])C([H])([H])C([H])([H])C2(C([H])([H])[H])C3(O[H])C(=C([H])C([H])(OC(=O)C([H])([H])[H])C2([H])C1([H])[H])C1([H])C([H])([H])C2=C4C([H])([H])C(C([H])([H])[H])(C([H])([H])[H])C([H])([H])C(=O)C4([H])C([H])([H])C([H])([H])C2([H])OC1([H])C3([H])O[H]

$$$$
54:0:1
     RDKit          3D

 76 81  0  0  1  0  0  0  0  0999 V2000
   -2.2794    2.1365    7.6322 C   0  0  0  0  0  0  0  0  0  0  0  0
   -1.4068    1.2570    6.7530 C   0  0  0  0  0  0  0  0  0  0  0  0
   -0.5165    0.5613    7.2446 O   0  0  0  0  0  0  0  0  0  0  0  0
   -1.7456    1.3357    5.4409 O   0  0  0  0  0  0  0  0  0  0  0  0
   -0.9426    0.7873    4.3869 C   0  0  2  0  0  0  0  0  0  0  0  0
   -0.6101   -0.6923    4.5847 C   0  0  0  0  0  0  0  0  0  0  0  0
    0.5875   -1.2253    4.2872 C   0  0  0  0  0  0  0  0  0  0  0  0
    1.1174   -2.4984    4.9310 C   0  0  1  0  0  0  0  0  0  0  0  0
    0.9993   -3.7429    4.0134 C   0  0  0  0  0  0  0  0  0  0  0  0
    2.0209   -4.8482    4.2816 C   0  0  0  0  0  0  0  0  0  0  0  0
    1.9325   -6.1128    3.7877 C   0  0  0  0  0  0  0  0  0  0  0  0
    0.7728   -6.6246    2.9385 C   0  0  0  0  0  0  0  0  0  0  0  0
    0.1118   -7.8826    3.5496 C   0  0  0  0  0  0  0  0  0  0  0  0
   -0.5375   -7.5396    4.9037 C   0  0  0  0  0  0  0  0  0  0  0  0
   -0.9807   -8.4040    2.6021 C   0  0  0  0  0  0  0  0  0  0  0  0
    1.1792   -8.9870    3.7268 C   0  0  0  0  0  0  0  0  0  0  0  0
    2.4147   -8.4889    4.4812 C   0  0  0  0  0  0  0  0  0  0  0  0
    2.9026   -9.1383    5.3999 O   0  0  0  0  0  0  0  0  0  0  0  0
    3.0330   -7.1650    3.9973 C   0  0  2  0  0  0  0  0  0  0  0  0
    4.1847   -6.6881    4.9106 C   0  0  0  0  0  0  0  0  0  0  0  0
    4.4913   -5.2047    4.6961 C   0  0  0  0  0  0  0  0  0  0  0  0
    3.2522   -4.3650    5.0238 C   0  0  1  0  0  0  0  0  0  0  0  0
    3.5110   -3.0041    4.7151 O   0  0  0  0  0  0  0  0  0  0  0  0
    2.5714   -2.1176    5.3197 C   0  0  1  0  0  0  0  0  0  0  0  0
    2.7693   -0.6663    4.8174 C   0  0  1  0  0  0  0  0  0  0  0  0
    4.1255   -0.3617    4.5504 O   0  0  0  0  0  0  0  0  0  0  0  0
    1.7462   -0.4497    3.6757 C   0  0  1  0  0  0  0  0  0  0  0  0
    2.2406   -1.1356    2.5384 O   0  0  0  0  0  0  0  0  0  0  0  0
    1.3535    1.0237    3.2313 C   0  0  2  0  0  0  0  0  0  0  0  0
    0.7135    0.9919    1.8054 C   0  0  0  0  0  0  0  0  0  0  0  0
    2.6057    1.9389    3.1957 C   0  0  0  0  0  0  0  0  0  0  0  0
    2.3044    3.3968    2.8217 C   0  0  0  0  0  0  0  0  0  0  0  0
    1.2653    4.0109    3.7693 C   0  0  1  0  0  0  0  0  0  0  0  0
    0.8755    5.2750    3.2788 O   0  0  0  0  0  0  0  0  0  0  0  0
    0.0070    3.1377    3.9119 C   0  0  0  0  0  0  0  0  0  0  0  0
    0.3388    1.6536    4.2330 C   0  0  1  0  0  0  0  0  0  0  0  0
   -3.3162    1.8055    7.5990 H   0  0  0  0  0  0  0  0  0  0  0  0
   -2.2264    3.1748    7.3049 H   0  0  0  0  0  0  0  0  0  0  0  0
   -1.9256    2.0803    8.6605 H   0  0  0  0  0  0  0  0  0  0  0  0
   -1.5404    0.8508    3.4762 H   0  0  0  0  0  0  0  0  0  0  0  0
   -1.3366   -1.2795    5.1352 H   0  0  0  0  0  0  0  0  0  0  0  0
    0.5577   -2.6884    5.8484 H   0  0  0  0  0  0  0  0  0  0  0  0
   -0.0113   -4.1335    4.1040 H   0  0  0  0  0  0  0  0  0  0  0  0
    1.1389   -3.4447    2.9766 H   0  0  0  0  0  0  0  0  0  0  0  0
    0.0245   -5.8544    2.7759 H   0  0  0  0  0  0  0  0  0  0  0  0
    1.1751   -6.8733    1.9541 H   0  0  0  0  0  0  0  0  0  0  0  0
   -0.9991   -8.4290    5.3400 H   0  0  0  0  0  0  0  0  0  0  0  0
   -1.2997   -6.7634    4.8026 H   0  0  0  0  0  0  0  0  0  0  0  0
    0.1961   -7.1777    5.6275 H   0  0  0  0  0  0  0  0  0  0  0  0
   -1.4491   -9.3116    2.9904 H   0  0  0  0  0  0  0  0  0  0  0  0
   -0.5389   -8.6530    1.6405 H   0  0  0  0  0  0  0  0  0  0  0  0
   -1.7626   -7.6619    2.4308 H   0  0  0  0  0  0  0  0  0  0  0  0
    0.7585   -9.8529    4.2403 H   0  0  0  0  0  0  0  0  0  0  0  0
    1.5147   -9.3405    2.7539 H   0  0  0  0  0  0  0  0  0  0  0  0
    3.4504   -7.3602    3.0107 H   0  0  0  0  0  0  0  0  0  0  0  0
    3.9406   -6.8464    5.9621 H   0  0  0  0  0  0  0  0  0  0  0  0
    5.0754   -7.2853    4.7126 H   0  0  0  0  0  0  0  0  0  0  0  0
    5.3240   -4.8951    5.3286 H   0  0  0  0  0  0  0  0  0  0  0  0
    4.7933   -5.0364    3.6606 H   0  0  0  0  0  0  0  0  0  0  0  0
    3.0452   -4.4630    6.0922 H   0  0  0  0  0  0  0  0  0  0  0  0
    2.7076   -2.1480    6.4021 H   0  0  0  0  0  0  0  0  0  0  0  0
    2.4788   -0.0104    5.6355 H   0  0  0  0  0  0  0  0  0  0  0  0
    4.1713    0.5120    4.1945 H   0  0  0  0  0  0  0  0  0  0  0  0
    1.7114   -0.8827    1.7944 H   0  0  0  0  0  0  0  0  0  0  0  0
    0.2835    1.9468    1.5057 H   0  0  0  0  0  0  0  0  0  0  0  0
   -0.0878    0.2571    1.7279 H   0  0  0  0  0  0  0  0  0  0  0  0
    1.4517    0.7572    1.0372 H   0  0  0  0  0  0  0  0  0  0  0  0
    3.0703    1.9703    4.1785 H   0  0  0  0  0  0  0  0  0  0  0  0
    3.3409    1.5309    2.5054 H   0  0  0  0  0  0  0  0  0  0  0  0
    3.2249    3.9820    2.8594 H   0  0  0  0  0  0  0  0  0  0  0  0
    1.9671    3.4502    1.7876 H   0  0  0  0  0  0  0  0  0  0  0  0
    1.7191    4.1452    4.7510 H   0  0  0  0  0  0  0  0  0  0  0  0
    0.6150    5.1567    2.3642 H   0  0  0  0  0  0  0  0  0  0  0  0
   -0.5951    3.5627    4.7144 H   0  0  0  0  0  0  0  0  0  0  0  0
   -0.6143    3.2158    3.0180 H   0  0  0  0  0  0  0  0  0  0  0  0
    0.8513    1.6728    5.1939 H   0  0  0  0  0  0  0  0  0  0  0  0
  1  2  1  0
  1 37  1  0
  1 38  1  0
  1 39  1  0
  2  3  2  0
  2  4  1  0
  4  5  1  0
  5 36  1  0
  5  6  1  0
  5 40  1  6
  6  7  2  0
  6 41  1  0
  7 27  1  0
  7  8  1  0
  8 24  1  0
  8  9  1  0
  8 42  1  1
  9 10  1  0
  9 43  1  0
  9 44  1  0
 10 22  1  0
 10 11  2  0
 11 19  1  0
 11 12  1  0
 12 13  1  0
 12 45  1  0
 12 46  1  0
 13 14  1  0
 13 15  1  0
 13 16  1  0
 14 47  1  0
 14 48  1  0
 14 49  1  0
 15 50  1  0
 15 51  1  0
 15 52  1  0
 16 17  1  0
 16 53  1  0
 16 54  1  0
 17 18  2  0
 17 19  1  0
 19 20  1  0
 19 55  1  6
 20 21  1  0
 20 56  1  0
 20 57  1  0
 21 22  1  0
 21 58  1  0
 21 59  1  0
 22 23  1  0
 22 60  1  1
 23 24  1  0
 24 25  1  0
 24 61  1  1
 25 26  1  0
 25 27  1  0
 25 62  1  1
 26 63  1  0
 27 28  1  6
 27 29  1  0
 28 64  1  0
 29 36  1  0
 29 30  1  6
 29 31  1  0
 30 65  1  0
 30 66  1  0
 30 67  1  0
 31 32  1  0
 31 68  1  0
 31 69  1  0
 32 33  1  0
 32 70  1  0
 32 71  1  0
 33 34  1  0
 33 35  1  0
 33 72  1  1
 34 73  1  0
 35 36  1  0
 35 74  1  0
 35 75  1  0
 36 76  1  1
M  END
>  <i_m_ct_stereo_status>  (188) 
1

>  <s_m_source_file>  (188) 
/var/tmp/pbs.5076255.sched01/tmpguyree9i/45_f3p7e6s.sdf

>  <i_m_source_file_index>  (188) 
34

>  <i_lp_mmshare_version>  (188) 
48012

>  <i_f3d_flags>  (188) 
0

>  <s_epik_input>  (188) 
W09IXVtDQEBIXShbQ0gyXTEpW0NIMl1bQ0gyXVtDQF0yKFtDSDNdKVtDQEBIXTFbQ0BIXShPQyg9TylbQ0gzXSlbQ0hdPUMoW0NAQF0yM1tPSF0pW0NAQEhdNFtDQEhdKFtDQEhdM1tPSF0pT1tDQEhdNUMoW0NIMl00KT1DNltDQEBIXShbQ0gyXVtDSDJdNSlDKD1PKVtDSDJdQyhbQ0gyXTYpKFtDSDNdKVtDSDNd

>  <s_epik_cmdline>  (188) 
J2VwaWtfcHl0aG9uJywgJy1waHQnLCAnMi4wJywgJy1waCcsICc3LjAnLCAnLXRuJywgJzgnLCAnLW1hJywgJzIwMCcsICctaW1hZScsICc8aW5maWxlLm1hZT4nLCAnLW9tYWUnLCAnPG91dGZpbGUubWFlPic=

>  <r_lp_tautomer_probability>  (188) 
1

>  <r_epik_Ionization_Penalty>  (188) 
8.52623e-07

>  <r_epik_Ionization_Penalty_Charging>  (188) 
0

>  <r_epik_Ionization_Penalty_Neutral>  (188) 
8.52623e-07

>  <r_epik_State_Penalty>  (188) 
-0

>  <r_epik_Charging_Adjusted_Penalty>  (188) 
0

>  <i_epik_Tot_Q>  (188) 
0

>  <i_epik_Tot_abs_Q>  (188) 
0

>  <s_epik_Chemistry_Notes>  (188) 
This compound has an ester and may undergo hydrolysis at high or low pH.

>  <s_lp_Force_Field>  (188) 
OPLS3e

>  <r_lp_Energy>  (188) 
54.2801

>  <b_lp_Chiralities_Consistent>  (188) 
1

>  <s_lp_Variant>  (188) 
54:0-1

>  <s_i_glide_gridfile>  (188) 
pfpi4k_grid

>  <i_i_glide_lignum>  (188) 
34

>  <i_i_glide_rotatable_bonds>  (188) 
5

>  <r_i_docking_score>  (188) 
-2.52428

>  <r_i_glide_ligand_efficiency>  (188) 
-0.070119

>  <r_i_glide_ligand_efficiency_sa>  (188) 
-0.231528

>  <r_i_glide_ligand_efficiency_ln>  (188) 
-0.55073

>  <r_i_glide_gscore>  (188) 
-2.52428

>  <r_i_glide_lipo>  (188) 
-0.0174368

>  <r_i_glide_hbond>  (188) 
-0.16

>  <r_i_glide_metal>  (188) 
-0

>  <r_i_glide_rewards>  (188) 
0

>  <r_i_glide_evdw>  (188) 
-33.6518

>  <r_i_glide_ecoul>  (188) 
-4.60829

>  <r_i_glide_erotb>  (188) 
0.0814802

>  <r_i_glide_esite>  (188) 
-0.0544925

>  <r_i_glide_emodel>  (188) 
-43.2396

>  <r_i_glide_energy>  (188) 
-38.2601

>  <r_i_glide_einternal>  (188) 
2.45418

>  <r_i_glide_intrahb_reward>  (188) 
-0

>  <i_i_glide_confnum>  (188) 
4

>  <i_i_glide_posenum>  (188) 
31

>  <r_i_glide_eff_state_penalty>  (188) 
0

>  <ligand_id>  (188) 
54

>  <original_smiles>  (188) 
CC(=O)OC1C=C2C3CC4=C5CC(C)(C)CC(=O)C5CCC4OC3C(O)C2(O)C2(C)CCC(O)CC12

>  <smiles>  (188) 
[H]OC1([H])C([H])([H])C([H])([H])C2(C([H])([H])[H])C3(O[H])C(=C([H])C([H])(OC(=O)C([H])([H])[H])C2([H])C1([H])[H])C1([H])C([H])([H])C2=C4C([H])([H])C(C([H])([H])[H])(C([H])([H])[H])C([H])([H])C(=O)C4([H])C([H])([H])C([H])([H])C2([H])OC1([H])C3([H])O[H]

$$$$
54:0:2
     RDKit          3D

 76 81  0  0  1  0  0  0  0  0999 V2000
   -2.3250    2.1479    7.5942 C   0  0  0  0  0  0  0  0  0  0  0  0
   -1.4431    1.2665    6.7273 C   0  0  0  0  0  0  0  0  0  0  0  0
   -0.5659    0.5643    7.2327 O   0  0  0  0  0  0  0  0  0  0  0  0
   -1.7586    1.3493    5.4118 O   0  0  0  0  0  0  0  0  0  0  0  0
   -0.9413    0.8012    4.3688 C   0  0  2  0  0  0  0  0  0  0  0  0
   -0.6084   -0.6765    4.5750 C   0  0  0  0  0  0  0  0  0  0  0  0
    0.5955   -1.2075    4.2983 C   0  0  0  0  0  0  0  0  0  0  0  0
    1.1206   -2.4797    4.9464 C   0  0  1  0  0  0  0  0  0  0  0  0
    1.0130   -3.7263    4.0287 C   0  0  0  0  0  0  0  0  0  0  0  0
    2.0393   -4.8241    4.3115 C   0  0  0  0  0  0  0  0  0  0  0  0
    1.9627   -6.0908    3.8210 C   0  0  0  0  0  0  0  0  0  0  0  0
    0.8167   -6.6118    2.9571 C   0  0  0  0  0  0  0  0  0  0  0  0
    0.1513   -7.8694    3.5635 C   0  0  0  0  0  0  0  0  0  0  0  0
   -0.5186   -7.5256    4.9069 C   0  0  0  0  0  0  0  0  0  0  0  0
   -0.9242   -8.3983    2.6004 C   0  0  0  0  0  0  0  0  0  0  0  0
    1.2209   -8.9699    3.7557 C   0  0  0  0  0  0  0  0  0  0  0  0
    2.4447   -8.4654    4.5248 C   0  0  0  0  0  0  0  0  0  0  0  0
    2.9230   -9.1128    5.4532 O   0  0  0  0  0  0  0  0  0  0  0  0
    3.0635   -7.1395    4.0478 C   0  0  2  0  0  0  0  0  0  0  0  0
    4.2027   -6.6575    4.9761 C   0  0  0  0  0  0  0  0  0  0  0  0
    4.5068   -5.1736    4.7631 C   0  0  0  0  0  0  0  0  0  0  0  0
    3.2617   -4.3364    5.0724 C   0  0  1  0  0  0  0  0  0  0  0  0
    3.5253   -2.9733    4.7726 O   0  0  0  0  0  0  0  0  0  0  0  0
    2.5696   -2.0905    5.3553 C   0  0  1  0  0  0  0  0  0  0  0  0
    2.7671   -0.6379    4.8498 C   0  0  1  0  0  0  0  0  0  0  0  0
    4.1164   -0.3040    4.5995 O   0  0  0  0  0  0  0  0  0  0  0  0
    1.7577   -0.4317    3.6958 C   0  0  1  0  0  0  0  0  0  0  0  0
    2.2647   -1.1277    2.5692 O   0  0  0  0  0  0  0  0  0  0  0  0
    1.3655    1.0396    3.2415 C   0  0  2  0  0  0  0  0  0  0  0  0
    0.7482    1.0031    1.8080 C   0  0  0  0  0  0  0  0  0  0  0  0
    2.6163    1.9602    3.2227 C   0  0  0  0  0  0  0  0  0  0  0  0
    2.3164    3.4187    2.8433 C   0  0  0  0  0  0  0  0  0  0  0  0
    1.2632    4.0296    3.7759 C   0  0  1  0  0  0  0  0  0  0  0  0
    0.8736    5.2928    3.2783 O   0  0  0  0  0  0  0  0  0  0  0  0
    0.0066    3.1514    3.9027 C   0  0  0  0  0  0  0  0  0  0  0  0
    0.3390    1.6693    4.2302 C   0  0  1  0  0  0  0  0  0  0  0  0
   -3.3622    1.8214    7.5418 H   0  0  0  0  0  0  0  0  0  0  0  0
   -2.2609    3.1865    7.2676 H   0  0  0  0  0  0  0  0  0  0  0  0
   -1.9881    2.0889    8.6286 H   0  0  0  0  0  0  0  0  0  0  0  0
   -1.5263    0.8601    3.4494 H   0  0  0  0  0  0  0  0  0  0  0  0
   -1.3380   -1.2667    5.1138 H   0  0  0  0  0  0  0  0  0  0  0  0
    0.5495   -2.6709    5.8552 H   0  0  0  0  0  0  0  0  0  0  0  0
    0.0019   -4.1201    4.1007 H   0  0  0  0  0  0  0  0  0  0  0  0
    1.1702   -3.4282    2.9939 H   0  0  0  0  0  0  0  0  0  0  0  0
    0.0678   -5.8469    2.7808 H   0  0  0  0  0  0  0  0  0  0  0  0
    1.2355   -6.8604    1.9788 H   0  0  0  0  0  0  0  0  0  0  0  0
   -0.9915   -8.4112    5.3374 H   0  0  0  0  0  0  0  0  0  0  0  0
   -1.2772   -6.7491    4.7926 H   0  0  0  0  0  0  0  0  0  0  0  0
    0.2037   -7.1632    5.6404 H   0  0  0  0  0  0  0  0  0  0  0  0
   -1.3970   -9.3045    2.9851 H   0  0  0  0  0  0  0  0  0  0  0  0
   -0.4668   -8.6560    1.6481 H   0  0  0  0  0  0  0  0  0  0  0  0
   -1.7036   -7.6581    2.4128 H   0  0  0  0  0  0  0  0  0  0  0  0
    0.7971   -9.8366    4.2641 H   0  0  0  0  0  0  0  0  0  0  0  0
    1.5719   -9.3230    2.7877 H   0  0  0  0  0  0  0  0  0  0  0  0
    3.4965   -7.3364    3.0681 H   0  0  0  0  0  0  0  0  0  0  0  0
    3.9449   -6.8154    6.0245 H   0  0  0  0  0  0  0  0  0  0  0  0
    5.0981   -7.2524    4.7909 H   0  0  0  0  0  0  0  0  0  0  0  0
    5.3304   -4.8613    5.4060 H   0  0  0  0  0  0  0  0  0  0  0  0
    4.8230   -5.0063    3.7316 H   0  0  0  0  0  0  0  0  0  0  0  0
    3.0389   -4.4370    6.1372 H   0  0  0  0  0  0  0  0  0  0  0  0
    2.6868   -2.1206    6.4411 H   0  0  0  0  0  0  0  0  0  0  0  0
    2.4631    0.0145    5.6647 H   0  0  0  0  0  0  0  0  0  0  0  0
    4.6125   -0.4702    5.3873 H   0  0  0  0  0  0  0  0  0  0  0  0
    1.7613   -0.8555    1.8137 H   0  0  0  0  0  0  0  0  0  0  0  0
    0.3207    1.9568    1.5031 H   0  0  0  0  0  0  0  0  0  0  0  0
   -0.0489    0.2666    1.7209 H   0  0  0  0  0  0  0  0  0  0  0  0
    1.4987    0.7709    1.0526 H   0  0  0  0  0  0  0  0  0  0  0  0
    3.0708    1.9879    4.2108 H   0  0  0  0  0  0  0  0  0  0  0  0
    3.3627    1.5504    2.5479 H   0  0  0  0  0  0  0  0  0  0  0  0
    3.2368    4.0032    2.8944 H   0  0  0  0  0  0  0  0  0  0  0  0
    1.9953    3.4706    1.8048 H   0  0  0  0  0  0  0  0  0  0  0  0
    1.7048    4.1665    4.7636 H   0  0  0  0  0  0  0  0  0  0  0  0
    0.6202    5.1720    2.3694 H   0  0  0  0  0  0  0  0  0  0  0  0
   -0.6075    3.5760    4.6967 H   0  0  0  0  0  0  0  0  0  0  0  0
   -0.6023    3.2263    3.0004 H   0  0  0  0  0  0  0  0  0  0  0  0
    0.8389    1.6902    5.1987 H   0  0  0  0  0  0  0  0  0  0  0  0
  1  2  1  0
  1 37  1  0
  1 38  1  0
  1 39  1  0
  2  3  2  0
  2  4  1  0
  4  5  1  0
  5 36  1  0
  5  6  1  0
  5 40  1  6
  6  7  2  0
  6 41  1  0
  7 27  1  0
  7  8  1  0
  8 24  1  0
  8  9  1  0
  8 42  1  1
  9 10  1  0
  9 43  1  0
  9 44  1  0
 10 22  1  0
 10 11  2  0
 11 19  1  0
 11 12  1  0
 12 13  1  0
 12 45  1  0
 12 46  1  0
 13 14  1  0
 13 15  1  0
 13 16  1  0
 14 47  1  0
 14 48  1  0
 14 49  1  0
 15 50  1  0
 15 51  1  0
 15 52  1  0
 16 17  1  0
 16 53  1  0
 16 54  1  0
 17 18  2  0
 17 19  1  0
 19 20  1  0
 19 55  1  6
 20 21  1  0
 20 56  1  0
 20 57  1  0
 21 22  1  0
 21 58  1  0
 21 59  1  0
 22 23  1  0
 22 60  1  1
 23 24  1  0
 24 25  1  0
 24 61  1  1
 25 26  1  0
 25 27  1  0
 25 62  1  1
 26 63  1  0
 27 28  1  6
 27 29  1  0
 28 64  1  0
 29 36  1  0
 29 30  1  6
 29 31  1  0
 30 65  1  0
 30 66  1  0
 30 67  1  0
 31 32  1  0
 31 68  1  0
 31 69  1  0
 32 33  1  0
 32 70  1  0
 32 71  1  0
 33 34  1  0
 33 35  1  0
 33 72  1  1
 34 73  1  0
 35 36  1  0
 35 74  1  0
 35 75  1  0
 36 76  1  1
M  END
>  <i_m_ct_stereo_status>  (189) 
1

>  <s_m_source_file>  (189) 
/var/tmp/pbs.5076255.sched01/tmpguyree9i/45_f3p7e6s.sdf

>  <i_m_source_file_index>  (189) 
34

>  <i_lp_mmshare_version>  (189) 
48012

>  <i_f3d_flags>  (189) 
0

>  <s_epik_input>  (189) 
W09IXVtDQEBIXShbQ0gyXTEpW0NIMl1bQ0gyXVtDQF0yKFtDSDNdKVtDQEBIXTFbQ0BIXShPQyg9TylbQ0gzXSlbQ0hdPUMoW0NAQF0yM1tPSF0pW0NAQEhdNFtDQEhdKFtDQEhdM1tPSF0pT1tDQEhdNUMoW0NIMl00KT1DNltDQEBIXShbQ0gyXVtDSDJdNSlDKD1PKVtDSDJdQyhbQ0gyXTYpKFtDSDNdKVtDSDNd

>  <s_epik_cmdline>  (189) 
J2VwaWtfcHl0aG9uJywgJy1waHQnLCAnMi4wJywgJy1waCcsICc3LjAnLCAnLXRuJywgJzgnLCAnLW1hJywgJzIwMCcsICctaW1hZScsICc8aW5maWxlLm1hZT4nLCAnLW9tYWUnLCAnPG91dGZpbGUubWFlPic=

>  <r_lp_tautomer_probability>  (189) 
1

>  <r_epik_Ionization_Penalty>  (189) 
8.52623e-07

>  <r_epik_Ionization_Penalty_Charging>  (189) 
0

>  <r_epik_Ionization_Penalty_Neutral>  (189) 
8.52623e-07

>  <r_epik_State_Penalty>  (189) 
-0

>  <r_epik_Charging_Adjusted_Penalty>  (189) 
0

>  <i_epik_Tot_Q>  (189) 
0

>  <i_epik_Tot_abs_Q>  (189) 
0

>  <s_epik_Chemistry_Notes>  (189) 
This compound has an ester and may undergo hydrolysis at high or low pH.

>  <s_lp_Force_Field>  (189) 
OPLS3e

>  <r_lp_Energy>  (189) 
54.2801

>  <b_lp_Chiralities_Consistent>  (189) 
1

>  <s_lp_Variant>  (189) 
54:0-1

>  <s_i_glide_gridfile>  (189) 
pfpi4k_grid

>  <i_i_glide_lignum>  (189) 
34

>  <i_i_glide_rotatable_bonds>  (189) 
5

>  <r_i_docking_score>  (189) 
-2.43067

>  <r_i_glide_ligand_efficiency>  (189) 
-0.0675186

>  <r_i_glide_ligand_efficiency_sa>  (189) 
-0.222942

>  <r_i_glide_ligand_efficiency_ln>  (189) 
-0.530306

>  <r_i_glide_gscore>  (189) 
-2.43067

>  <r_i_glide_lipo>  (189) 
-0.0181534

>  <r_i_glide_hbond>  (189) 
-0.167673

>  <r_i_glide_metal>  (189) 
-0

>  <r_i_glide_rewards>  (189) 
0

>  <r_i_glide_evdw>  (189) 
-33.6129

>  <r_i_glide_ecoul>  (189) 
-3.94284

>  <r_i_glide_erotb>  (189) 
0.0814802

>  <r_i_glide_esite>  (189) 
-0.0542524

>  <r_i_glide_emodel>  (189) 
-42.3087

>  <r_i_glide_energy>  (189) 
-37.5557

>  <r_i_glide_einternal>  (189) 
2.48461

>  <r_i_glide_intrahb_reward>  (189) 
-0

>  <i_i_glide_confnum>  (189) 
4

>  <i_i_glide_posenum>  (189) 
21

>  <r_i_glide_eff_state_penalty>  (189) 
0

>  <ligand_id>  (189) 
54

>  <original_smiles>  (189) 
CC(=O)OC1C=C2C3CC4=C5CC(C)(C)CC(=O)C5CCC4OC3C(O)C2(O)C2(C)CCC(O)CC12

>  <smiles>  (189) 
[H]OC1([H])C([H])([H])C([H])([H])C2(C([H])([H])[H])C3(O[H])C(=C([H])C([H])(OC(=O)C([H])([H])[H])C2([H])C1([H])[H])C1([H])C([H])([H])C2=C4C([H])([H])C(C([H])([H])[H])(C([H])([H])[H])C([H])([H])C(=O)C4([H])C([H])([H])C([H])([H])C2([H])OC1([H])C3([H])O[H]

$$$$
55:0:0
     RDKit          3D

 80 84  0  0  1  0  0  0  0  0999 V2000
    3.0886   -3.5581   -4.0336 C   0  0  0  0  0  0  0  0  0  0  0  0
    3.1878   -2.5811   -2.8639 C   0  0  2  0  0  0  0  0  0  0  0  0
    4.3730   -1.6579   -3.1726 C   0  0  0  0  0  0  0  0  0  0  0  0
    4.8896   -0.8609   -1.9812 C   0  0  0  0  0  0  0  0  0  0  0  0
    5.2308   -1.7773   -0.7771 C   0  0  1  0  0  0  0  0  0  0  0  0
    6.3524   -2.7265   -1.2944 C   0  0  0  0  0  0  0  0  0  0  0  0
    5.8588   -0.9029    0.3498 C   0  0  0  0  0  0  0  0  0  0  0  0
    5.0109   -0.7681    1.6056 C   0  0  0  0  0  0  0  0  0  0  0  0
    4.5270   -2.1206    2.1627 C   0  0  2  0  0  0  0  0  0  0  0  0
    3.8786   -1.7989    3.5452 C   0  0  0  0  0  0  0  0  0  0  0  0
    4.6347   -1.5871    4.5212 O   0  0  0  0  0  0  0  0  0  0  0  0
    2.6218   -1.7146    3.6348 O   0  0  0  0  0  0  0  0  0  0  0  0
    5.7118   -3.0874    2.3988 C   0  0  0  0  0  0  0  0  0  0  0  0
    5.3496   -4.5155    2.8791 C   0  0  0  0  0  0  0  0  0  0  0  0
    4.3839   -5.2698    1.9121 C   0  0  2  0  0  0  0  0  0  0  0  0
    5.1123   -5.5318    0.5746 C   0  0  0  0  0  0  0  0  0  0  0  0
    3.2645   -4.2607    1.6715 C   0  0  0  0  0  0  0  0  0  0  0  0
    2.0530   -4.4445    2.2008 C   0  0  0  0  0  0  0  0  0  0  0  0
    1.5828   -5.6377    2.9827 C   0  0  0  0  0  0  0  0  0  0  0  0
    2.7162   -6.5113    3.5759 C   0  0  1  0  0  0  0  0  0  0  0  0
    2.1113   -7.8402    4.1797 C   0  0  0  0  0  0  0  0  0  0  0  0
    3.1078   -8.5278    5.1742 C   0  0  0  0  0  0  0  0  0  0  0  0
    0.8733   -7.5403    5.0870 C   0  0  0  0  0  0  0  0  0  0  0  0
    1.7320   -8.8714    3.0788 C   0  0  1  0  0  0  0  0  0  0  0  0
    0.4698   -8.6012    2.4598 O   0  0  0  0  0  0  0  0  0  0  0  0
    2.7658   -8.9921    1.9484 C   0  0  0  0  0  0  0  0  0  0  0  0
    3.3202   -7.6457    1.4323 C   0  0  0  0  0  0  0  0  0  0  0  0
    3.8854   -6.6877    2.5227 C   0  0  1  0  0  0  0  0  0  0  0  0
    5.1378   -7.3617    3.1586 C   0  0  0  0  0  0  0  0  0  0  0  0
    3.5980   -2.8194    1.1625 C   0  0  2  0  0  0  0  0  0  0  0  0
    3.8609   -2.4541   -0.3684 C   0  0  2  0  0  0  0  0  0  0  0  0
    3.2855   -3.3537   -1.4930 C   0  0  1  0  0  0  0  0  0  0  0  0
    1.8685   -3.8621   -1.1549 C   0  0  0  0  0  0  0  0  0  0  0  0
    3.9668   -4.1914   -4.0885 H   0  0  0  0  0  0  0  0  0  0  0  0
    3.0056   -3.0148   -4.9683 H   0  0  0  0  0  0  0  0  0  0  0  0
    2.2208   -4.2147   -3.9679 H   0  0  0  0  0  0  0  0  0  0  0  0
    2.2855   -1.9806   -2.8525 H   0  0  0  0  0  0  0  0  0  0  0  0
    5.1742   -2.2229   -3.6256 H   0  0  0  0  0  0  0  0  0  0  0  0
    4.0466   -0.9451   -3.9437 H   0  0  0  0  0  0  0  0  0  0  0  0
    5.7440   -0.2720   -2.2936 H   0  0  0  0  0  0  0  0  0  0  0  0
    4.1443   -0.1335   -1.6934 H   0  0  0  0  0  0  0  0  0  0  0  0
    6.9274   -3.1831   -0.4954 H   0  0  0  0  0  0  0  0  0  0  0  0
    7.0740   -2.1783   -1.8970 H   0  0  0  0  0  0  0  0  0  0  0  0
    5.9655   -3.5233   -1.9249 H   0  0  0  0  0  0  0  0  0  0  0  0
    6.8473   -1.2737    0.6247 H   0  0  0  0  0  0  0  0  0  0  0  0
    6.0802    0.0974   -0.0128 H   0  0  0  0  0  0  0  0  0  0  0  0
    5.5928   -0.2223    2.3571 H   0  0  0  0  0  0  0  0  0  0  0  0
    4.1428   -0.1288    1.4089 H   0  0  0  0  0  0  0  0  0  0  0  0
    6.3848   -3.1653    1.5625 H   0  0  0  0  0  0  0  0  0  0  0  0
    6.2213   -2.5672    3.1810 H   0  0  0  0  0  0  0  0  0  0  0  0
    6.2821   -5.0492    3.0199 H   0  0  0  0  0  0  0  0  0  0  0  0
    4.9036   -4.4469    3.8759 H   0  0  0  0  0  0  0  0  0  0  0  0
    5.9390   -6.2223    0.6620 H   0  0  0  0  0  0  0  0  0  0  0  0
    5.5130   -4.6126    0.1792 H   0  0  0  0  0  0  0  0  0  0  0  0
    4.4204   -5.8949   -0.1852 H   0  0  0  0  0  0  0  0  0  0  0  0
    1.3654   -3.6331    2.1141 H   0  0  0  0  0  0  0  0  0  0  0  0
    0.9788   -5.2276    3.7849 H   0  0  0  0  0  0  0  0  0  0  0  0
    0.9219   -6.1872    2.3255 H   0  0  0  0  0  0  0  0  0  0  0  0
    3.1150   -5.9250    4.4010 H   0  0  0  0  0  0  0  0  0  0  0  0
    2.5940   -9.1082    5.9263 H   0  0  0  0  0  0  0  0  0  0  0  0
    3.7292   -7.7967    5.6790 H   0  0  0  0  0  0  0  0  0  0  0  0
    3.7498   -9.2430    4.6600 H   0  0  0  0  0  0  0  0  0  0  0  0
    0.5008   -8.4411    5.5613 H   0  0  0  0  0  0  0  0  0  0  0  0
    0.0295   -7.1355    4.5137 H   0  0  0  0  0  0  0  0  0  0  0  0
    1.1207   -6.8222    5.8593 H   0  0  0  0  0  0  0  0  0  0  0  0
    1.6093   -9.8524    3.5356 H   0  0  0  0  0  0  0  0  0  0  0  0
    0.2860   -9.2803    1.8545 H   0  0  0  0  0  0  0  0  0  0  0  0
    3.5950   -9.6107    2.3041 H   0  0  0  0  0  0  0  0  0  0  0  0
    2.3536   -9.5561    1.1184 H   0  0  0  0  0  0  0  0  0  0  0  0
    4.0793   -7.8829    0.6968 H   0  0  0  0  0  0  0  0  0  0  0  0
    2.5177   -7.1290    0.8849 H   0  0  0  0  0  0  0  0  0  0  0  0
    5.0499   -8.4335    3.2671 H   0  0  0  0  0  0  0  0  0  0  0  0
    5.3584   -6.9490    4.1428 H   0  0  0  0  0  0  0  0  0  0  0  0
    6.0271   -7.2374    2.5477 H   0  0  0  0  0  0  0  0  0  0  0  0
    2.6513   -2.2933    1.2988 H   0  0  0  0  0  0  0  0  0  0  0  0
    3.1864   -1.6022   -0.4329 H   0  0  0  0  0  0  0  0  0  0  0  0
    3.9172   -4.2135   -1.6263 H   0  0  0  0  0  0  0  0  0  0  0  0
    1.2988   -3.0589   -0.7107 H   0  0  0  0  0  0  0  0  0  0  0  0
    1.8912   -4.6945   -0.4692 H   0  0  0  0  0  0  0  0  0  0  0  0
    1.3359   -4.2143   -2.0295 H   0  0  0  0  0  0  0  0  0  0  0  0
  1  2  1  0
  1 34  1  0
  1 35  1  0
  1 36  1  0
  2 32  1  0
  2  3  1  0
  2 37  1  1
  3  4  1  0
  3 38  1  0
  3 39  1  0
  4  5  1  0
  4 40  1  0
  4 41  1  0
  5 31  1  0
  5  6  1  6
  5  7  1  0
  6 42  1  0
  6 43  1  0
  6 44  1  0
  7  8  1  0
  7 45  1  0
  7 46  1  0
  8  9  1  0
  8 47  1  0
  8 48  1  0
  9 30  1  0
  9 10  1  1
  9 13  1  0
 10 11  2  0
 10 12  1  0
 13 14  1  0
 13 49  1  0
 13 50  1  0
 14 15  1  0
 14 51  1  0
 14 52  1  0
 15 28  1  0
 15 16  1  6
 15 17  1  0
 16 53  1  0
 16 54  1  0
 16 55  1  0
 17 18  2  0
 17 30  1  0
 18 19  1  0
 18 56  1  0
 19 20  1  0
 19 57  1  0
 19 58  1  0
 20 28  1  0
 20 21  1  0
 20 59  1  1
 21 22  1  0
 21 23  1  0
 21 24  1  0
 22 60  1  0
 22 61  1  0
 22 62  1  0
 23 63  1  0
 23 64  1  0
 23 65  1  0
 24 25  1  0
 24 26  1  0
 24 66  1  1
 25 67  1  0
 26 27  1  0
 26 68  1  0
 26 69  1  0
 27 28  1  0
 27 70  1  0
 27 71  1  0
 28 29  1  1
 29 72  1  0
 29 73  1  0
 29 74  1  0
 30 31  1  0
 30 75  1  1
 31 32  1  0
 31 76  1  6
 32 33  1  0
 32 77  1  6
 33 78  1  0
 33 79  1  0
 33 80  1  0
M  CHG  1  12  -1
M  END
>  <i_m_ct_stereo_status>  (190) 
1

>  <s_m_source_file>  (190) 
/var/tmp/pbs.5076255.sched01/tmpguyree9i/45_f3p7e6s.sdf

>  <i_m_source_file_index>  (190) 
35

>  <i_lp_mmshare_version>  (190) 
48012

>  <i_f3d_flags>  (190) 
0

>  <s_epik_input>  (190) 
W0NIMl0xW0NIMl1bQ0BASF0oW0NIM10pW0NASF0oW0NIM10pW0NASF0oW0NAQF0xMltDSDNdKVtDQEBIXTNbQ0BAXShbQ0gyXVtDSDJdMikoQyg9TylbT0hdKVtDSDJdW0NIMl1bQ0BdNChbQ0gzXSlDMz1bQ0hdW0NIMl1bQ0BASF01W0NAQF00KFtDSDNdKVtDSDJdW0NIMl1bQ0BIXShbT0hdKUM1KFtDSDNdKVtDSDNd

>  <s_epik_cmdline>  (190) 
J2VwaWtfcHl0aG9uJywgJy1waHQnLCAnMi4wJywgJy1waCcsICc3LjAnLCAnLXRuJywgJzgnLCAnLW1hJywgJzIwMCcsICctaW1hZScsICc8aW5maWxlLm1hZT4nLCAnLW9tYWUnLCAnPG91dGZpbGUubWFlPic=

>  <r_epik_Ionization_Penalty>  (190) 
0.00825123

>  <r_epik_Ionization_Penalty_Charging>  (190) 
0.00824865

>  <r_epik_Ionization_Penalty_Neutral>  (190) 
2.58269e-06

>  <r_epik_State_Penalty>  (190) 
0.00620605

>  <r_epik_Charging_Adjusted_Penalty>  (190) 
0.0144547

>  <i_epik_Tot_Q>  (190) 
-1

>  <i_epik_Tot_abs_Q>  (190) 
1

>  <s_lp_Force_Field>  (190) 
OPLS3e

>  <r_lp_Energy>  (190) 
114.398

>  <b_lp_Chiralities_Consistent>  (190) 
1

>  <s_lp_Variant>  (190) 
55:0-1

>  <s_i_glide_gridfile>  (190) 
pfpi4k_grid

>  <i_i_glide_lignum>  (190) 
35

>  <i_i_glide_rotatable_bonds>  (190) 
2

>  <r_i_docking_score>  (190) 
-2.71478

>  <r_i_glide_ligand_efficiency>  (190) 
-0.0822661

>  <r_i_glide_ligand_efficiency_sa>  (190) 
-0.263871

>  <r_i_glide_ligand_efficiency_ln>  (190) 
-0.603753

>  <r_i_glide_gscore>  (190) 
-2.71478

>  <r_i_glide_lipo>  (190) 
-0.648966

>  <r_i_glide_hbond>  (190) 
-0.140856

>  <r_i_glide_metal>  (190) 
-0

>  <r_i_glide_rewards>  (190) 
-0.302493

>  <r_i_glide_evdw>  (190) 
-29.1174

>  <r_i_glide_ecoul>  (190) 
-1.11064

>  <r_i_glide_erotb>  (190) 
0

>  <r_i_glide_esite>  (190) 
0

>  <r_i_glide_emodel>  (190) 
-33.4591

>  <r_i_glide_energy>  (190) 
-30.2281

>  <r_i_glide_einternal>  (190) 
0.728035

>  <r_i_glide_intrahb_reward>  (190) 
-0

>  <i_i_glide_confnum>  (190) 
1

>  <i_i_glide_posenum>  (190) 
10

>  <r_i_glide_eff_state_penalty>  (190) 
0

>  <ligand_id>  (190) 
55

>  <original_smiles>  (190) 
CC1CCC2(C)CCC3(C(=O)O)CCC4(C)C(=CCC5C(C)(C)C(O)CCC54C)C3C2C1C

>  <smiles>  (190) 
[H]OC1([H])C([H])([H])C([H])([H])C2(C([H])([H])[H])C([H])(C([H])([H])C([H])=C3C4([H])C5([H])C([H])(C([H])([H])[H])C([H])(C([H])([H])[H])C([H])([H])C([H])([H])C5(C([H])([H])[H])C([H])([H])C([H])([H])C4(C(=O)[O-])C([H])([H])C([H])([H])C32C([H])([H])[H])C1(C([H])([H])[H])C([H])([H])[H]

$$$$
55:0:1
     RDKit          3D

 80 84  0  0  1  0  0  0  0  0999 V2000
   -0.6875   -8.5687    2.7632 C   0  0  0  0  0  0  0  0  0  0  0  0
    0.4574   -8.4788    3.8002 C   0  0  2  0  0  0  0  0  0  0  0  0
   -0.1792   -8.4784    5.2072 C   0  0  0  0  0  0  0  0  0  0  0  0
    0.7525   -8.0310    6.3398 C   0  0  0  0  0  0  0  0  0  0  0  0
    1.3838   -6.6466    6.0429 C   0  0  1  0  0  0  0  0  0  0  0  0
    0.1950   -5.6536    5.8897 C   0  0  0  0  0  0  0  0  0  0  0  0
    2.1898   -6.1918    7.2969 C   0  0  0  0  0  0  0  0  0  0  0  0
    3.7054   -6.1115    7.1077 C   0  0  0  0  0  0  0  0  0  0  0  0
    4.1254   -5.2778    5.8754 C   0  0  2  0  0  0  0  0  0  0  0  0
    5.6894   -5.2182    5.9256 C   0  0  0  0  0  0  0  0  0  0  0  0
    6.2354   -4.1575    6.3050 O   0  0  0  0  0  0  0  0  0  0  0  0
    6.3269   -6.2516    5.6265 O   0  0  0  0  0  0  0  0  0  0  0  0
    3.5525   -3.8295    5.8891 C   0  0  0  0  0  0  0  0  0  0  0  0
    3.8330   -3.0217    4.5909 C   0  0  0  0  0  0  0  0  0  0  0  0
    3.3583   -3.7046    3.2609 C   0  0  2  0  0  0  0  0  0  0  0  0
    1.8174   -3.7960    3.2728 C   0  0  0  0  0  0  0  0  0  0  0  0
    3.9296   -5.1316    3.3335 C   0  0  0  0  0  0  0  0  0  0  0  0
    4.9084   -5.5324    2.5027 C   0  0  0  0  0  0  0  0  0  0  0  0
    5.5660   -4.6966    1.4409 C   0  0  0  0  0  0  0  0  0  0  0  0
    5.3148   -3.1672    1.5535 C   0  0  1  0  0  0  0  0  0  0  0  0
    5.8530   -2.4241    0.2546 C   0  0  0  0  0  0  0  0  0  0  0  0
    6.0170   -0.9021    0.4996 C   0  0  0  0  0  0  0  0  0  0  0  0
    7.2889   -2.9061   -0.1080 C   0  0  0  0  0  0  0  0  0  0  0  0
    4.8995   -2.6245   -0.9687 C   0  0  1  0  0  0  0  0  0  0  0  0
    5.0771   -3.8659   -1.6187 O   0  0  0  0  0  0  0  0  0  0  0  0
    3.4115   -2.4848   -0.6177 C   0  0  0  0  0  0  0  0  0  0  0  0
    2.9900   -3.2225    0.6748 C   0  0  0  0  0  0  0  0  0  0  0  0
    3.8190   -2.8715    1.9505 C   0  0  1  0  0  0  0  0  0  0  0  0
    3.5785   -1.3630    2.2765 C   0  0  0  0  0  0  0  0  0  0  0  0
    3.6146   -5.9967    4.5877 C   0  0  2  0  0  0  0  0  0  0  0  0
    2.2809   -6.8615    4.7508 C   0  0  2  0  0  0  0  0  0  0  0  0
    1.4406   -7.2945    3.4964 C   0  0  1  0  0  0  0  0  0  0  0  0
    2.3314   -7.6961    2.2979 C   0  0  0  0  0  0  0  0  0  0  0  0
   -1.3111   -7.6763    2.7895 H   0  0  0  0  0  0  0  0  0  0  0  0
   -1.3354   -9.4203    2.9739 H   0  0  0  0  0  0  0  0  0  0  0  0
   -0.3300   -8.6848    1.7412 H   0  0  0  0  0  0  0  0  0  0  0  0
    1.0348   -9.4014    3.7309 H   0  0  0  0  0  0  0  0  0  0  0  0
   -1.0808   -7.8693    5.2062 H   0  0  0  0  0  0  0  0  0  0  0  0
   -0.5253   -9.4834    5.4344 H   0  0  0  0  0  0  0  0  0  0  0  0
    0.1901   -8.0157    7.2754 H   0  0  0  0  0  0  0  0  0  0  0  0
    1.5219   -8.7884    6.4972 H   0  0  0  0  0  0  0  0  0  0  0  0
    0.4810   -4.6126    6.0121 H   0  0  0  0  0  0  0  0  0  0  0  0
   -0.5567   -5.8395    6.6608 H   0  0  0  0  0  0  0  0  0  0  0  0
   -0.3103   -5.7426    4.9304 H   0  0  0  0  0  0  0  0  0  0  0  0
    1.8471   -5.2162    7.6443 H   0  0  0  0  0  0  0  0  0  0  0  0
    1.9842   -6.8404    8.1492 H   0  0  0  0  0  0  0  0  0  0  0  0
    4.1572   -5.7063    8.0136 H   0  0  0  0  0  0  0  0  0  0  0  0
    4.1034   -7.1237    7.0185 H   0  0  0  0  0  0  0  0  0  0  0  0
    2.4812   -3.8410    6.0430 H   0  0  0  0  0  0  0  0  0  0  0  0
    3.9367   -3.2784    6.7494 H   0  0  0  0  0  0  0  0  0  0  0  0
    3.3602   -2.0500    4.7316 H   0  0  0  0  0  0  0  0  0  0  0  0
    4.9029   -2.8150    4.5266 H   0  0  0  0  0  0  0  0  0  0  0  0
    1.3263   -2.8253    3.2337 H   0  0  0  0  0  0  0  0  0  0  0  0
    1.4617   -4.2831    4.1646 H   0  0  0  0  0  0  0  0  0  0  0  0
    1.4472   -4.3964    2.4453 H   0  0  0  0  0  0  0  0  0  0  0  0
    5.3487   -6.5133    2.6247 H   0  0  0  0  0  0  0  0  0  0  0  0
    6.6333   -4.8944    1.5369 H   0  0  0  0  0  0  0  0  0  0  0  0
    5.2463   -5.1118    0.4902 H   0  0  0  0  0  0  0  0  0  0  0  0
    5.9330   -2.8336    2.3888 H   0  0  0  0  0  0  0  0  0  0  0  0
    6.8009   -0.4777   -0.1189 H   0  0  0  0  0  0  0  0  0  0  0  0
    6.2897   -0.6796    1.5323 H   0  0  0  0  0  0  0  0  0  0  0  0
    5.1289   -0.3302    0.2343 H   0  0  0  0  0  0  0  0  0  0  0  0
    7.7008   -2.3588   -0.9565 H   0  0  0  0  0  0  0  0  0  0  0  0
    7.3227   -3.9567   -0.3933 H   0  0  0  0  0  0  0  0  0  0  0  0
    7.9724   -2.7758    0.7319 H   0  0  0  0  0  0  0  0  0  0  0  0
    5.1354   -1.8760   -1.7287 H   0  0  0  0  0  0  0  0  0  0  0  0
    4.3184   -4.0445   -2.1569 H   0  0  0  0  0  0  0  0  0  0  0  0
    3.1635   -1.4283   -0.5405 H   0  0  0  0  0  0  0  0  0  0  0  0
    2.7979   -2.8342   -1.4497 H   0  0  0  0  0  0  0  0  0  0  0  0
    1.9430   -2.9733    0.8248 H   0  0  0  0  0  0  0  0  0  0  0  0
    3.0295   -4.2973    0.4922 H   0  0  0  0  0  0  0  0  0  0  0  0
    3.4819   -0.7247    1.4090 H   0  0  0  0  0  0  0  0  0  0  0  0
    4.3785   -0.9519    2.8932 H   0  0  0  0  0  0  0  0  0  0  0  0
    2.6449   -1.1938    2.8066 H   0  0  0  0  0  0  0  0  0  0  0  0
    4.3204   -6.8155    4.4515 H   0  0  0  0  0  0  0  0  0  0  0  0
    2.7458   -7.8197    4.9905 H   0  0  0  0  0  0  0  0  0  0  0  0
    0.8369   -6.4491    3.1787 H   0  0  0  0  0  0  0  0  0  0  0  0
    3.1782   -8.3012    2.6229 H   0  0  0  0  0  0  0  0  0  0  0  0
    2.7087   -6.8266    1.7682 H   0  0  0  0  0  0  0  0  0  0  0  0
    1.7958   -8.2814    1.5521 H   0  0  0  0  0  0  0  0  0  0  0  0
  1  2  1  0
  1 34  1  0
  1 35  1  0
  1 36  1  0
  2 32  1  0
  2  3  1  0
  2 37  1  1
  3  4  1  0
  3 38  1  0
  3 39  1  0
  4  5  1  0
  4 40  1  0
  4 41  1  0
  5 31  1  0
  5  6  1  6
  5  7  1  0
  6 42  1  0
  6 43  1  0
  6 44  1  0
  7  8  1  0
  7 45  1  0
  7 46  1  0
  8  9  1  0
  8 47  1  0
  8 48  1  0
  9 30  1  0
  9 10  1  6
  9 13  1  0
 10 11  2  0
 10 12  1  0
 13 14  1  0
 13 49  1  0
 13 50  1  0
 14 15  1  0
 14 51  1  0
 14 52  1  0
 15 28  1  0
 15 16  1  1
 15 17  1  0
 16 53  1  0
 16 54  1  0
 16 55  1  0
 17 18  2  0
 17 30  1  0
 18 19  1  0
 18 56  1  0
 19 20  1  0
 19 57  1  0
 19 58  1  0
 20 28  1  0
 20 21  1  0
 20 59  1  1
 21 22  1  0
 21 23  1  0
 21 24  1  0
 22 60  1  0
 22 61  1  0
 22 62  1  0
 23 63  1  0
 23 64  1  0
 23 65  1  0
 24 25  1  0
 24 26  1  0
 24 66  1  6
 25 67  1  0
 26 27  1  0
 26 68  1  0
 26 69  1  0
 27 28  1  0
 27 70  1  0
 27 71  1  0
 28 29  1  1
 29 72  1  0
 29 73  1  0
 29 74  1  0
 30 31  1  0
 30 75  1  6
 31 32  1  0
 31 76  1  1
 32 33  1  0
 32 77  1  6
 33 78  1  0
 33 79  1  0
 33 80  1  0
M  CHG  1  12  -1
M  END
>  <i_m_ct_stereo_status>  (191) 
1

>  <s_m_source_file>  (191) 
/var/tmp/pbs.5076255.sched01/tmpguyree9i/45_f3p7e6s.sdf

>  <i_m_source_file_index>  (191) 
35

>  <i_lp_mmshare_version>  (191) 
48012

>  <i_f3d_flags>  (191) 
0

>  <s_epik_input>  (191) 
W0NIMl0xW0NIMl1bQ0BASF0oW0NIM10pW0NASF0oW0NIM10pW0NASF0oW0NAQF0xMltDSDNdKVtDQEBIXTNbQ0BAXShbQ0gyXVtDSDJdMikoQyg9TylbT0hdKVtDSDJdW0NIMl1bQ0BdNChbQ0gzXSlDMz1bQ0hdW0NIMl1bQ0BASF01W0NAQF00KFtDSDNdKVtDSDJdW0NIMl1bQ0BIXShbT0hdKUM1KFtDSDNdKVtDSDNd

>  <s_epik_cmdline>  (191) 
J2VwaWtfcHl0aG9uJywgJy1waHQnLCAnMi4wJywgJy1waCcsICc3LjAnLCAnLXRuJywgJzgnLCAnLW1hJywgJzIwMCcsICctaW1hZScsICc8aW5maWxlLm1hZT4nLCAnLW9tYWUnLCAnPG91dGZpbGUubWFlPic=

>  <r_epik_Ionization_Penalty>  (191) 
0.00825123

>  <r_epik_Ionization_Penalty_Charging>  (191) 
0.00824865

>  <r_epik_Ionization_Penalty_Neutral>  (191) 
2.58269e-06

>  <r_epik_State_Penalty>  (191) 
0.00620605

>  <r_epik_Charging_Adjusted_Penalty>  (191) 
0.0144547

>  <i_epik_Tot_Q>  (191) 
-1

>  <i_epik_Tot_abs_Q>  (191) 
1

>  <s_lp_Force_Field>  (191) 
OPLS3e

>  <r_lp_Energy>  (191) 
114.398

>  <b_lp_Chiralities_Consistent>  (191) 
1

>  <s_lp_Variant>  (191) 
55:0-1

>  <s_i_glide_gridfile>  (191) 
pfpi4k_grid

>  <i_i_glide_lignum>  (191) 
35

>  <i_i_glide_rotatable_bonds>  (191) 
2

>  <r_i_docking_score>  (191) 
-2.21269

>  <r_i_glide_ligand_efficiency>  (191) 
-0.0670511

>  <r_i_glide_ligand_efficiency_sa>  (191) 
-0.215069

>  <r_i_glide_ligand_efficiency_ln>  (191) 
-0.49209

>  <r_i_glide_gscore>  (191) 
-2.21269

>  <r_i_glide_lipo>  (191) 
-0.352481

>  <r_i_glide_hbond>  (191) 
0

>  <r_i_glide_metal>  (191) 
-0

>  <r_i_glide_rewards>  (191) 
-0.302546

>  <r_i_glide_evdw>  (191) 
-28.7449

>  <r_i_glide_ecoul>  (191) 
-0.802773

>  <r_i_glide_erotb>  (191) 
0

>  <r_i_glide_esite>  (191) 
0

>  <r_i_glide_emodel>  (191) 
-32.9487

>  <r_i_glide_energy>  (191) 
-29.5477

>  <r_i_glide_einternal>  (191) 
0.900131

>  <r_i_glide_intrahb_reward>  (191) 
-0

>  <i_i_glide_confnum>  (191) 
2

>  <i_i_glide_posenum>  (191) 
33

>  <r_i_glide_eff_state_penalty>  (191) 
0

>  <ligand_id>  (191) 
55

>  <original_smiles>  (191) 
CC1CCC2(C)CCC3(C(=O)O)CCC4(C)C(=CCC5C(C)(C)C(O)CCC54C)C3C2C1C

>  <smiles>  (191) 
[H]OC1([H])C([H])([H])C([H])([H])C2(C([H])([H])[H])C([H])(C([H])([H])C([H])=C3C4([H])C5([H])C([H])(C([H])([H])[H])C([H])(C([H])([H])[H])C([H])([H])C([H])([H])C5(C([H])([H])[H])C([H])([H])C([H])([H])C4(C(=O)[O-])C([H])([H])C([H])([H])C32C([H])([H])[H])C1(C([H])([H])[H])C([H])([H])[H]

$$$$
55:0:2
     RDKit          3D

 80 84  0  0  1  0  0  0  0  0999 V2000
   -0.9957   -8.1695    2.3189 C   0  0  0  0  0  0  0  0  0  0  0  0
    0.1718   -8.2693    3.3264 C   0  0  2  0  0  0  0  0  0  0  0  0
   -0.4354   -8.3688    4.7402 C   0  0  0  0  0  0  0  0  0  0  0  0
    0.5471   -8.1144    5.8886 C   0  0  0  0  0  0  0  0  0  0  0  0
    1.2753   -6.7570    5.7210 C   0  0  1  0  0  0  0  0  0  0  0  0
    0.1614   -5.6692    5.7037 C   0  0  0  0  0  0  0  0  0  0  0  0
    2.1361   -6.4980    6.9938 C   0  0  0  0  0  0  0  0  0  0  0  0
    3.6494   -6.5084    6.7727 C   0  0  0  0  0  0  0  0  0  0  0  0
    4.1070   -5.5833    5.6227 C   0  0  2  0  0  0  0  0  0  0  0  0
    5.6710   -5.6447    5.6352 C   0  0  0  0  0  0  0  0  0  0  0  0
    6.3044   -4.6673    6.0973 O   0  0  0  0  0  0  0  0  0  0  0  0
    6.2211   -6.6877    5.2210 O   0  0  0  0  0  0  0  0  0  0  0  0
    3.6457   -4.1064    5.8009 C   0  0  0  0  0  0  0  0  0  0  0  0
    3.9610   -3.1897    4.5860 C   0  0  0  0  0  0  0  0  0  0  0  0
    3.4113   -3.6928    3.2054 C   0  0  2  0  0  0  0  0  0  0  0  0
    1.8680   -3.6712    3.2510 C   0  0  0  0  0  0  0  0  0  0  0  0
    3.8737   -5.1570    3.1161 C   0  0  0  0  0  0  0  0  0  0  0  0
    4.8049   -5.5397    2.2212 C   0  0  0  0  0  0  0  0  0  0  0  0
    5.5024   -4.6477    1.2345 C   0  0  0  0  0  0  0  0  0  0  0  0
    5.3678   -3.1255    1.5101 C   0  0  1  0  0  0  0  0  0  0  0  0
    5.9374   -2.2962    0.2807 C   0  0  0  0  0  0  0  0  0  0  0  0
    6.2131   -0.8205    0.6694 C   0  0  0  0  0  0  0  0  0  0  0  0
    7.3266   -2.8409   -0.1659 C   0  0  0  0  0  0  0  0  0  0  0  0
    4.9532   -2.2955   -0.9327 C   0  0  1  0  0  0  0  0  0  0  0  0
    5.0300   -3.4545   -1.7371 O   0  0  0  0  0  0  0  0  0  0  0  0
    3.4860   -2.0863   -0.5301 C   0  0  0  0  0  0  0  0  0  0  0  0
    3.0258   -2.9174    0.6929 C   0  0  0  0  0  0  0  0  0  0  0  0
    3.9059   -2.7634    1.9764 C   0  0  1  0  0  0  0  0  0  0  0  0
    3.7887   -1.2836    2.4626 C   0  0  0  0  0  0  0  0  0  0  0  0
    3.5199   -6.1238    4.2814 C   0  0  2  0  0  0  0  0  0  0  0  0
    2.1279   -6.9006    4.3903 C   0  0  2  0  0  0  0  0  0  0  0  0
    1.2339   -7.1346    3.1207 C   0  0  1  0  0  0  0  0  0  0  0  0
    2.0675   -7.4740    1.8640 C   0  0  0  0  0  0  0  0  0  0  0  0
   -1.5502   -7.2435    2.4586 H   0  0  0  0  0  0  0  0  0  0  0  0
   -1.7009   -8.9890    2.4595 H   0  0  0  0  0  0  0  0  0  0  0  0
   -0.6689   -8.2091    1.2804 H   0  0  0  0  0  0  0  0  0  0  0  0
    0.6762   -9.2187    3.1484 H   0  0  0  0  0  0  0  0  0  0  0  0
   -1.2955   -7.7061    4.8320 H   0  0  0  0  0  0  0  0  0  0  0  0
   -0.8339   -9.3717    4.8607 H   0  0  0  0  0  0  0  0  0  0  0  0
    0.0039   -8.1586    6.8354 H   0  0  0  0  0  0  0  0  0  0  0  0
    1.2587   -8.9389    5.9462 H   0  0  0  0  0  0  0  0  0  0  0  0
    0.5281   -4.6710    5.9247 H   0  0  0  0  0  0  0  0  0  0  0  0
   -0.5862   -5.8798    6.4723 H   0  0  0  0  0  0  0  0  0  0  0  0
   -0.3672   -5.6213    4.7545 H   0  0  0  0  0  0  0  0  0  0  0  0
    1.8742   -5.5422    7.4496 H   0  0  0  0  0  0  0  0  0  0  0  0
    1.8988   -7.2169    7.7784 H   0  0  0  0  0  0  0  0  0  0  0  0
    4.1479   -6.2351    7.7028 H   0  0  0  0  0  0  0  0  0  0  0  0
    3.9677   -7.5322    6.5684 H   0  0  0  0  0  0  0  0  0  0  0  0
    2.5793   -4.0559    5.9820 H   0  0  0  0  0  0  0  0  0  0  0  0
    4.0877   -3.6784    6.7028 H   0  0  0  0  0  0  0  0  0  0  0  0
    3.5656   -2.2058    4.8390 H   0  0  0  0  0  0  0  0  0  0  0  0
    5.0424   -3.0551    4.5139 H   0  0  0  0  0  0  0  0  0  0  0  0
    1.4518   -2.6683    3.3247 H   0  0  0  0  0  0  0  0  0  0  0  0
    1.4940   -4.2218    4.0970 H   0  0  0  0  0  0  0  0  0  0  0  0
    1.4383   -4.1532    2.3764 H   0  0  0  0  0  0  0  0  0  0  0  0
    5.1715   -6.5577    2.2313 H   0  0  0  0  0  0  0  0  0  0  0  0
    6.5547   -4.9312    1.2842 H   0  0  0  0  0  0  0  0  0  0  0  0
    5.1361   -4.9392    0.2555 H   0  0  0  0  0  0  0  0  0  0  0  0
    6.0254   -2.9249    2.3597 H   0  0  0  0  0  0  0  0  0  0  0  0
    7.0158   -0.3873    0.0830 H   0  0  0  0  0  0  0  0  0  0  0  0
    6.5248   -0.7224    1.7095 H   0  0  0  0  0  0  0  0  0  0  0  0
    5.3649   -0.1583    0.4876 H   0  0  0  0  0  0  0  0  0  0  0  0
    7.7623   -2.2430   -0.9654 H   0  0  0  0  0  0  0  0  0  0  0  0
    7.2768   -3.8555   -0.5590 H   0  0  0  0  0  0  0  0  0  0  0  0
    8.0336   -2.8443    0.6646 H   0  0  0  0  0  0  0  0  0  0  0  0
    5.2355   -1.4846   -1.6057 H   0  0  0  0  0  0  0  0  0  0  0  0
    4.5839   -4.1602   -1.2874 H   0  0  0  0  0  0  0  0  0  0  0  0
    3.3203   -1.0291   -0.3367 H   0  0  0  0  0  0  0  0  0  0  0  0
    2.8347   -2.2999   -1.3795 H   0  0  0  0  0  0  0  0  0  0  0  0
    2.0018   -2.6102    0.8951 H   0  0  0  0  0  0  0  0  0  0  0  0
    2.9783   -3.9679    0.4038 H   0  0  0  0  0  0  0  0  0  0  0  0
    3.7241   -0.5521    1.6687 H   0  0  0  0  0  0  0  0  0  0  0  0
    4.6297   -0.9999    3.0967 H   0  0  0  0  0  0  0  0  0  0  0  0
    2.8811   -1.1023    3.0337 H   0  0  0  0  0  0  0  0  0  0  0  0
    4.1586   -6.9733    4.0424 H   0  0  0  0  0  0  0  0  0  0  0  0
    2.5235   -7.9103    4.5162 H   0  0  0  0  0  0  0  0  0  0  0  0
    0.6895   -6.2196    2.9095 H   0  0  0  0  0  0  0  0  0  0  0  0
    2.8714   -8.1707    2.1024 H   0  0  0  0  0  0  0  0  0  0  0  0
    2.4994   -6.5842    1.4154 H   0  0  0  0  0  0  0  0  0  0  0  0
    1.4728   -7.9383    1.0795 H   0  0  0  0  0  0  0  0  0  0  0  0
  1  2  1  0
  1 34  1  0
  1 35  1  0
  1 36  1  0
  2 32  1  0
  2  3  1  0
  2 37  1  6
  3  4  1  0
  3 38  1  0
  3 39  1  0
  4  5  1  0
  4 40  1  0
  4 41  1  0
  5 31  1  0
  5  6  1  6
  5  7  1  0
  6 42  1  0
  6 43  1  0
  6 44  1  0
  7  8  1  0
  7 45  1  0
  7 46  1  0
  8  9  1  0
  8 47  1  0
  8 48  1  0
  9 30  1  0
  9 10  1  6
  9 13  1  0
 10 11  2  0
 10 12  1  0
 13 14  1  0
 13 49  1  0
 13 50  1  0
 14 15  1  0
 14 51  1  0
 14 52  1  0
 15 28  1  0
 15 16  1  1
 15 17  1  0
 16 53  1  0
 16 54  1  0
 16 55  1  0
 17 18  2  0
 17 30  1  0
 18 19  1  0
 18 56  1  0
 19 20  1  0
 19 57  1  0
 19 58  1  0
 20 28  1  0
 20 21  1  0
 20 59  1  1
 21 22  1  0
 21 23  1  0
 21 24  1  0
 22 60  1  0
 22 61  1  0
 22 62  1  0
 23 63  1  0
 23 64  1  0
 23 65  1  0
 24 25  1  0
 24 26  1  0
 24 66  1  6
 25 67  1  0
 26 27  1  0
 26 68  1  0
 26 69  1  0
 27 28  1  0
 27 70  1  0
 27 71  1  0
 28 29  1  1
 29 72  1  0
 29 73  1  0
 29 74  1  0
 30 31  1  0
 30 75  1  6
 31 32  1  0
 31 76  1  1
 32 33  1  0
 32 77  1  6
 33 78  1  0
 33 79  1  0
 33 80  1  0
M  CHG  1  12  -1
M  END
>  <i_m_ct_stereo_status>  (192) 
1

>  <s_m_source_file>  (192) 
/var/tmp/pbs.5076255.sched01/tmpguyree9i/45_f3p7e6s.sdf

>  <i_m_source_file_index>  (192) 
35

>  <i_lp_mmshare_version>  (192) 
48012

>  <i_f3d_flags>  (192) 
0

>  <s_epik_input>  (192) 
W0NIMl0xW0NIMl1bQ0BASF0oW0NIM10pW0NASF0oW0NIM10pW0NASF0oW0NAQF0xMltDSDNdKVtDQEBIXTNbQ0BAXShbQ0gyXVtDSDJdMikoQyg9TylbT0hdKVtDSDJdW0NIMl1bQ0BdNChbQ0gzXSlDMz1bQ0hdW0NIMl1bQ0BASF01W0NAQF00KFtDSDNdKVtDSDJdW0NIMl1bQ0BIXShbT0hdKUM1KFtDSDNdKVtDSDNd

>  <s_epik_cmdline>  (192) 
J2VwaWtfcHl0aG9uJywgJy1waHQnLCAnMi4wJywgJy1waCcsICc3LjAnLCAnLXRuJywgJzgnLCAnLW1hJywgJzIwMCcsICctaW1hZScsICc8aW5maWxlLm1hZT4nLCAnLW9tYWUnLCAnPG91dGZpbGUubWFlPic=

>  <r_epik_Ionization_Penalty>  (192) 
0.00825123

>  <r_epik_Ionization_Penalty_Charging>  (192) 
0.00824865

>  <r_epik_Ionization_Penalty_Neutral>  (192) 
2.58269e-06

>  <r_epik_State_Penalty>  (192) 
0.00620605

>  <r_epik_Charging_Adjusted_Penalty>  (192) 
0.0144547

>  <i_epik_Tot_Q>  (192) 
-1

>  <i_epik_Tot_abs_Q>  (192) 
1

>  <s_lp_Force_Field>  (192) 
OPLS3e

>  <r_lp_Energy>  (192) 
114.398

>  <b_lp_Chiralities_Consistent>  (192) 
1

>  <s_lp_Variant>  (192) 
55:0-1

>  <s_i_glide_gridfile>  (192) 
pfpi4k_grid

>  <i_i_glide_lignum>  (192) 
35

>  <i_i_glide_rotatable_bonds>  (192) 
2

>  <r_i_docking_score>  (192) 
-2.16133

>  <r_i_glide_ligand_efficiency>  (192) 
-0.0654947

>  <r_i_glide_ligand_efficiency_sa>  (192) 
-0.210077

>  <r_i_glide_ligand_efficiency_ln>  (192) 
-0.480668

>  <r_i_glide_gscore>  (192) 
-2.16133

>  <r_i_glide_lipo>  (192) 
-0.32215

>  <r_i_glide_hbond>  (192) 
0

>  <r_i_glide_metal>  (192) 
-0

>  <r_i_glide_rewards>  (192) 
-0.302097

>  <r_i_glide_evdw>  (192) 
-29.7863

>  <r_i_glide_ecoul>  (192) 
-0.318434

>  <r_i_glide_erotb>  (192) 
0

>  <r_i_glide_esite>  (192) 
0

>  <r_i_glide_emodel>  (192) 
-33.7036

>  <r_i_glide_energy>  (192) 
-30.1047

>  <r_i_glide_einternal>  (192) 
0.326267

>  <r_i_glide_intrahb_reward>  (192) 
-0

>  <i_i_glide_confnum>  (192) 
2

>  <i_i_glide_posenum>  (192) 
12

>  <r_i_glide_eff_state_penalty>  (192) 
0

>  <ligand_id>  (192) 
55

>  <original_smiles>  (192) 
CC1CCC2(C)CCC3(C(=O)O)CCC4(C)C(=CCC5C(C)(C)C(O)CCC54C)C3C2C1C

>  <smiles>  (192) 
[H]OC1([H])C([H])([H])C([H])([H])C2(C([H])([H])[H])C([H])(C([H])([H])C([H])=C3C4([H])C5([H])C([H])(C([H])([H])[H])C([H])(C([H])([H])[H])C([H])([H])C([H])([H])C5(C([H])([H])[H])C([H])([H])C([H])([H])C4(C(=O)[O-])C([H])([H])C([H])([H])C32C([H])([H])[H])C1(C([H])([H])[H])C([H])([H])[H]

$$$$
55:1:0
     RDKit          3D

 81 85  0  0  1  0  0  0  0  0999 V2000
   -1.3842   -7.6947    3.2195 C   0  0  0  0  0  0  0  0  0  0  0  0
   -0.0429   -8.4374    3.0119 C   0  0  2  0  0  0  0  0  0  0  0  0
    0.1755   -9.3477    4.2327 C   0  0  0  0  0  0  0  0  0  0  0  0
    1.5961   -9.8782    4.4337 C   0  0  0  0  0  0  0  0  0  0  0  0
    2.6186   -8.7177    4.4396 C   0  0  1  0  0  0  0  0  0  0  0  0
    2.2102   -7.7935    5.6206 C   0  0  0  0  0  0  0  0  0  0  0  0
    4.0136   -9.2899    4.8223 C   0  0  0  0  0  0  0  0  0  0  0  0
    5.0577   -9.2394    3.7125 C   0  0  0  0  0  0  0  0  0  0  0  0
    5.2145   -7.8515    3.0445 C   0  0  2  0  0  0  0  0  0  0  0  0
    6.3717   -7.9819    2.0062 C   0  0  0  0  0  0  0  0  0  0  0  0
    7.3525   -7.2515    1.9713 O   0  0  0  0  0  0  0  0  0  0  0  0
    6.2002   -9.0445    1.1655 O   0  0  0  0  0  0  0  0  0  0  0  0
    5.5660   -6.7353    4.0764 C   0  0  0  0  0  0  0  0  0  0  0  0
    5.5502   -5.2774    3.5262 C   0  0  0  0  0  0  0  0  0  0  0  0
    4.2262   -4.8516    2.8039 C   0  0  2  0  0  0  0  0  0  0  0  0
    3.1021   -4.7981    3.8582 C   0  0  0  0  0  0  0  0  0  0  0  0
    3.9315   -5.9988    1.8210 C   0  0  0  0  0  0  0  0  0  0  0  0
    4.0256   -5.8069    0.4955 C   0  0  0  0  0  0  0  0  0  0  0  0
    4.4069   -4.5212   -0.1837 C   0  0  0  0  0  0  0  0  0  0  0  0
    5.0735   -3.4565    0.7233 C   0  0  1  0  0  0  0  0  0  0  0  0
    5.2212   -2.0820   -0.0575 C   0  0  0  0  0  0  0  0  0  0  0  0
    6.2316   -1.1330    0.6241 C   0  0  0  0  0  0  0  0  0  0  0  0
    5.8199   -2.3051   -1.4740 C   0  0  0  0  0  0  0  0  0  0  0  0
    3.8600   -1.3318   -0.1680 C   0  0  1  0  0  0  0  0  0  0  0  0
    3.0858   -1.8429   -1.2248 O   0  0  0  0  0  0  0  0  0  0  0  0
    3.0476   -1.3471    1.1343 C   0  0  0  0  0  0  0  0  0  0  0  0
    2.9677   -2.7210    1.8362 C   0  0  0  0  0  0  0  0  0  0  0  0
    4.3477   -3.3927    2.1164 C   0  0  1  0  0  0  0  0  0  0  0  0
    5.1009   -2.4833    3.1268 C   0  0  0  0  0  0  0  0  0  0  0  0
    3.8699   -7.4497    2.3635 C   0  0  2  0  0  0  0  0  0  0  0  0
    2.5442   -8.0770    2.9921 C   0  0  2  0  0  0  0  0  0  0  0  0
    1.1271   -7.4535    2.6941 C   0  0  1  0  0  0  0  0  0  0  0  0
    0.9609   -7.0088    1.2310 C   0  0  0  0  0  0  0  0  0  0  0  0
   -1.3322   -7.0203    4.0788 H   0  0  0  0  0  0  0  0  0  0  0  0
   -2.1944   -8.3978    3.4157 H   0  0  0  0  0  0  0  0  0  0  0  0
   -1.6855   -7.0981    2.3604 H   0  0  0  0  0  0  0  0  0  0  0  0
   -0.1686   -9.1065    2.1522 H   0  0  0  0  0  0  0  0  0  0  0  0
   -0.1889   -8.8729    5.1484 H   0  0  0  0  0  0  0  0  0  0  0  0
   -0.4607  -10.2068    4.0747 H   0  0  0  0  0  0  0  0  0  0  0  0
    1.6327  -10.4601    5.3599 H   0  0  0  0  0  0  0  0  0  0  0  0
    1.8207  -10.5995    3.6473 H   0  0  0  0  0  0  0  0  0  0  0  0
    3.0077   -7.1366    5.9594 H   0  0  0  0  0  0  0  0  0  0  0  0
    1.9401   -8.3932    6.4930 H   0  0  0  0  0  0  0  0  0  0  0  0
    1.3486   -7.1677    5.4007 H   0  0  0  0  0  0  0  0  0  0  0  0
    4.4217   -8.7953    5.7064 H   0  0  0  0  0  0  0  0  0  0  0  0
    3.9283  -10.3270    5.1386 H   0  0  0  0  0  0  0  0  0  0  0  0
    6.0194   -9.5709    4.1056 H   0  0  0  0  0  0  0  0  0  0  0  0
    4.7684   -9.9972    2.9846 H   0  0  0  0  0  0  0  0  0  0  0  0
    5.4015   -9.5385    1.3373 H   0  0  0  0  0  0  0  0  0  0  0  0
    4.8924   -6.7662    4.9299 H   0  0  0  0  0  0  0  0  0  0  0  0
    6.5458   -6.9350    4.5081 H   0  0  0  0  0  0  0  0  0  0  0  0
    5.7857   -4.6232    4.3713 H   0  0  0  0  0  0  0  0  0  0  0  0
    6.3811   -5.1334    2.8357 H   0  0  0  0  0  0  0  0  0  0  0  0
    3.2505   -4.0283    4.6163 H   0  0  0  0  0  0  0  0  0  0  0  0
    3.0268   -5.7305    4.3905 H   0  0  0  0  0  0  0  0  0  0  0  0
    2.1272   -4.6390    3.4026 H   0  0  0  0  0  0  0  0  0  0  0  0
    3.8723   -6.6261   -0.1936 H   0  0  0  0  0  0  0  0  0  0  0  0
    5.0896   -4.8132   -0.9817 H   0  0  0  0  0  0  0  0  0  0  0  0
    3.4968   -4.1706   -0.6646 H   0  0  0  0  0  0  0  0  0  0  0  0
    6.0837   -3.8277    0.9060 H   0  0  0  0  0  0  0  0  0  0  0  0
    6.6716   -0.4248   -0.0762 H   0  0  0  0  0  0  0  0  0  0  0  0
    7.0563   -1.6681    1.1021 H   0  0  0  0  0  0  0  0  0  0  0  0
    5.7748   -0.4776    1.3602 H   0  0  0  0  0  0  0  0  0  0  0  0
    5.9685   -1.3574   -1.9926 H   0  0  0  0  0  0  0  0  0  0  0  0
    5.1727   -2.8866   -2.1234 H   0  0  0  0  0  0  0  0  0  0  0  0
    6.7792   -2.8261   -1.4305 H   0  0  0  0  0  0  0  0  0  0  0  0
    4.0644   -0.2889   -0.4188 H   0  0  0  0  0  0  0  0  0  0  0  0
    2.1746   -1.5004   -1.1460 H   0  0  0  0  0  0  0  0  0  0  0  0
    3.4459   -0.6023    1.8102 H   0  0  0  0  0  0  0  0  0  0  0  0
    2.0424   -0.9834    0.9393 H   0  0  0  0  0  0  0  0  0  0  0  0
    2.4178   -2.5592    2.7643 H   0  0  0  0  0  0  0  0  0  0  0  0
    2.3582   -3.3852    1.2318 H   0  0  0  0  0  0  0  0  0  0  0  0
    4.9493   -1.4200    2.9955 H   0  0  0  0  0  0  0  0  0  0  0  0
    6.1737   -2.6478    3.0664 H   0  0  0  0  0  0  0  0  0  0  0  0
    4.8052   -2.6452    4.1616 H   0  0  0  0  0  0  0  0  0  0  0  0
    3.8991   -8.0043    1.4306 H   0  0  0  0  0  0  0  0  0  0  0  0
    2.4840   -8.9760    2.3738 H   0  0  0  0  0  0  0  0  0  0  0  0
    0.9920   -6.5728    3.3204 H   0  0  0  0  0  0  0  0  0  0  0  0
    1.3666   -7.7616    0.5593 H   0  0  0  0  0  0  0  0  0  0  0  0
    1.4434   -6.0560    1.0331 H   0  0  0  0  0  0  0  0  0  0  0  0
   -0.0787   -6.8955    0.9282 H   0  0  0  0  0  0  0  0  0  0  0  0
  1  2  1  0
  1 34  1  0
  1 35  1  0
  1 36  1  0
  2 32  1  0
  2  3  1  0
  2 37  1  6
  3  4  1  0
  3 38  1  0
  3 39  1  0
  4  5  1  0
  4 40  1  0
  4 41  1  0
  5 31  1  0
  5  6  1  1
  5  7  1  0
  6 42  1  0
  6 43  1  0
  6 44  1  0
  7  8  1  0
  7 45  1  0
  7 46  1  0
  8  9  1  0
  8 47  1  0
  8 48  1  0
  9 30  1  0
  9 10  1  6
  9 13  1  0
 10 11  2  0
 10 12  1  0
 12 49  1  0
 13 14  1  0
 13 50  1  0
 13 51  1  0
 14 15  1  0
 14 52  1  0
 14 53  1  0
 15 28  1  0
 15 16  1  1
 15 17  1  0
 16 54  1  0
 16 55  1  0
 16 56  1  0
 17 18  2  0
 17 30  1  0
 18 19  1  0
 18 57  1  0
 19 20  1  0
 19 58  1  0
 19 59  1  0
 20 28  1  0
 20 21  1  0
 20 60  1  1
 21 22  1  0
 21 23  1  0
 21 24  1  0
 22 61  1  0
 22 62  1  0
 22 63  1  0
 23 64  1  0
 23 65  1  0
 23 66  1  0
 24 25  1  0
 24 26  1  0
 24 67  1  6
 25 68  1  0
 26 27  1  0
 26 69  1  0
 26 70  1  0
 27 28  1  0
 27 71  1  0
 27 72  1  0
 28 29  1  1
 29 73  1  0
 29 74  1  0
 29 75  1  0
 30 31  1  0
 30 76  1  6
 31 32  1  0
 31 77  1  6
 32 33  1  0
 32 78  1  1
 33 79  1  0
 33 80  1  0
 33 81  1  0
M  END
>  <i_m_ct_stereo_status>  (193) 
1

>  <s_m_source_file>  (193) 
/var/tmp/pbs.5076255.sched01/tmpguyree9i/45_f3p7e6s.sdf

>  <i_m_source_file_index>  (193) 
36

>  <i_lp_mmshare_version>  (193) 
48012

>  <i_f3d_flags>  (193) 
0

>  <s_epik_input>  (193) 
W0NIMl0xW0NIMl1bQ0BASF0oW0NIM10pW0NASF0oW0NIM10pW0NASF0oW0NAQF0xMltDSDNdKVtDQEBIXTNbQ0BAXShbQ0gyXVtDSDJdMikoQyg9TylbT0hdKVtDSDJdW0NIMl1bQ0BdNChbQ0gzXSlDMz1bQ0hdW0NIMl1bQ0BASF01W0NAQF00KFtDSDNdKVtDSDJdW0NIMl1bQ0BIXShbT0hdKUM1KFtDSDNdKVtDSDNd

>  <s_epik_cmdline>  (193) 
J2VwaWtfcHl0aG9uJywgJy1waHQnLCAnMi4wJywgJy1waCcsICc3LjAnLCAnLXRuJywgJzgnLCAnLW1hJywgJzIwMCcsICctaW1hZScsICc8aW5maWxlLm1hZT4nLCAnLW9tYWUnLCAnPG91dGZpbGUubWFlPic=

>  <r_epik_Ionization_Penalty>  (193) 
2.53657

>  <r_epik_Ionization_Penalty_Charging>  (193) 
0

>  <r_epik_Ionization_Penalty_Neutral>  (193) 
2.53657

>  <r_epik_State_Penalty>  (193) 
2.70413

>  <r_epik_Charging_Adjusted_Penalty>  (193) 
2.70413

>  <i_epik_Tot_Q>  (193) 
0

>  <i_epik_Tot_abs_Q>  (193) 
0

>  <s_lp_Force_Field>  (193) 
OPLS3e

>  <r_lp_Energy>  (193) 
113.302

>  <b_lp_Chiralities_Consistent>  (193) 
1

>  <s_lp_Variant>  (193) 
55:0-2

>  <s_i_glide_gridfile>  (193) 
pfpi4k_grid

>  <i_i_glide_lignum>  (193) 
36

>  <i_i_glide_rotatable_bonds>  (193) 
3

>  <r_i_docking_score>  (193) 
-3.22425

>  <r_i_glide_ligand_efficiency>  (193) 
-0.0977044

>  <r_i_glide_ligand_efficiency_sa>  (193) 
-0.31339

>  <r_i_glide_ligand_efficiency_ln>  (193) 
-0.717056

>  <r_i_glide_gscore>  (193) 
-3.22425

>  <r_i_glide_lipo>  (193) 
-0.308792

>  <r_i_glide_hbond>  (193) 
-0.16

>  <r_i_glide_metal>  (193) 
-0

>  <r_i_glide_rewards>  (193) 
-0.3947

>  <r_i_glide_evdw>  (193) 
-31.5364

>  <r_i_glide_ecoul>  (193) 
-5.86867

>  <r_i_glide_erotb>  (193) 
0.0963637

>  <r_i_glide_esite>  (193) 
0

>  <r_i_glide_emodel>  (193) 
-43.8301

>  <r_i_glide_energy>  (193) 
-37.405

>  <r_i_glide_einternal>  (193) 
2.42487

>  <r_i_glide_intrahb_reward>  (193) 
-0

>  <i_i_glide_confnum>  (193) 
5

>  <i_i_glide_posenum>  (193) 
22

>  <r_i_glide_eff_state_penalty>  (193) 
0

>  <ligand_id>  (193) 
55

>  <original_smiles>  (193) 
CC1CCC2(C)CCC3(C(=O)O)CCC4(C)C(=CCC5C(C)(C)C(O)CCC54C)C3C2C1C

>  <smiles>  (193) 
[H]OC(=O)C12C([H])([H])C([H])([H])C3(C([H])([H])[H])C(=C([H])C([H])([H])C4([H])C(C([H])([H])[H])(C([H])([H])[H])C([H])(O[H])C([H])([H])C([H])([H])C43C([H])([H])[H])C1([H])C1([H])C([H])(C([H])([H])[H])C([H])(C([H])([H])[H])C([H])([H])C([H])([H])C1(C([H])([H])[H])C([H])([H])C2([H])[H]

$$$$
55:1:1
     RDKit          3D

 81 85  0  0  1  0  0  0  0  0999 V2000
    3.1138   -3.5446   -4.0724 C   0  0  0  0  0  0  0  0  0  0  0  0
    3.1875   -2.5675   -2.8964 C   0  0  2  0  0  0  0  0  0  0  0  0
    4.3431   -1.6096   -3.2096 C   0  0  0  0  0  0  0  0  0  0  0  0
    4.8500   -0.8274   -2.0044 C   0  0  0  0  0  0  0  0  0  0  0  0
    5.2196   -1.7404   -0.8152 C   0  0  1  0  0  0  0  0  0  0  0  0
    6.3346   -2.6897   -1.3439 C   0  0  0  0  0  0  0  0  0  0  0  0
    5.8490   -0.8673    0.3079 C   0  0  0  0  0  0  0  0  0  0  0  0
    5.0211   -0.7499    1.5791 C   0  0  0  0  0  0  0  0  0  0  0  0
    4.5303   -2.1113    2.1365 C   0  0  2  0  0  0  0  0  0  0  0  0
    3.8415   -1.7962    3.4883 C   0  0  0  0  0  0  0  0  0  0  0  0
    4.2708   -2.1657    4.6010 O   0  0  0  0  0  0  0  0  0  0  0  0
    2.7315   -1.0133    3.3342 O   0  0  0  0  0  0  0  0  0  0  0  0
    5.7239   -3.0528    2.4008 C   0  0  0  0  0  0  0  0  0  0  0  0
    5.3745   -4.5123    2.8283 C   0  0  0  0  0  0  0  0  0  0  0  0
    4.4148   -5.2678    1.8447 C   0  0  2  0  0  0  0  0  0  0  0  0
    5.1502   -5.5000    0.5077 C   0  0  0  0  0  0  0  0  0  0  0  0
    3.2789   -4.2514    1.6265 C   0  0  0  0  0  0  0  0  0  0  0  0
    2.0766   -4.4519    2.1728 C   0  0  0  0  0  0  0  0  0  0  0  0
    1.6111   -5.6671    2.9038 C   0  0  0  0  0  0  0  0  0  0  0  0
    2.7480   -6.5480    3.4835 C   0  0  1  0  0  0  0  0  0  0  0  0
    2.1485   -7.8908    4.0669 C   0  0  0  0  0  0  0  0  0  0  0  0
    3.1428   -8.5860    5.0417 C   0  0  0  0  0  0  0  0  0  0  0  0
    0.9018   -7.6126    4.9620 C   0  0  0  0  0  0  0  0  0  0  0  0
    1.7705   -8.9041    2.9298 C   0  0  1  0  0  0  0  0  0  0  0  0
    0.5221   -8.6170    2.3098 O   0  0  0  0  0  0  0  0  0  0  0  0
    2.8232   -9.0018    1.8151 C   0  0  0  0  0  0  0  0  0  0  0  0
    3.3674   -7.6398    1.3288 C   0  0  0  0  0  0  0  0  0  0  0  0
    3.9249   -6.6919    2.4346 C   0  0  1  0  0  0  0  0  0  0  0  0
    5.1793   -7.3802    3.0654 C   0  0  0  0  0  0  0  0  0  0  0  0
    3.6106   -2.8108    1.1277 C   0  0  2  0  0  0  0  0  0  0  0  0
    3.8535   -2.4362   -0.3956 C   0  0  2  0  0  0  0  0  0  0  0  0
    3.2874   -3.3276   -1.5313 C   0  0  1  0  0  0  0  0  0  0  0  0
    1.8711   -3.8468   -1.2076 C   0  0  0  0  0  0  0  0  0  0  0  0
    4.0142   -4.1546   -4.1093 H   0  0  0  0  0  0  0  0  0  0  0  0
    3.0273   -3.0115   -5.0048 H   0  0  0  0  0  0  0  0  0  0  0  0
    2.2580   -4.2195   -4.0007 H   0  0  0  0  0  0  0  0  0  0  0  0
    2.2718   -1.9870   -2.8895 H   0  0  0  0  0  0  0  0  0  0  0  0
    5.1480   -2.1605   -3.6738 H   0  0  0  0  0  0  0  0  0  0  0  0
    3.9946   -0.8946   -3.9702 H   0  0  0  0  0  0  0  0  0  0  0  0
    5.7028   -0.2202   -2.3008 H   0  0  0  0  0  0  0  0  0  0  0  0
    4.0850   -0.1178   -1.7160 H   0  0  0  0  0  0  0  0  0  0  0  0
    6.9254   -3.1460   -0.5532 H   0  0  0  0  0  0  0  0  0  0  0  0
    7.0494   -2.1224   -1.9419 H   0  0  0  0  0  0  0  0  0  0  0  0
    5.9587   -3.4806   -1.9812 H   0  0  0  0  0  0  0  0  0  0  0  0
    6.8440   -1.2376    0.5728 H   0  0  0  0  0  0  0  0  0  0  0  0
    6.0558    0.1575   -0.0386 H   0  0  0  0  0  0  0  0  0  0  0  0
    5.6245   -0.2424    2.3387 H   0  0  0  0  0  0  0  0  0  0  0  0
    4.1784   -0.0899    1.3820 H   0  0  0  0  0  0  0  0  0  0  0  0
    2.5816   -0.8164    2.4623 H   0  0  0  0  0  0  0  0  0  0  0  0
    6.3979   -3.1156    1.5535 H   0  0  0  0  0  0  0  0  0  0  0  0
    6.2052   -2.5114    3.2009 H   0  0  0  0  0  0  0  0  0  0  0  0
    6.3135   -5.0365    2.9641 H   0  0  0  0  0  0  0  0  0  0  0  0
    4.9161   -4.4903    3.8181 H   0  0  0  0  0  0  0  0  0  0  0  0
    5.9942   -6.1860    0.5897 H   0  0  0  0  0  0  0  0  0  0  0  0
    5.5440   -4.5751    0.1303 H   0  0  0  0  0  0  0  0  0  0  0  0
    4.4734   -5.8678   -0.2612 H   0  0  0  0  0  0  0  0  0  0  0  0
    1.3730   -3.6371    2.1591 H   0  0  0  0  0  0  0  0  0  0  0  0
    0.9855   -5.2937    3.7034 H   0  0  0  0  0  0  0  0  0  0  0  0
    0.9693   -6.2048    2.2123 H   0  0  0  0  0  0  0  0  0  0  0  0
    3.1366   -5.9735    4.3226 H   0  0  0  0  0  0  0  0  0  0  0  0
    2.6271   -9.1866    5.7886 H   0  0  0  0  0  0  0  0  0  0  0  0
    3.7471   -7.8529    5.5769 H   0  0  0  0  0  0  0  0  0  0  0  0
    3.7997   -9.2843    4.5272 H   0  0  0  0  0  0  0  0  0  0  0  0
    0.5383   -8.5210    5.4334 H   0  0  0  0  0  0  0  0  0  0  0  0
    0.0536   -7.2070    4.4004 H   0  0  0  0  0  0  0  0  0  0  0  0
    1.1462   -6.9017    5.7512 H   0  0  0  0  0  0  0  0  0  0  0  0
    1.6500   -9.8897    3.3716 H   0  0  0  0  0  0  0  0  0  0  0  0
    0.3754   -9.2533    1.6178 H   0  0  0  0  0  0  0  0  0  0  0  0
    3.6512   -9.6298    2.1627 H   0  0  0  0  0  0  0  0  0  0  0  0
    2.4160   -9.5500    0.9725 H   0  0  0  0  0  0  0  0  0  0  0  0
    4.1199   -7.8548    0.5854 H   0  0  0  0  0  0  0  0  0  0  0  0
    2.5587   -7.1070    0.8064 H   0  0  0  0  0  0  0  0  0  0  0  0
    5.0940   -8.4541    3.1488 H   0  0  0  0  0  0  0  0  0  0  0  0
    5.3831   -6.9763    4.0616 H   0  0  0  0  0  0  0  0  0  0  0  0
    6.0687   -7.2296    2.4601 H   0  0  0  0  0  0  0  0  0  0  0  0
    2.6448   -2.3130    1.2701 H   0  0  0  0  0  0  0  0  0  0  0  0
    3.1691   -1.5937   -0.4551 H   0  0  0  0  0  0  0  0  0  0  0  0
    3.9231   -4.1854   -1.6647 H   0  0  0  0  0  0  0  0  0  0  0  0
    1.2733   -3.0624   -0.7890 H   0  0  0  0  0  0  0  0  0  0  0  0
    1.8944   -4.6921   -0.5148 H   0  0  0  0  0  0  0  0  0  0  0  0
    1.3528   -4.2084   -2.0913 H   0  0  0  0  0  0  0  0  0  0  0  0
  1  2  1  0
  1 34  1  0
  1 35  1  0
  1 36  1  0
  2 32  1  0
  2  3  1  0
  2 37  1  1
  3  4  1  0
  3 38  1  0
  3 39  1  0
  4  5  1  0
  4 40  1  0
  4 41  1  0
  5 31  1  0
  5  6  1  6
  5  7  1  0
  6 42  1  0
  6 43  1  0
  6 44  1  0
  7  8  1  0
  7 45  1  0
  7 46  1  0
  8  9  1  0
  8 47  1  0
  8 48  1  0
  9 30  1  0
  9 10  1  1
  9 13  1  0
 10 11  2  0
 10 12  1  0
 12 49  1  0
 13 14  1  0
 13 50  1  0
 13 51  1  0
 14 15  1  0
 14 52  1  0
 14 53  1  0
 15 28  1  0
 15 16  1  6
 15 17  1  0
 16 54  1  0
 16 55  1  0
 16 56  1  0
 17 18  2  0
 17 30  1  0
 18 19  1  0
 18 57  1  0
 19 20  1  0
 19 58  1  0
 19 59  1  0
 20 28  1  0
 20 21  1  0
 20 60  1  1
 21 22  1  0
 21 23  1  0
 21 24  1  0
 22 61  1  0
 22 62  1  0
 22 63  1  0
 23 64  1  0
 23 65  1  0
 23 66  1  0
 24 25  1  0
 24 26  1  0
 24 67  1  1
 25 68  1  0
 26 27  1  0
 26 69  1  0
 26 70  1  0
 27 28  1  0
 27 71  1  0
 27 72  1  0
 28 29  1  1
 29 73  1  0
 29 74  1  0
 29 75  1  0
 30 31  1  0
 30 76  1  1
 31 32  1  0
 31 77  1  6
 32 33  1  0
 32 78  1  6
 33 79  1  0
 33 80  1  0
 33 81  1  0
M  END
>  <i_m_ct_stereo_status>  (194) 
1

>  <s_m_source_file>  (194) 
/var/tmp/pbs.5076255.sched01/tmpguyree9i/45_f3p7e6s.sdf

>  <i_m_source_file_index>  (194) 
36

>  <i_lp_mmshare_version>  (194) 
48012

>  <i_f3d_flags>  (194) 
0

>  <s_epik_input>  (194) 
W0NIMl0xW0NIMl1bQ0BASF0oW0NIM10pW0NASF0oW0NIM10pW0NASF0oW0NAQF0xMltDSDNdKVtDQEBIXTNbQ0BAXShbQ0gyXVtDSDJdMikoQyg9TylbT0hdKVtDSDJdW0NIMl1bQ0BdNChbQ0gzXSlDMz1bQ0hdW0NIMl1bQ0BASF01W0NAQF00KFtDSDNdKVtDSDJdW0NIMl1bQ0BIXShbT0hdKUM1KFtDSDNdKVtDSDNd

>  <s_epik_cmdline>  (194) 
J2VwaWtfcHl0aG9uJywgJy1waHQnLCAnMi4wJywgJy1waCcsICc3LjAnLCAnLXRuJywgJzgnLCAnLW1hJywgJzIwMCcsICctaW1hZScsICc8aW5maWxlLm1hZT4nLCAnLW9tYWUnLCAnPG91dGZpbGUubWFlPic=

>  <r_epik_Ionization_Penalty>  (194) 
2.53657

>  <r_epik_Ionization_Penalty_Charging>  (194) 
0

>  <r_epik_Ionization_Penalty_Neutral>  (194) 
2.53657

>  <r_epik_State_Penalty>  (194) 
2.70413

>  <r_epik_Charging_Adjusted_Penalty>  (194) 
2.70413

>  <i_epik_Tot_Q>  (194) 
0

>  <i_epik_Tot_abs_Q>  (194) 
0

>  <s_lp_Force_Field>  (194) 
OPLS3e

>  <r_lp_Energy>  (194) 
113.302

>  <b_lp_Chiralities_Consistent>  (194) 
1

>  <s_lp_Variant>  (194) 
55:0-2

>  <s_i_glide_gridfile>  (194) 
pfpi4k_grid

>  <i_i_glide_lignum>  (194) 
36

>  <i_i_glide_rotatable_bonds>  (194) 
3

>  <r_i_docking_score>  (194) 
-3.20782

>  <r_i_glide_ligand_efficiency>  (194) 
-0.0972066

>  <r_i_glide_ligand_efficiency_sa>  (194) 
-0.311794

>  <r_i_glide_ligand_efficiency_ln>  (194) 
-0.713402

>  <r_i_glide_gscore>  (194) 
-3.20782

>  <r_i_glide_lipo>  (194) 
-0.635896

>  <r_i_glide_hbond>  (194) 
-0.316655

>  <r_i_glide_metal>  (194) 
-0

>  <r_i_glide_rewards>  (194) 
-0.295629

>  <r_i_glide_evdw>  (194) 
-29.1395

>  <r_i_glide_ecoul>  (194) 
-3.99351

>  <r_i_glide_erotb>  (194) 
0.0963637

>  <r_i_glide_esite>  (194) 
0

>  <r_i_glide_emodel>  (194) 
-39.5703

>  <r_i_glide_energy>  (194) 
-33.133

>  <r_i_glide_einternal>  (194) 
1.81953

>  <r_i_glide_intrahb_reward>  (194) 
-0

>  <i_i_glide_confnum>  (194) 
5

>  <i_i_glide_posenum>  (194) 
5

>  <r_i_glide_eff_state_penalty>  (194) 
0

>  <ligand_id>  (194) 
55

>  <original_smiles>  (194) 
CC1CCC2(C)CCC3(C(=O)O)CCC4(C)C(=CCC5C(C)(C)C(O)CCC54C)C3C2C1C

>  <smiles>  (194) 
[H]OC(=O)C12C([H])([H])C([H])([H])C3(C([H])([H])[H])C(=C([H])C([H])([H])C4([H])C(C([H])([H])[H])(C([H])([H])[H])C([H])(O[H])C([H])([H])C([H])([H])C43C([H])([H])[H])C1([H])C1([H])C([H])(C([H])([H])[H])C([H])(C([H])([H])[H])C([H])([H])C([H])([H])C1(C([H])([H])[H])C([H])([H])C2([H])[H]

$$$$
55:1:2
     RDKit          3D

 81 85  0  0  1  0  0  0  0  0999 V2000
   -1.4904   -7.5415    3.0770 C   0  0  0  0  0  0  0  0  0  0  0  0
   -0.1544   -8.2965    2.9288 C   0  0  2  0  0  0  0  0  0  0  0  0
    0.0072   -9.2158    4.1506 C   0  0  0  0  0  0  0  0  0  0  0  0
    1.4071   -9.7644    4.4035 C   0  0  0  0  0  0  0  0  0  0  0  0
    2.4464   -8.6249    4.4602 C   0  0  1  0  0  0  0  0  0  0  0  0
    2.0003   -7.7001    5.6260 C   0  0  0  0  0  0  0  0  0  0  0  0
    3.8132   -9.2333    4.8882 C   0  0  0  0  0  0  0  0  0  0  0  0
    4.9056   -9.1876    3.8208 C   0  0  0  0  0  0  0  0  0  0  0  0
    5.1044   -7.7924    3.1756 C   0  0  2  0  0  0  0  0  0  0  0  0
    6.2997   -7.9367    2.1941 C   0  0  0  0  0  0  0  0  0  0  0  0
    7.3462   -7.2837    2.2714 O   0  0  0  0  0  0  0  0  0  0  0  0
    6.1026   -8.9103    1.2608 O   0  0  0  0  0  0  0  0  0  0  0  0
    5.4317   -6.6922    4.2293 C   0  0  0  0  0  0  0  0  0  0  0  0
    5.4660   -5.2388    3.6733 C   0  0  0  0  0  0  0  0  0  0  0  0
    4.1769   -4.7849    2.9048 C   0  0  2  0  0  0  0  0  0  0  0  0
    3.0079   -4.7199    3.9104 C   0  0  0  0  0  0  0  0  0  0  0  0
    3.9057   -5.9238    1.9047 C   0  0  0  0  0  0  0  0  0  0  0  0
    4.0516   -5.7310    0.5769 C   0  0  0  0  0  0  0  0  0  0  0  0
    4.4828   -4.4566   -0.0813 C   0  0  0  0  0  0  0  0  0  0  0  0
    5.1289   -3.4031    0.8584 C   0  0  1  0  0  0  0  0  0  0  0  0
    5.3319   -2.0267    0.0865 C   0  0  0  0  0  0  0  0  0  0  0  0
    6.3321   -1.0897    0.8049 C   0  0  0  0  0  0  0  0  0  0  0  0
    5.9797   -2.2627   -1.3074 C   0  0  0  0  0  0  0  0  0  0  0  0
    3.9849   -1.2621   -0.0780 C   0  0  1  0  0  0  0  0  0  0  0  0
    3.2304   -1.7602   -1.1621 O   0  0  0  0  0  0  0  0  0  0  0  0
    3.1202   -1.2580    1.1953 C   0  0  0  0  0  0  0  0  0  0  0  0
    2.9898   -2.6352    1.8857 C   0  0  0  0  0  0  0  0  0  0  0  0
    4.3478   -3.3271    2.2269 C   0  0  1  0  0  0  0  0  0  0  0  0
    5.0730   -2.4306    3.2703 C   0  0  0  0  0  0  0  0  0  0  0  0
    3.7928   -7.3769    2.4335 C   0  0  2  0  0  0  0  0  0  0  0  0
    2.4370   -7.9818    3.0112 C   0  0  2  0  0  0  0  0  0  0  0  0
    1.0469   -7.3365    2.6496 C   0  0  1  0  0  0  0  0  0  0  0  0
    0.9504   -6.8871    1.1790 C   0  0  0  0  0  0  0  0  0  0  0  0
   -1.4649   -6.8704    3.9381 H   0  0  0  0  0  0  0  0  0  0  0  0
   -2.3177   -8.2338    3.2366 H   0  0  0  0  0  0  0  0  0  0  0  0
   -1.7439   -6.9469    2.2031 H   0  0  0  0  0  0  0  0  0  0  0  0
   -0.2490   -8.9658    2.0688 H   0  0  0  0  0  0  0  0  0  0  0  0
   -0.3887   -8.7356    5.0503 H   0  0  0  0  0  0  0  0  0  0  0  0
   -0.5973  -10.0881    3.9686 H   0  0  0  0  0  0  0  0  0  0  0  0
    1.3926  -10.3502    5.3268 H   0  0  0  0  0  0  0  0  0  0  0  0
    1.6498  -10.4899    3.6272 H   0  0  0  0  0  0  0  0  0  0  0  0
    2.7932   -7.0585    6.0008 H   0  0  0  0  0  0  0  0  0  0  0  0
    1.6844   -8.2999    6.4830 H   0  0  0  0  0  0  0  0  0  0  0  0
    1.1582   -7.0608    5.3700 H   0  0  0  0  0  0  0  0  0  0  0  0
    4.1957   -8.7423    5.7870 H   0  0  0  0  0  0  0  0  0  0  0  0
    3.6960  -10.2699    5.2038 H   0  0  0  0  0  0  0  0  0  0  0  0
    5.8423   -9.5371    4.2561 H   0  0  0  0  0  0  0  0  0  0  0  0
    4.6458   -9.9256    3.0596 H   0  0  0  0  0  0  0  0  0  0  0  0
    6.8581   -8.9875    0.7070 H   0  0  0  0  0  0  0  0  0  0  0  0
    4.7190   -6.7153    5.0478 H   0  0  0  0  0  0  0  0  0  0  0  0
    6.3899   -6.9143    4.7031 H   0  0  0  0  0  0  0  0  0  0  0  0
    5.6792   -4.5898    4.5257 H   0  0  0  0  0  0  0  0  0  0  0  0
    6.3260   -5.1216    3.0133 H   0  0  0  0  0  0  0  0  0  0  0  0
    3.1384   -3.9554    4.6741 H   0  0  0  0  0  0  0  0  0  0  0  0
    2.8976   -5.6519    4.4347 H   0  0  0  0  0  0  0  0  0  0  0  0
    2.0565   -4.5433    3.4135 H   0  0  0  0  0  0  0  0  0  0  0  0
    3.9153   -6.5537   -0.1085 H   0  0  0  0  0  0  0  0  0  0  0  0
    5.1979   -4.7557   -0.8470 H   0  0  0  0  0  0  0  0  0  0  0  0
    3.6024   -4.0889   -0.5972 H   0  0  0  0  0  0  0  0  0  0  0  0
    6.1266   -3.7876    1.0838 H   0  0  0  0  0  0  0  0  0  0  0  0
    6.8240   -0.4047    0.1129 H   0  0  0  0  0  0  0  0  0  0  0  0
    7.1180   -1.6511    1.3090 H   0  0  0  0  0  0  0  0  0  0  0  0
    5.8527   -0.4316    1.5246 H   0  0  0  0  0  0  0  0  0  0  0  0
    6.1709   -1.3193   -1.8192 H   0  0  0  0  0  0  0  0  0  0  0  0
    5.3456   -2.8317   -1.9841 H   0  0  0  0  0  0  0  0  0  0  0  0
    6.9268   -2.7975   -1.2197 H   0  0  0  0  0  0  0  0  0  0  0  0
    4.2118   -0.2242   -0.3290 H   0  0  0  0  0  0  0  0  0  0  0  0
    2.3422   -1.4034   -1.1083 H   0  0  0  0  0  0  0  0  0  0  0  0
    3.5072   -0.5187    1.8873 H   0  0  0  0  0  0  0  0  0  0  0  0
    2.1287   -0.8821    0.9539 H   0  0  0  0  0  0  0  0  0  0  0  0
    2.4062   -2.4668    2.7919 H   0  0  0  0  0  0  0  0  0  0  0  0
    2.3924   -3.2906    1.2562 H   0  0  0  0  0  0  0  0  0  0  0  0
    4.9429   -1.3655    3.1315 H   0  0  0  0  0  0  0  0  0  0  0  0
    6.1428   -2.6186    3.2553 H   0  0  0  0  0  0  0  0  0  0  0  0
    4.7278   -2.5940    4.2895 H   0  0  0  0  0  0  0  0  0  0  0  0
    3.8472   -7.9364    1.5032 H   0  0  0  0  0  0  0  0  0  0  0  0
    2.3879   -8.8794    2.3887 H   0  0  0  0  0  0  0  0  0  0  0  0
    0.8982   -6.4558    3.2722 H   0  0  0  0  0  0  0  0  0  0  0  0
    1.3853   -7.6413    0.5262 H   0  0  0  0  0  0  0  0  0  0  0  0
    1.4502   -5.9388    1.0091 H   0  0  0  0  0  0  0  0  0  0  0  0
   -0.0756   -6.7573    0.8363 H   0  0  0  0  0  0  0  0  0  0  0  0
  1  2  1  0
  1 34  1  0
  1 35  1  0
  1 36  1  0
  2 32  1  0
  2  3  1  0
  2 37  1  6
  3  4  1  0
  3 38  1  0
  3 39  1  0
  4  5  1  0
  4 40  1  0
  4 41  1  0
  5 31  1  0
  5  6  1  1
  5  7  1  0
  6 42  1  0
  6 43  1  0
  6 44  1  0
  7  8  1  0
  7 45  1  0
  7 46  1  0
  8  9  1  0
  8 47  1  0
  8 48  1  0
  9 30  1  0
  9 10  1  6
  9 13  1  0
 10 11  2  0
 10 12  1  0
 12 49  1  0
 13 14  1  0
 13 50  1  0
 13 51  1  0
 14 15  1  0
 14 52  1  0
 14 53  1  0
 15 28  1  0
 15 16  1  1
 15 17  1  0
 16 54  1  0
 16 55  1  0
 16 56  1  0
 17 18  2  0
 17 30  1  0
 18 19  1  0
 18 57  1  0
 19 20  1  0
 19 58  1  0
 19 59  1  0
 20 28  1  0
 20 21  1  0
 20 60  1  1
 21 22  1  0
 21 23  1  0
 21 24  1  0
 22 61  1  0
 22 62  1  0
 22 63  1  0
 23 64  1  0
 23 65  1  0
 23 66  1  0
 24 25  1  0
 24 26  1  0
 24 67  1  6
 25 68  1  0
 26 27  1  0
 26 69  1  0
 26 70  1  0
 27 28  1  0
 27 71  1  0
 27 72  1  0
 28 29  1  1
 29 73  1  0
 29 74  1  0
 29 75  1  0
 30 31  1  0
 30 76  1  6
 31 32  1  0
 31 77  1  6
 32 33  1  0
 32 78  1  1
 33 79  1  0
 33 80  1  0
 33 81  1  0
M  END
>  <i_m_ct_stereo_status>  (195) 
1

>  <s_m_source_file>  (195) 
/var/tmp/pbs.5076255.sched01/tmpguyree9i/45_f3p7e6s.sdf

>  <i_m_source_file_index>  (195) 
36

>  <i_lp_mmshare_version>  (195) 
48012

>  <i_f3d_flags>  (195) 
0

>  <s_epik_input>  (195) 
W0NIMl0xW0NIMl1bQ0BASF0oW0NIM10pW0NASF0oW0NIM10pW0NASF0oW0NAQF0xMltDSDNdKVtDQEBIXTNbQ0BAXShbQ0gyXVtDSDJdMikoQyg9TylbT0hdKVtDSDJdW0NIMl1bQ0BdNChbQ0gzXSlDMz1bQ0hdW0NIMl1bQ0BASF01W0NAQF00KFtDSDNdKVtDSDJdW0NIMl1bQ0BIXShbT0hdKUM1KFtDSDNdKVtDSDNd

>  <s_epik_cmdline>  (195) 
J2VwaWtfcHl0aG9uJywgJy1waHQnLCAnMi4wJywgJy1waCcsICc3LjAnLCAnLXRuJywgJzgnLCAnLW1hJywgJzIwMCcsICctaW1hZScsICc8aW5maWxlLm1hZT4nLCAnLW9tYWUnLCAnPG91dGZpbGUubWFlPic=

>  <r_epik_Ionization_Penalty>  (195) 
2.53657

>  <r_epik_Ionization_Penalty_Charging>  (195) 
0

>  <r_epik_Ionization_Penalty_Neutral>  (195) 
2.53657

>  <r_epik_State_Penalty>  (195) 
2.70413

>  <r_epik_Charging_Adjusted_Penalty>  (195) 
2.70413

>  <i_epik_Tot_Q>  (195) 
0

>  <i_epik_Tot_abs_Q>  (195) 
0

>  <s_lp_Force_Field>  (195) 
OPLS3e

>  <r_lp_Energy>  (195) 
113.302

>  <b_lp_Chiralities_Consistent>  (195) 
1

>  <s_lp_Variant>  (195) 
55:0-2

>  <s_i_glide_gridfile>  (195) 
pfpi4k_grid

>  <i_i_glide_lignum>  (195) 
36

>  <i_i_glide_rotatable_bonds>  (195) 
3

>  <r_i_docking_score>  (195) 
-2.72031

>  <r_i_glide_ligand_efficiency>  (195) 
-0.0824337

>  <r_i_glide_ligand_efficiency_sa>  (195) 
-0.264409

>  <r_i_glide_ligand_efficiency_ln>  (195) 
-0.604983

>  <r_i_glide_gscore>  (195) 
-2.72031

>  <r_i_glide_lipo>  (195) 
-0.286719

>  <r_i_glide_hbond>  (195) 
-0.16

>  <r_i_glide_metal>  (195) 
-0

>  <r_i_glide_rewards>  (195) 
-0.366146

>  <r_i_glide_evdw>  (195) 
-31.6807

>  <r_i_glide_ecoul>  (195) 
-2.7985

>  <r_i_glide_erotb>  (195) 
0.0963637

>  <r_i_glide_esite>  (195) 
0

>  <r_i_glide_emodel>  (195) 
-40.2141

>  <r_i_glide_energy>  (195) 
-34.4792

>  <r_i_glide_einternal>  (195) 
0.993913

>  <r_i_glide_intrahb_reward>  (195) 
-0

>  <i_i_glide_confnum>  (195) 
5

>  <i_i_glide_posenum>  (195) 
29

>  <r_i_glide_eff_state_penalty>  (195) 
0

>  <ligand_id>  (195) 
55

>  <original_smiles>  (195) 
CC1CCC2(C)CCC3(C(=O)O)CCC4(C)C(=CCC5C(C)(C)C(O)CCC54C)C3C2C1C

>  <smiles>  (195) 
[H]OC(=O)C12C([H])([H])C([H])([H])C3(C([H])([H])[H])C(=C([H])C([H])([H])C4([H])C(C([H])([H])[H])(C([H])([H])[H])C([H])(O[H])C([H])([H])C([H])([H])C43C([H])([H])[H])C1([H])C1([H])C([H])(C([H])([H])[H])C([H])(C([H])([H])[H])C([H])([H])C([H])([H])C1(C([H])([H])[H])C([H])([H])C2([H])[H]

$$$$
57:0:0
     RDKit          3D

 72 75  0  0  1  0  0  0  0  0999 V2000
    8.1179   -5.8946    4.2404 C   0  0  0  0  0  0  0  0  0  0  0  0
    6.9252   -6.8207    3.9127 C   0  0  2  0  0  0  0  0  0  0  0  0
    7.4045   -7.8612    2.8953 C   0  0  0  0  0  0  0  0  0  0  0  0
    7.2193   -7.2193    1.5111 C   0  0  0  0  0  0  0  0  0  0  0  0
    6.4332   -5.8905    1.7123 C   0  0  1  0  0  0  0  0  0  0  0  0
    5.5174   -5.5745    0.5276 C   0  0  0  0  0  0  0  0  0  0  0  0
    5.0737   -4.3193    0.3257 N   0  0  0  0  0  0  0  0  0  0  0  0
    4.0659   -4.3942   -0.5852 N   0  0  0  0  0  0  0  0  0  0  0  0
    3.1368   -3.4349   -0.6757 C   0  0  0  0  0  0  0  0  0  0  0  0
    3.0461   -2.4112    0.2115 N   0  0  0  0  0  0  0  0  0  0  0  0
    2.2236   -3.4567   -1.6375 N   0  0  0  0  0  0  0  0  0  0  0  0
    5.8162   -6.0328    3.1475 C   0  0  1  0  0  0  0  0  0  0  0  0
    4.3191   -6.5421    3.2219 C   0  0  1  0  0  0  0  0  0  0  0  0
    3.4599   -5.2995    2.8951 C   0  0  0  0  0  0  0  0  0  0  0  0
    4.0055   -7.7684    2.3032 C   0  0  0  0  0  0  0  0  0  0  0  0
    2.5637   -8.2355    2.4168 C   0  0  0  0  0  0  0  0  0  0  0  0
    2.1994   -8.6354    3.8815 C   0  0  2  0  0  0  0  0  0  0  0  0
    0.7267   -9.1579    4.0056 C   0  0  0  0  0  0  0  0  0  0  0  0
    0.4210  -10.1532    2.8651 C   0  0  0  0  0  0  0  0  0  0  0  0
    0.5583  -10.0095    5.3062 C   0  0  0  0  0  0  0  0  0  0  0  0
   -0.2835   -7.9580    3.9402 C   0  0  1  0  0  0  0  0  0  0  0  0
   -1.6012   -8.4308    4.1125 O   0  0  0  0  0  0  0  0  0  0  0  0
   -0.0007   -6.8688    4.9975 C   0  0  0  0  0  0  0  0  0  0  0  0
    1.4374   -6.3760    4.8600 C   0  0  0  0  0  0  0  0  0  0  0  0
    2.5191   -7.5095    4.9495 C   0  0  1  0  0  0  0  0  0  0  0  0
    2.4971   -8.0345    6.4114 C   0  0  0  0  0  0  0  0  0  0  0  0
    3.9966   -6.9935    4.7010 C   0  0  1  0  0  0  0  0  0  0  0  0
    5.0787   -8.0085    5.2368 C   0  0  0  0  0  0  0  0  0  0  0  0
    6.4651   -7.3909    5.2630 C   0  0  0  0  0  0  0  0  0  0  0  0
    8.9077   -6.4299    4.7568 H   0  0  0  0  0  0  0  0  0  0  0  0
    7.8210   -5.0707    4.8854 H   0  0  0  0  0  0  0  0  0  0  0  0
    8.5768   -5.4700    3.3533 H   0  0  0  0  0  0  0  0  0  0  0  0
    8.4362   -8.1493    3.0777 H   0  0  0  0  0  0  0  0  0  0  0  0
    6.8257   -8.7756    2.9840 H   0  0  0  0  0  0  0  0  0  0  0  0
    8.1901   -7.0146    1.0533 H   0  0  0  0  0  0  0  0  0  0  0  0
    6.6869   -7.9288    0.8828 H   0  0  0  0  0  0  0  0  0  0  0  0
    7.1609   -5.0781    1.7623 H   0  0  0  0  0  0  0  0  0  0  0  0
    5.1652   -6.3608   -0.0914 H   0  0  0  0  0  0  0  0  0  0  0  0
    2.3437   -1.6990    0.0687 H   0  0  0  0  0  0  0  0  0  0  0  0
    3.6682   -2.3768    1.0055 H   0  0  0  0  0  0  0  0  0  0  0  0
    2.0987   -4.3096   -2.2136 H   0  0  0  0  0  0  0  0  0  0  0  0
    1.7446   -2.6254   -1.8804 H   0  0  0  0  0  0  0  0  0  0  0  0
    5.7956   -5.0457    3.5981 H   0  0  0  0  0  0  0  0  0  0  0  0
    2.6043   -5.5468    2.2948 H   0  0  0  0  0  0  0  0  0  0  0  0
    3.9926   -4.5117    2.3785 H   0  0  0  0  0  0  0  0  0  0  0  0
    3.1451   -4.7980    3.7936 H   0  0  0  0  0  0  0  0  0  0  0  0
    4.1473   -7.5619    1.2563 H   0  0  0  0  0  0  0  0  0  0  0  0
    4.6469   -8.6264    2.5192 H   0  0  0  0  0  0  0  0  0  0  0  0
    1.8652   -7.4864    2.0539 H   0  0  0  0  0  0  0  0  0  0  0  0
    2.4492   -9.0840    1.7379 H   0  0  0  0  0  0  0  0  0  0  0  0
    2.8509   -9.4977    4.0745 H   0  0  0  0  0  0  0  0  0  0  0  0
   -0.5259  -10.6524    3.0454 H   0  0  0  0  0  0  0  0  0  0  0  0
    1.2014  -10.9132    2.7737 H   0  0  0  0  0  0  0  0  0  0  0  0
    0.3062   -9.6753    1.8984 H   0  0  0  0  0  0  0  0  0  0  0  0
   -0.1519  -10.8350    5.1758 H   0  0  0  0  0  0  0  0  0  0  0  0
    0.1879   -9.3833    6.1383 H   0  0  0  0  0  0  0  0  0  0  0  0
    1.5122  -10.4825    5.5936 H   0  0  0  0  0  0  0  0  0  0  0  0
   -0.2523   -7.5124    2.9373 H   0  0  0  0  0  0  0  0  0  0  0  0
   -1.5512   -9.2718    4.5623 H   0  0  0  0  0  0  0  0  0  0  0  0
   -0.6643   -6.0220    4.8206 H   0  0  0  0  0  0  0  0  0  0  0  0
   -0.2235   -7.2310    6.0078 H   0  0  0  0  0  0  0  0  0  0  0  0
    1.3976   -5.8777    3.8984 H   0  0  0  0  0  0  0  0  0  0  0  0
    1.6621   -5.6203    5.6068 H   0  0  0  0  0  0  0  0  0  0  0  0
    3.1106   -7.4276    7.0601 H   0  0  0  0  0  0  0  0  0  0  0  0
    2.8735   -9.0464    6.4606 H   0  0  0  0  0  0  0  0  0  0  0  0
    1.5139   -8.0395    6.8647 H   0  0  0  0  0  0  0  0  0  0  0  0
    4.1163   -6.1164    5.3516 H   0  0  0  0  0  0  0  0  0  0  0  0
    4.9353   -8.3029    6.2801 H   0  0  0  0  0  0  0  0  0  0  0  0
    5.0730   -8.9413    4.6775 H   0  0  0  0  0  0  0  0  0  0  0  0
    7.1755   -8.1250    5.6395 H   0  0  0  0  0  0  0  0  0  0  0  0
    6.4472   -6.6055    6.0240 H   0  0  0  0  0  0  0  0  0  0  0  0
    3.9700   -5.2412   -1.1266 H   0  0  0  0  0  0  0  0  0  0  0  0
  2  1  1  1
  1 30  1  0
  1 31  1  0
  1 32  1  0
  2 12  1  0
  2 29  1  0
  2  3  1  0
  3  4  1  0
  3 33  1  0
  3 34  1  0
  4  5  1  0
  4 35  1  0
  4 36  1  0
  5  6  1  0
  5 12  1  0
  5 37  1  1
  6  7  2  3
  6 38  1  0
  7  8  1  0
  8  9  1  0
  8 72  1  0
  9 10  1  0
  9 11  2  0
 10 39  1  0
 10 40  1  0
 11 41  1  0
 11 42  1  0
 12 13  1  0
 12 43  1  1
 13 27  1  0
 13 14  1  6
 13 15  1  0
 14 44  1  0
 14 45  1  0
 14 46  1  0
 15 16  1  0
 15 47  1  0
 15 48  1  0
 16 17  1  0
 16 49  1  0
 16 50  1  0
 17 25  1  0
 17 18  1  0
 17 51  1  1
 18 19  1  0
 18 20  1  0
 18 21  1  0
 19 52  1  0
 19 53  1  0
 19 54  1  0
 20 55  1  0
 20 56  1  0
 20 57  1  0
 21 22  1  0
 21 23  1  0
 21 58  1  6
 22 59  1  0
 23 24  1  0
 23 60  1  0
 23 61  1  0
 24 25  1  0
 24 62  1  0
 24 63  1  0
 25 26  1  1
 25 27  1  0
 26 64  1  0
 26 65  1  0
 26 66  1  0
 27 28  1  0
 27 67  1  1
 28 29  1  0
 28 68  1  0
 28 69  1  0
 29 70  1  0
 29 71  1  0
M  CHG  1  11   1
M  END
>  <i_m_ct_stereo_status>  (196) 
1

>  <s_m_source_file>  (196) 
/var/tmp/pbs.5076255.sched01/tmpguyree9i/45_f3p7e6s.sdf

>  <i_m_source_file_index>  (196) 
38

>  <i_lp_mmshare_version>  (196) 
48012

>  <i_f3d_flags>  (196) 
0

>  <s_epik_input>  (196) 
W05IMl1DKFtOSDJdKT1OXE49W0NIXVxbQ0BIXShbQ0gyXVtDSDJdMSlbQ0BIXShbQ0BdMTJbQ0gzXSlbQ0BdMyhbQ0gzXSlbQ0BIXShbQ0gyXVtDSDJdMilbQ0BdNChbQ0gzXSlbQ0BIXShbQ0gyXVtDSDJdMylDKFtDSDNdKShbQ0gzXSlbQ0BASF0oW09IXSlbQ0gyXVtDSDJdNA==

>  <s_epik_cmdline>  (196) 
J2VwaWtfcHl0aG9uJywgJy1waHQnLCAnMi4wJywgJy1waCcsICc3LjAnLCAnLXRuJywgJzgnLCAnLW1hJywgJzIwMCcsICctaW1hZScsICc8aW5maWxlLm1hZT4nLCAnLW9tYWUnLCAnPG91dGZpbGUubWFlPic=

>  <r_epik_Ionization_Penalty>  (196) 
0.354731

>  <r_epik_Ionization_Penalty_Charging>  (196) 
0.354718

>  <r_epik_Ionization_Penalty_Neutral>  (196) 
1.26159e-05

>  <r_epik_State_Penalty>  (196) 
0.350801

>  <r_epik_Charging_Adjusted_Penalty>  (196) 
0.705519

>  <i_epik_Tot_Q>  (196) 
1

>  <i_epik_Tot_abs_Q>  (196) 
1

>  <s_epik_Chemistry_Notes>  (196) 
This compound has an imine and may undergo hydrolysis.

>  <s_lp_Force_Field>  (196) 
OPLS3e

>  <r_lp_Energy>  (196) 
89.497

>  <b_lp_Chiralities_Consistent>  (196) 
1

>  <s_lp_Variant>  (196) 
57:0-1

>  <s_i_glide_gridfile>  (196) 
pfpi4k_grid

>  <i_i_glide_lignum>  (196) 
38

>  <i_i_glide_rotatable_bonds>  (196) 
4

>  <r_i_docking_score>  (196) 
-3.92261

>  <r_i_glide_ligand_efficiency>  (196) 
-0.135262

>  <r_i_glide_ligand_efficiency_sa>  (196) 
-0.415569

>  <r_i_glide_ligand_efficiency_ln>  (196) 
-0.898178

>  <r_i_glide_gscore>  (196) 
-3.92261

>  <r_i_glide_lipo>  (196) 
-0.276345

>  <r_i_glide_hbond>  (196) 
-0.459029

>  <r_i_glide_metal>  (196) 
-0

>  <r_i_glide_rewards>  (196) 
-0.801028

>  <r_i_glide_evdw>  (196) 
-21.7363

>  <r_i_glide_ecoul>  (196) 
-10.4766

>  <r_i_glide_erotb>  (196) 
0.361579

>  <r_i_glide_esite>  (196) 
-0.0894733

>  <r_i_glide_emodel>  (196) 
-40.174

>  <r_i_glide_energy>  (196) 
-32.2129

>  <r_i_glide_einternal>  (196) 
2.50185

>  <r_i_glide_intrahb_reward>  (196) 
-0

>  <i_i_glide_confnum>  (196) 
1

>  <i_i_glide_posenum>  (196) 
2

>  <r_i_glide_eff_state_penalty>  (196) 
0

>  <ligand_id>  (196) 
57

>  <original_smiles>  (196) 
CC12CCC(C=NN=C(N)N)C1C1(C)CCC3C(C)(C)C(O)CCC3(C)C1CC2

>  <smiles>  (196) 
[H]OC1([H])C([H])([H])C([H])([H])C2(C([H])([H])[H])C([H])(C([H])([H])C([H])([H])C3(C([H])([H])[H])C4([H])C([H])(C([H])=NN([H])C(N([H])[H])=[N+]([H])[H])C([H])([H])C([H])([H])C4(C([H])([H])[H])C([H])([H])C([H])([H])C32[H])C1(C([H])([H])[H])C([H])([H])[H]

$$$$
57:0:1
     RDKit          3D

 72 75  0  0  1  0  0  0  0  0999 V2000
    8.0023   -2.4625    0.0443 C   0  0  0  0  0  0  0  0  0  0  0  0
    6.7295   -3.3336    0.0277 C   0  0  2  0  0  0  0  0  0  0  0  0
    6.2056   -3.3358   -1.4118 C   0  0  0  0  0  0  0  0  0  0  0  0
    5.3039   -2.0942   -1.5319 C   0  0  0  0  0  0  0  0  0  0  0  0
    5.1503   -1.5071   -0.1090 C   0  0  1  0  0  0  0  0  0  0  0  0
    3.7842   -0.8887    0.1409 C   0  0  0  0  0  0  0  0  0  0  0  0
    3.6084    0.0580    0.9964 N   0  0  0  0  0  0  0  0  0  0  0  0
    2.2558    0.2446    1.1667 N   0  0  0  0  0  0  0  0  0  0  0  0
    1.7859    1.3078    1.8252 C   0  0  0  0  0  0  0  0  0  0  0  0
    2.6075    2.1329    2.4808 N   0  0  0  0  0  0  0  0  0  0  0  0
    0.4722    1.6349    1.7540 N   0  0  0  0  0  0  0  0  0  0  0  0
    5.5935   -2.6540    0.8418 C   0  0  1  0  0  0  0  0  0  0  0  0
    4.4459   -3.5664    1.4342 C   0  0  1  0  0  0  0  0  0  0  0  0
    3.8381   -2.7156    2.5974 C   0  0  0  0  0  0  0  0  0  0  0  0
    3.3610   -4.0128    0.3975 C   0  0  0  0  0  0  0  0  0  0  0  0
    2.2927   -4.8994    1.0330 C   0  0  0  0  0  0  0  0  0  0  0  0
    2.8730   -6.1927    1.6807 C   0  0  2  0  0  0  0  0  0  0  0  0
    1.7504   -7.1175    2.2915 C   0  0  0  0  0  0  0  0  0  0  0  0
    0.5816   -7.2455    1.2859 C   0  0  0  0  0  0  0  0  0  0  0  0
    2.2721   -8.5611    2.4914 C   0  0  0  0  0  0  0  0  0  0  0  0
    1.2305   -6.5010    3.6314 C   0  0  1  0  0  0  0  0  0  0  0  0
    0.3046   -7.3813    4.2197 O   0  0  0  0  0  0  0  0  0  0  0  0
    2.3572   -6.2416    4.6587 C   0  0  0  0  0  0  0  0  0  0  0  0
    3.4253   -5.3290    4.0473 C   0  0  0  0  0  0  0  0  0  0  0  0
    4.0331   -5.8804    2.7091 C   0  0  1  0  0  0  0  0  0  0  0  0
    4.8404   -7.1560    3.0769 C   0  0  0  0  0  0  0  0  0  0  0  0
    5.0741   -4.8817    2.0477 C   0  0  1  0  0  0  0  0  0  0  0  0
    6.0000   -5.5908    0.9988 C   0  0  0  0  0  0  0  0  0  0  0  0
    7.1610   -4.7048    0.5835 C   0  0  0  0  0  0  0  0  0  0  0  0
    8.8138   -2.9043   -0.5351 H   0  0  0  0  0  0  0  0  0  0  0  0
    8.3704   -2.3379    1.0512 H   0  0  0  0  0  0  0  0  0  0  0  0
    7.8356   -1.4638   -0.3436 H   0  0  0  0  0  0  0  0  0  0  0  0
    7.0231   -3.3255   -2.1316 H   0  0  0  0  0  0  0  0  0  0  0  0
    5.6455   -4.2449   -1.6182 H   0  0  0  0  0  0  0  0  0  0  0  0
    5.7570   -1.3548   -2.1940 H   0  0  0  0  0  0  0  0  0  0  0  0
    4.3491   -2.3951   -1.9721 H   0  0  0  0  0  0  0  0  0  0  0  0
    5.8715   -0.6946    0.0099 H   0  0  0  0  0  0  0  0  0  0  0  0
    2.9596   -1.2708   -0.4451 H   0  0  0  0  0  0  0  0  0  0  0  0
    2.2537    2.9577    2.9241 H   0  0  0  0  0  0  0  0  0  0  0  0
    3.6018    1.9160    2.5032 H   0  0  0  0  0  0  0  0  0  0  0  0
   -0.1949    1.0078    1.3304 H   0  0  0  0  0  0  0  0  0  0  0  0
    0.2237    2.6172    1.7901 H   0  0  0  0  0  0  0  0  0  0  0  0
    6.0782   -2.2123    1.7113 H   0  0  0  0  0  0  0  0  0  0  0  0
    2.7550   -2.8449    2.6702 H   0  0  0  0  0  0  0  0  0  0  0  0
    4.0256   -1.6534    2.5134 H   0  0  0  0  0  0  0  0  0  0  0  0
    4.3199   -2.9608    3.5524 H   0  0  0  0  0  0  0  0  0  0  0  0
    2.8225   -3.1861   -0.0343 H   0  0  0  0  0  0  0  0  0  0  0  0
    3.7993   -4.5698   -0.4337 H   0  0  0  0  0  0  0  0  0  0  0  0
    1.7265   -4.3440    1.7782 H   0  0  0  0  0  0  0  0  0  0  0  0
    1.5904   -5.1438    0.2316 H   0  0  0  0  0  0  0  0  0  0  0  0
    3.3051   -6.7159    0.8197 H   0  0  0  0  0  0  0  0  0  0  0  0
   -0.0858   -8.0620    1.5599 H   0  0  0  0  0  0  0  0  0  0  0  0
    0.9608   -7.4700    0.2894 H   0  0  0  0  0  0  0  0  0  0  0  0
   -0.0434   -6.3542    1.2094 H   0  0  0  0  0  0  0  0  0  0  0  0
    1.4817   -9.3031    2.4118 H   0  0  0  0  0  0  0  0  0  0  0  0
    2.7296   -8.6874    3.4617 H   0  0  0  0  0  0  0  0  0  0  0  0
    3.0053   -8.8094    1.7309 H   0  0  0  0  0  0  0  0  0  0  0  0
    0.6988   -5.5614    3.4328 H   0  0  0  0  0  0  0  0  0  0  0  0
    0.7432   -8.2167    4.2918 H   0  0  0  0  0  0  0  0  0  0  0  0
    1.9408   -5.7282    5.5297 H   0  0  0  0  0  0  0  0  0  0  0  0
    2.7893   -7.1801    5.0243 H   0  0  0  0  0  0  0  0  0  0  0  0
    2.8836   -4.3917    3.9380 H   0  0  0  0  0  0  0  0  0  0  0  0
    4.2377   -5.1505    4.7550 H   0  0  0  0  0  0  0  0  0  0  0  0
    5.8470   -6.8928    3.4041 H   0  0  0  0  0  0  0  0  0  0  0  0
    4.9302   -7.7993    2.2024 H   0  0  0  0  0  0  0  0  0  0  0  0
    4.3971   -7.7370    3.8736 H   0  0  0  0  0  0  0  0  0  0  0  0
    5.7536   -4.5754    2.8540 H   0  0  0  0  0  0  0  0  0  0  0  0
    6.5009   -6.4778    1.3884 H   0  0  0  0  0  0  0  0  0  0  0  0
    5.4368   -5.9420    0.1362 H   0  0  0  0  0  0  0  0  0  0  0  0
    7.7881   -5.2433   -0.1254 H   0  0  0  0  0  0  0  0  0  0  0  0
    7.7985   -4.5819    1.4641 H   0  0  0  0  0  0  0  0  0  0  0  0
    1.6718   -0.3865    0.6434 H   0  0  0  0  0  0  0  0  0  0  0  0
  2  1  1  6
  1 30  1  0
  1 31  1  0
  1 32  1  0
  2 12  1  0
  2 29  1  0
  2  3  1  0
  3  4  1  0
  3 33  1  0
  3 34  1  0
  4  5  1  0
  4 35  1  0
  4 36  1  0
  5  6  1  0
  5 12  1  0
  5 37  1  6
  6  7  2  3
  6 38  1  0
  7  8  1  0
  8  9  1  0
  8 72  1  0
  9 10  1  0
  9 11  2  0
 10 39  1  0
 10 40  1  0
 11 41  1  0
 11 42  1  0
 12 13  1  0
 12 43  1  1
 13 27  1  0
 13 14  1  1
 13 15  1  0
 14 44  1  0
 14 45  1  0
 14 46  1  0
 15 16  1  0
 15 47  1  0
 15 48  1  0
 16 17  1  0
 16 49  1  0
 16 50  1  0
 17 25  1  0
 17 18  1  0
 17 51  1  6
 18 19  1  0
 18 20  1  0
 18 21  1  0
 19 52  1  0
 19 53  1  0
 19 54  1  0
 20 55  1  0
 20 56  1  0
 20 57  1  0
 21 22  1  0
 21 23  1  0
 21 58  1  6
 22 59  1  0
 23 24  1  0
 23 60  1  0
 23 61  1  0
 24 25  1  0
 24 62  1  0
 24 63  1  0
 25 26  1  1
 25 27  1  0
 26 64  1  0
 26 65  1  0
 26 66  1  0
 27 28  1  0
 27 67  1  1
 28 29  1  0
 28 68  1  0
 28 69  1  0
 29 70  1  0
 29 71  1  0
M  CHG  1  11   1
M  END
>  <i_m_ct_stereo_status>  (197) 
1

>  <s_m_source_file>  (197) 
/var/tmp/pbs.5076255.sched01/tmpguyree9i/45_f3p7e6s.sdf

>  <i_m_source_file_index>  (197) 
38

>  <i_lp_mmshare_version>  (197) 
48012

>  <i_f3d_flags>  (197) 
0

>  <s_epik_input>  (197) 
W05IMl1DKFtOSDJdKT1OXE49W0NIXVxbQ0BIXShbQ0gyXVtDSDJdMSlbQ0BIXShbQ0BdMTJbQ0gzXSlbQ0BdMyhbQ0gzXSlbQ0BIXShbQ0gyXVtDSDJdMilbQ0BdNChbQ0gzXSlbQ0BIXShbQ0gyXVtDSDJdMylDKFtDSDNdKShbQ0gzXSlbQ0BASF0oW09IXSlbQ0gyXVtDSDJdNA==

>  <s_epik_cmdline>  (197) 
J2VwaWtfcHl0aG9uJywgJy1waHQnLCAnMi4wJywgJy1waCcsICc3LjAnLCAnLXRuJywgJzgnLCAnLW1hJywgJzIwMCcsICctaW1hZScsICc8aW5maWxlLm1hZT4nLCAnLW9tYWUnLCAnPG91dGZpbGUubWFlPic=

>  <r_epik_Ionization_Penalty>  (197) 
0.354731

>  <r_epik_Ionization_Penalty_Charging>  (197) 
0.354718

>  <r_epik_Ionization_Penalty_Neutral>  (197) 
1.26159e-05

>  <r_epik_State_Penalty>  (197) 
0.350801

>  <r_epik_Charging_Adjusted_Penalty>  (197) 
0.705519

>  <i_epik_Tot_Q>  (197) 
1

>  <i_epik_Tot_abs_Q>  (197) 
1

>  <s_epik_Chemistry_Notes>  (197) 
This compound has an imine and may undergo hydrolysis.

>  <s_lp_Force_Field>  (197) 
OPLS3e

>  <r_lp_Energy>  (197) 
89.497

>  <b_lp_Chiralities_Consistent>  (197) 
1

>  <s_lp_Variant>  (197) 
57:0-1

>  <s_i_glide_gridfile>  (197) 
pfpi4k_grid

>  <i_i_glide_lignum>  (197) 
38

>  <i_i_glide_rotatable_bonds>  (197) 
4

>  <r_i_docking_score>  (197) 
-3.31672

>  <r_i_glide_ligand_efficiency>  (197) 
-0.11437

>  <r_i_glide_ligand_efficiency_sa>  (197) 
-0.35138

>  <r_i_glide_ligand_efficiency_ln>  (197) 
-0.759445

>  <r_i_glide_gscore>  (197) 
-3.31672

>  <r_i_glide_lipo>  (197) 
-0.694636

>  <r_i_glide_hbond>  (197) 
-0.388763

>  <r_i_glide_metal>  (197) 
-0

>  <r_i_glide_rewards>  (197) 
-0.657106

>  <r_i_glide_evdw>  (197) 
-25.893

>  <r_i_glide_ecoul>  (197) 
-7.6219

>  <r_i_glide_erotb>  (197) 
0.361579

>  <r_i_glide_esite>  (197) 
-0.181235

>  <r_i_glide_emodel>  (197) 
-38.0058

>  <r_i_glide_energy>  (197) 
-33.5149

>  <r_i_glide_einternal>  (197) 
1.09441

>  <r_i_glide_intrahb_reward>  (197) 
-0

>  <i_i_glide_confnum>  (197) 
1

>  <i_i_glide_posenum>  (197) 
12

>  <r_i_glide_eff_state_penalty>  (197) 
0

>  <ligand_id>  (197) 
57

>  <original_smiles>  (197) 
CC12CCC(C=NN=C(N)N)C1C1(C)CCC3C(C)(C)C(O)CCC3(C)C1CC2

>  <smiles>  (197) 
[H]OC1([H])C([H])([H])C([H])([H])C2(C([H])([H])[H])C([H])(C([H])([H])C([H])([H])C3(C([H])([H])[H])C4([H])C([H])(C([H])=NN([H])C(N([H])[H])=[N+]([H])[H])C([H])([H])C([H])([H])C4(C([H])([H])[H])C([H])([H])C([H])([H])C32[H])C1(C([H])([H])[H])C([H])([H])[H]

$$$$
57:0:2
     RDKit          3D

 72 75  0  0  1  0  0  0  0  0999 V2000
    3.5896   -3.2984    8.1987 C   0  0  0  0  0  0  0  0  0  0  0  0
    3.7256   -4.6008    7.3794 C   0  0  2  0  0  0  0  0  0  0  0  0
    5.2214   -4.8680    7.1783 C   0  0  0  0  0  0  0  0  0  0  0  0
    5.6213   -4.0825    5.9162 C   0  0  0  0  0  0  0  0  0  0  0  0
    4.3245   -3.5495    5.2761 C   0  0  1  0  0  0  0  0  0  0  0  0
    4.3949   -3.4970    3.7532 C   0  0  0  0  0  0  0  0  0  0  0  0
    3.7500   -2.6226    3.0899 N   0  0  0  0  0  0  0  0  0  0  0  0
    3.8015   -2.9598    1.7658 N   0  0  0  0  0  0  0  0  0  0  0  0
    3.0170   -2.3344    0.8754 C   0  0  0  0  0  0  0  0  0  0  0  0
    3.0146   -2.6463   -0.4317 N   0  0  0  0  0  0  0  0  0  0  0  0
    2.2353   -1.3633    1.2962 N   0  0  0  0  0  0  0  0  0  0  0  0
    3.1855   -4.3869    5.9364 C   0  0  1  0  0  0  0  0  0  0  0  0
    2.6791   -5.6472    5.1309 C   0  0  1  0  0  0  0  0  0  0  0  0
    1.7344   -5.0480    4.0447 C   0  0  0  0  0  0  0  0  0  0  0  0
    3.8129   -6.5203    4.5023 C   0  0  0  0  0  0  0  0  0  0  0  0
    3.2622   -7.7214    3.7349 C   0  0  0  0  0  0  0  0  0  0  0  0
    2.3972   -8.6566    4.6377 C   0  0  2  0  0  0  0  0  0  0  0  0
    1.8763   -9.9220    3.8629 C   0  0  0  0  0  0  0  0  0  0  0  0
    3.0308  -10.5463    3.0435 C   0  0  0  0  0  0  0  0  0  0  0  0
    1.4321  -11.0343    4.8400 C   0  0  0  0  0  0  0  0  0  0  0  0
    0.7108   -9.5064    2.9153 C   0  0  1  0  0  0  0  0  0  0  0  0
    0.1947  -10.6596    2.3120 O   0  0  0  0  0  0  0  0  0  0  0  0
   -0.4493   -8.7807    3.6389 C   0  0  0  0  0  0  0  0  0  0  0  0
    0.0796   -7.5529    4.3855 C   0  0  0  0  0  0  0  0  0  0  0  0
    1.2410   -7.8798    5.3872 C   0  0  1  0  0  0  0  0  0  0  0  0
    0.6160   -8.7310    6.5275 C   0  0  0  0  0  0  0  0  0  0  0  0
    1.8349   -6.5856    6.0827 C   0  0  1  0  0  0  0  0  0  0  0  0
    2.6428   -6.9253    7.3827 C   0  0  0  0  0  0  0  0  0  0  0  0
    2.9762   -5.6801    8.1856 C   0  0  0  0  0  0  0  0  0  0  0  0
    3.9801   -3.4204    9.2078 H   0  0  0  0  0  0  0  0  0  0  0  0
    2.5517   -2.9806    8.2870 H   0  0  0  0  0  0  0  0  0  0  0  0
    4.1426   -2.4723    7.7603 H   0  0  0  0  0  0  0  0  0  0  0  0
    5.8016   -4.5673    8.0489 H   0  0  0  0  0  0  0  0  0  0  0  0
    5.4134   -5.9316    7.0527 H   0  0  0  0  0  0  0  0  0  0  0  0
    6.2784   -3.2499    6.1729 H   0  0  0  0  0  0  0  0  0  0  0  0
    6.1712   -4.7467    5.2437 H   0  0  0  0  0  0  0  0  0  0  0  0
    4.1759   -2.5169    5.6066 H   0  0  0  0  0  0  0  0  0  0  0  0
    5.0341   -4.2276    3.2502 H   0  0  0  0  0  0  0  0  0  0  0  0
    2.4461   -2.0832   -1.0463 H   0  0  0  0  0  0  0  0  0  0  0  0
    3.5974   -3.3788   -0.8294 H   0  0  0  0  0  0  0  0  0  0  0  0
    2.3286   -0.9524    2.2185 H   0  0  0  0  0  0  0  0  0  0  0  0
    1.5110   -1.0213    0.6560 H   0  0  0  0  0  0  0  0  0  0  0  0
    2.3053   -3.7558    6.0512 H   0  0  0  0  0  0  0  0  0  0  0  0
    1.8109   -5.5911    3.1014 H   0  0  0  0  0  0  0  0  0  0  0  0
    1.9259   -4.0008    3.8209 H   0  0  0  0  0  0  0  0  0  0  0  0
    0.6960   -5.0441    4.3938 H   0  0  0  0  0  0  0  0  0  0  0  0
    4.4130   -5.9871    3.7887 H   0  0  0  0  0  0  0  0  0  0  0  0
    4.5020   -6.8957    5.2635 H   0  0  0  0  0  0  0  0  0  0  0  0
    2.6913   -7.4034    2.8646 H   0  0  0  0  0  0  0  0  0  0  0  0
    4.1270   -8.2519    3.3295 H   0  0  0  0  0  0  0  0  0  0  0  0
    3.1149   -9.0085    5.3863 H   0  0  0  0  0  0  0  0  0  0  0  0
    2.7681  -11.5410    2.6875 H   0  0  0  0  0  0  0  0  0  0  0  0
    3.9268  -10.6531    3.6572 H   0  0  0  0  0  0  0  0  0  0  0  0
    3.2961   -9.9732    2.1519 H   0  0  0  0  0  0  0  0  0  0  0  0
    1.5406  -12.0288    4.4129 H   0  0  0  0  0  0  0  0  0  0  0  0
    0.3925  -10.9403    5.1168 H   0  0  0  0  0  0  0  0  0  0  0  0
    2.0371  -11.0148    5.7392 H   0  0  0  0  0  0  0  0  0  0  0  0
    1.0918   -8.8642    2.1088 H   0  0  0  0  0  0  0  0  0  0  0  0
   -0.0262  -10.4587    1.4137 H   0  0  0  0  0  0  0  0  0  0  0  0
   -1.1922   -8.4446    2.9107 H   0  0  0  0  0  0  0  0  0  0  0  0
   -0.9705   -9.4635    4.3140 H   0  0  0  0  0  0  0  0  0  0  0  0
    0.3752   -6.9045    3.5624 H   0  0  0  0  0  0  0  0  0  0  0  0
   -0.7227   -7.0464    4.9247 H   0  0  0  0  0  0  0  0  0  0  0  0
    0.1638   -8.0912    7.2857 H   0  0  0  0  0  0  0  0  0  0  0  0
    1.3882   -9.3278    7.0106 H   0  0  0  0  0  0  0  0  0  0  0  0
   -0.1614   -9.4054    6.1969 H   0  0  0  0  0  0  0  0  0  0  0  0
    0.9721   -6.0092    6.4355 H   0  0  0  0  0  0  0  0  0  0  0  0
    2.0836   -7.5349    8.0959 H   0  0  0  0  0  0  0  0  0  0  0  0
    3.5374   -7.5051    7.1627 H   0  0  0  0  0  0  0  0  0  0  0  0
    3.5353   -5.9696    9.0760 H   0  0  0  0  0  0  0  0  0  0  0  0
    2.0300   -5.2839    8.5644 H   0  0  0  0  0  0  0  0  0  0  0  0
    4.3460   -3.7595    1.5120 H   0  0  0  0  0  0  0  0  0  0  0  0
  2  1  1  1
  1 30  1  0
  1 31  1  0
  1 32  1  0
  2 12  1  0
  2 29  1  0
  2  3  1  0
  3  4  1  0
  3 33  1  0
  3 34  1  0
  4  5  1  0
  4 35  1  0
  4 36  1  0
  5  6  1  0
  5 12  1  0
  5 37  1  1
  6  7  2  3
  6 38  1  0
  7  8  1  0
  8  9  1  0
  8 72  1  0
  9 10  1  0
  9 11  2  0
 10 39  1  0
 10 40  1  0
 11 41  1  0
 11 42  1  0
 12 13  1  0
 12 43  1  1
 13 27  1  0
 13 14  1  6
 13 15  1  0
 14 44  1  0
 14 45  1  0
 14 46  1  0
 15 16  1  0
 15 47  1  0
 15 48  1  0
 16 17  1  0
 16 49  1  0
 16 50  1  0
 17 25  1  0
 17 18  1  0
 17 51  1  1
 18 19  1  0
 18 20  1  0
 18 21  1  0
 19 52  1  0
 19 53  1  0
 19 54  1  0
 20 55  1  0
 20 56  1  0
 20 57  1  0
 21 22  1  0
 21 23  1  0
 21 58  1  6
 22 59  1  0
 23 24  1  0
 23 60  1  0
 23 61  1  0
 24 25  1  0
 24 62  1  0
 24 63  1  0
 25 26  1  1
 25 27  1  0
 26 64  1  0
 26 65  1  0
 26 66  1  0
 27 28  1  0
 27 67  1  1
 28 29  1  0
 28 68  1  0
 28 69  1  0
 29 70  1  0
 29 71  1  0
M  CHG  1  11   1
M  END
>  <i_m_ct_stereo_status>  (198) 
1

>  <s_m_source_file>  (198) 
/var/tmp/pbs.5076255.sched01/tmpguyree9i/45_f3p7e6s.sdf

>  <i_m_source_file_index>  (198) 
38

>  <i_lp_mmshare_version>  (198) 
48012

>  <i_f3d_flags>  (198) 
0

>  <s_epik_input>  (198) 
W05IMl1DKFtOSDJdKT1OXE49W0NIXVxbQ0BIXShbQ0gyXVtDSDJdMSlbQ0BIXShbQ0BdMTJbQ0gzXSlbQ0BdMyhbQ0gzXSlbQ0BIXShbQ0gyXVtDSDJdMilbQ0BdNChbQ0gzXSlbQ0BIXShbQ0gyXVtDSDJdMylDKFtDSDNdKShbQ0gzXSlbQ0BASF0oW09IXSlbQ0gyXVtDSDJdNA==

>  <s_epik_cmdline>  (198) 
J2VwaWtfcHl0aG9uJywgJy1waHQnLCAnMi4wJywgJy1waCcsICc3LjAnLCAnLXRuJywgJzgnLCAnLW1hJywgJzIwMCcsICctaW1hZScsICc8aW5maWxlLm1hZT4nLCAnLW9tYWUnLCAnPG91dGZpbGUubWFlPic=

>  <r_epik_Ionization_Penalty>  (198) 
0.354731

>  <r_epik_Ionization_Penalty_Charging>  (198) 
0.354718

>  <r_epik_Ionization_Penalty_Neutral>  (198) 
1.26159e-05

>  <r_epik_State_Penalty>  (198) 
0.350801

>  <r_epik_Charging_Adjusted_Penalty>  (198) 
0.705519

>  <i_epik_Tot_Q>  (198) 
1

>  <i_epik_Tot_abs_Q>  (198) 
1

>  <s_epik_Chemistry_Notes>  (198) 
This compound has an imine and may undergo hydrolysis.

>  <s_lp_Force_Field>  (198) 
OPLS3e

>  <r_lp_Energy>  (198) 
89.497

>  <b_lp_Chiralities_Consistent>  (198) 
1

>  <s_lp_Variant>  (198) 
57:0-1

>  <s_i_glide_gridfile>  (198) 
pfpi4k_grid

>  <i_i_glide_lignum>  (198) 
38

>  <i_i_glide_rotatable_bonds>  (198) 
4

>  <r_i_docking_score>  (198) 
-3.27198

>  <r_i_glide_ligand_efficiency>  (198) 
-0.112827

>  <r_i_glide_ligand_efficiency_sa>  (198) 
-0.34664

>  <r_i_glide_ligand_efficiency_ln>  (198) 
-0.7492

>  <r_i_glide_gscore>  (198) 
-3.27198

>  <r_i_glide_lipo>  (198) 
-0.00818491

>  <r_i_glide_hbond>  (198) 
-0.655685

>  <r_i_glide_metal>  (198) 
-0

>  <r_i_glide_rewards>  (198) 
-0.67232

>  <r_i_glide_evdw>  (198) 
-17.9767

>  <r_i_glide_ecoul>  (198) 
-8.40276

>  <r_i_glide_erotb>  (198) 
0.361579

>  <r_i_glide_esite>  (198) 
-0.138122

>  <r_i_glide_emodel>  (198) 
-32.4643

>  <r_i_glide_energy>  (198) 
-26.3794

>  <r_i_glide_einternal>  (198) 
2.37375

>  <r_i_glide_intrahb_reward>  (198) 
-0

>  <i_i_glide_confnum>  (198) 
4

>  <i_i_glide_posenum>  (198) 
11

>  <r_i_glide_eff_state_penalty>  (198) 
0

>  <ligand_id>  (198) 
57

>  <original_smiles>  (198) 
CC12CCC(C=NN=C(N)N)C1C1(C)CCC3C(C)(C)C(O)CCC3(C)C1CC2

>  <smiles>  (198) 
[H]OC1([H])C([H])([H])C([H])([H])C2(C([H])([H])[H])C([H])(C([H])([H])C([H])([H])C3(C([H])([H])[H])C4([H])C([H])(C([H])=NN([H])C(N([H])[H])=[N+]([H])[H])C([H])([H])C([H])([H])C4(C([H])([H])[H])C([H])([H])C([H])([H])C32[H])C1(C([H])([H])[H])C([H])([H])[H]

$$$$
57:1:0
     RDKit          3D

 72 75  0  0  1  0  0  0  0  0999 V2000
    6.8008   -9.5758    2.9478 C   0  0  0  0  0  0  0  0  0  0  0  0
    6.5965   -8.0532    3.1143 C   0  0  2  0  0  0  0  0  0  0  0  0
    7.0885   -7.6643    4.5121 C   0  0  0  0  0  0  0  0  0  0  0  0
    5.8734   -7.8939    5.4430 C   0  0  0  0  0  0  0  0  0  0  0  0
    4.6454   -8.2254    4.5589 C   0  0  1  0  0  0  0  0  0  0  0  0
    3.3459   -7.6517    5.1678 C   0  0  0  0  0  0  0  0  0  0  0  0
    2.1331   -8.1054    5.2289 N   0  0  0  0  0  0  0  0  0  0  0  0
    2.1127   -9.3561    4.6961 N   0  0  0  0  0  0  0  0  0  0  0  0
    0.9411  -10.0569    4.7791 C   0  0  0  0  0  0  0  0  0  0  0  0
   -0.1378   -9.4749    5.2308 N   0  0  0  0  0  0  0  0  0  0  0  0
    0.9302  -11.3434    4.4288 N   0  0  0  0  0  0  0  0  0  0  0  0
    5.0742   -7.7198    3.1562 C   0  0  1  0  0  0  0  0  0  0  0  0
    4.6448   -6.2603    2.7339 C   0  0  1  0  0  0  0  0  0  0  0  0
    3.1345   -6.4360    2.3460 C   0  0  0  0  0  0  0  0  0  0  0  0
    4.8695   -5.1385    3.8057 C   0  0  0  0  0  0  0  0  0  0  0  0
    4.3758   -3.7797    3.3564 C   0  0  0  0  0  0  0  0  0  0  0  0
    5.1307   -3.3001    2.0949 C   0  0  2  0  0  0  0  0  0  0  0  0
    4.7106   -1.8489    1.6401 C   0  0  0  0  0  0  0  0  0  0  0  0
    4.6617   -0.9211    2.8707 C   0  0  0  0  0  0  0  0  0  0  0  0
    5.7680   -1.2127    0.7038 C   0  0  0  0  0  0  0  0  0  0  0  0
    3.2956   -1.9203    0.9613 C   0  0  1  0  0  0  0  0  0  0  0  0
    2.9925   -0.6519    0.4929 O   0  0  0  0  0  0  0  0  0  0  0  0
    3.2348   -2.9149   -0.2208 C   0  0  0  0  0  0  0  0  0  0  0  0
    3.6569   -4.3118    0.2273 C   0  0  0  0  0  0  0  0  0  0  0  0
    5.0664   -4.3464    0.9122 C   0  0  1  0  0  0  0  0  0  0  0  0
    6.1016   -4.0165   -0.1755 C   0  0  0  0  0  0  0  0  0  0  0  0
    5.4486   -5.7945    1.4554 C   0  0  1  0  0  0  0  0  0  0  0  0
    6.9934   -5.9537    1.6940 C   0  0  0  0  0  0  0  0  0  0  0  0
    7.3822   -7.3971    1.9539 C   0  0  0  0  0  0  0  0  0  0  0  0
    7.8557   -9.8355    2.9539 H   0  0  0  0  0  0  0  0  0  0  0  0
    6.3611   -9.9376    2.0192 H   0  0  0  0  0  0  0  0  0  0  0  0
    6.3616  -10.1398    3.7601 H   0  0  0  0  0  0  0  0  0  0  0  0
    7.9537   -8.2571    4.8151 H   0  0  0  0  0  0  0  0  0  0  0  0
    7.4227   -6.6289    4.5520 H   0  0  0  0  0  0  0  0  0  0  0  0
    6.0719   -8.7291    6.1217 H   0  0  0  0  0  0  0  0  0  0  0  0
    5.7333   -7.0041    6.0560 H   0  0  0  0  0  0  0  0  0  0  0  0
    4.5831   -9.2971    4.4965 H   0  0  0  0  0  0  0  0  0  0  0  0
    3.4124   -6.6997    5.6704 H   0  0  0  0  0  0  0  0  0  0  0  0
   -1.0363  -10.0066    5.2684 H   0  0  0  0  0  0  0  0  0  0  0  0
   -0.1809   -8.4848    5.4687 H   0  0  0  0  0  0  0  0  0  0  0  0
    1.6836  -11.7499    3.9244 H   0  0  0  0  0  0  0  0  0  0  0  0
    0.1661  -11.9112    4.7836 H   0  0  0  0  0  0  0  0  0  0  0  0
    4.6383   -8.3681    2.3869 H   0  0  0  0  0  0  0  0  0  0  0  0
    2.5283   -5.5799    2.6342 H   0  0  0  0  0  0  0  0  0  0  0  0
    2.6299   -7.2748    2.7921 H   0  0  0  0  0  0  0  0  0  0  0  0
    3.0240   -6.6601    1.2730 H   0  0  0  0  0  0  0  0  0  0  0  0
    4.3095   -5.2518    4.7082 H   0  0  0  0  0  0  0  0  0  0  0  0
    5.9051   -5.0757    4.1244 H   0  0  0  0  0  0  0  0  0  0  0  0
    3.3029   -3.7392    3.1852 H   0  0  0  0  0  0  0  0  0  0  0  0
    4.5210   -3.1018    4.2000 H   0  0  0  0  0  0  0  0  0  0  0  0
    6.1656   -3.2469    2.4430 H   0  0  0  0  0  0  0  0  0  0  0  0
    4.5996    0.1194    2.5523 H   0  0  0  0  0  0  0  0  0  0  0  0
    5.5718   -1.0314    3.4655 H   0  0  0  0  0  0  0  0  0  0  0  0
    3.7971   -1.0987    3.5147 H   0  0  0  0  0  0  0  0  0  0  0  0
    5.7718   -0.1374    0.7519 H   0  0  0  0  0  0  0  0  0  0  0  0
    5.5612   -1.4279   -0.3317 H   0  0  0  0  0  0  0  0  0  0  0  0
    6.7591   -1.5628    0.9675 H   0  0  0  0  0  0  0  0  0  0  0  0
    2.5304   -2.1926    1.6933 H   0  0  0  0  0  0  0  0  0  0  0  0
    2.1117   -0.6747    0.0403 H   0  0  0  0  0  0  0  0  0  0  0  0
    2.2181   -2.9826   -0.6142 H   0  0  0  0  0  0  0  0  0  0  0  0
    3.8332   -2.5728   -1.0701 H   0  0  0  0  0  0  0  0  0  0  0  0
    2.8289   -4.5488    0.8659 H   0  0  0  0  0  0  0  0  0  0  0  0
    3.6487   -5.0308   -0.5954 H   0  0  0  0  0  0  0  0  0  0  0  0
    6.3088   -4.9409   -0.6808 H   0  0  0  0  0  0  0  0  0  0  0  0
    7.0220   -3.6468    0.2560 H   0  0  0  0  0  0  0  0  0  0  0  0
    5.7624   -3.3637   -0.9530 H   0  0  0  0  0  0  0  0  0  0  0  0
    5.2193   -6.4949    0.6346 H   0  0  0  0  0  0  0  0  0  0  0  0
    7.6032   -5.6933    0.8315 H   0  0  0  0  0  0  0  0  0  0  0  0
    7.3397   -5.2959    2.4862 H   0  0  0  0  0  0  0  0  0  0  0  0
    8.4643   -7.4481    2.1144 H   0  0  0  0  0  0  0  0  0  0  0  0
    7.2103   -7.9446    1.0229 H   0  0  0  0  0  0  0  0  0  0  0  0
    2.9571   -9.7884    4.4052 H   0  0  0  0  0  0  0  0  0  0  0  0
  2  1  1  6
  1 30  1  0
  1 31  1  0
  1 32  1  0
  2 12  1  0
  2 29  1  0
  2  3  1  0
  3  4  1  0
  3 33  1  0
  3 34  1  0
  4  5  1  0
  4 35  1  0
  4 36  1  0
  5  6  1  0
  5 12  1  0
  5 37  1  6
  6  7  2  3
  6 38  1  0
  7  8  1  0
  8  9  1  0
  8 72  1  0
  9 10  1  0
  9 11  2  0
 10 39  1  0
 10 40  1  0
 11 41  1  0
 11 42  1  0
 12 13  1  0
 12 43  1  6
 13 27  1  0
 13 14  1  6
 13 15  1  0
 14 44  1  0
 14 45  1  0
 14 46  1  0
 15 16  1  0
 15 47  1  0
 15 48  1  0
 16 17  1  0
 16 49  1  0
 16 50  1  0
 17 25  1  0
 17 18  1  0
 17 51  1  1
 18 19  1  0
 18 20  1  0
 18 21  1  0
 19 52  1  0
 19 53  1  0
 19 54  1  0
 20 55  1  0
 20 56  1  0
 20 57  1  0
 21 22  1  0
 21 23  1  0
 21 58  1  1
 22 59  1  0
 23 24  1  0
 23 60  1  0
 23 61  1  0
 24 25  1  0
 24 62  1  0
 24 63  1  0
 25 26  1  6
 25 27  1  0
 26 64  1  0
 26 65  1  0
 26 66  1  0
 27 28  1  0
 27 67  1  6
 28 29  1  0
 28 68  1  0
 28 69  1  0
 29 70  1  0
 29 71  1  0
M  CHG  1  11   1
M  END
>  <i_m_ct_stereo_status>  (199) 
1

>  <s_m_source_file>  (199) 
/var/tmp/pbs.5076255.sched01/tmpguyree9i/45_f3p7e6s.sdf

>  <i_m_source_file_index>  (199) 
39

>  <i_lp_mmshare_version>  (199) 
48012

>  <i_f3d_flags>  (199) 
0

>  <s_epik_input>  (199) 
W05IMl1DKFtOSDJdKT1OXE49W0NIXVxbQ0BIXShbQ0gyXVtDSDJdMSlbQ0BIXShbQ0BdMTJbQ0gzXSlbQ0BdMyhbQ0gzXSlbQ0BIXShbQ0gyXVtDSDJdMilbQ0BdNChbQ0gzXSlbQ0BIXShbQ0gyXVtDSDJdMylDKFtDSDNdKShbQ0gzXSlbQ0BASF0oW09IXSlbQ0gyXVtDSDJdNA==

>  <s_epik_cmdline>  (199) 
J2VwaWtfcHl0aG9uJywgJy1waHQnLCAnMi4wJywgJy1waCcsICc3LjAnLCAnLXRuJywgJzgnLCAnLW1hJywgJzIwMCcsICctaW1hZScsICc8aW5maWxlLm1hZT4nLCAnLW9tYWUnLCAnPG91dGZpbGUubWFlPic=

>  <r_epik_Ionization_Penalty>  (199) 
0.354731

>  <r_epik_Ionization_Penalty_Charging>  (199) 
0.354718

>  <r_epik_Ionization_Penalty_Neutral>  (199) 
1.26159e-05

>  <r_epik_State_Penalty>  (199) 
0.350801

>  <r_epik_Charging_Adjusted_Penalty>  (199) 
0.705519

>  <i_epik_Tot_Q>  (199) 
1

>  <i_epik_Tot_abs_Q>  (199) 
1

>  <s_epik_Chemistry_Notes>  (199) 
This compound has an imine and may undergo hydrolysis.

>  <s_lp_Force_Field>  (199) 
OPLS3e

>  <r_lp_Energy>  (199) 
90.6693

>  <b_lp_Chiralities_Consistent>  (199) 
1

>  <s_lp_Variant>  (199) 
57:0-2

>  <s_i_glide_gridfile>  (199) 
pfpi4k_grid

>  <i_i_glide_lignum>  (199) 
39

>  <i_i_glide_rotatable_bonds>  (199) 
4

>  <r_i_docking_score>  (199) 
-3.67443

>  <r_i_glide_ligand_efficiency>  (199) 
-0.126704

>  <r_i_glide_ligand_efficiency_sa>  (199) 
-0.389276

>  <r_i_glide_ligand_efficiency_ln>  (199) 
-0.841351

>  <r_i_glide_gscore>  (199) 
-3.67443

>  <r_i_glide_lipo>  (199) 
-0.5776

>  <r_i_glide_hbond>  (199) 
-0.36

>  <r_i_glide_metal>  (199) 
-0

>  <r_i_glide_rewards>  (199) 
-0.657106

>  <r_i_glide_evdw>  (199) 
-20.0129

>  <r_i_glide_ecoul>  (199) 
-8.87076

>  <r_i_glide_erotb>  (199) 
0.361579

>  <r_i_glide_esite>  (199) 
-0.110039

>  <r_i_glide_emodel>  (199) 
-36.8815

>  <r_i_glide_energy>  (199) 
-28.8837

>  <r_i_glide_einternal>  (199) 
0.947893

>  <r_i_glide_intrahb_reward>  (199) 
-0

>  <i_i_glide_confnum>  (199) 
2

>  <i_i_glide_posenum>  (199) 
1

>  <r_i_glide_eff_state_penalty>  (199) 
0

>  <ligand_id>  (199) 
57

>  <original_smiles>  (199) 
CC12CCC(C=NN=C(N)N)C1C1(C)CCC3C(C)(C)C(O)CCC3(C)C1CC2

>  <smiles>  (199) 
[H]OC1([H])C([H])([H])C([H])([H])C2(C([H])([H])[H])C([H])(C([H])([H])C([H])([H])C3(C([H])([H])[H])C4([H])C([H])(C([H])=NN([H])C(N([H])[H])=[N+]([H])[H])C([H])([H])C([H])([H])C4(C([H])([H])[H])C([H])([H])C([H])([H])C32[H])C1(C([H])([H])[H])C([H])([H])[H]

$$$$
57:1:1
     RDKit          3D

 72 75  0  0  1  0  0  0  0  0999 V2000
    6.8570   -9.3514    3.0423 C   0  0  0  0  0  0  0  0  0  0  0  0
    6.5357   -7.8397    3.0519 C   0  0  2  0  0  0  0  0  0  0  0  0
    6.3003   -7.4152    4.5029 C   0  0  0  0  0  0  0  0  0  0  0  0
    4.7923   -7.6877    4.7642 C   0  0  0  0  0  0  0  0  0  0  0  0
    4.1115   -8.0608    3.4001 C   0  0  1  0  0  0  0  0  0  0  0  0
    2.6882   -7.5485    3.2247 C   0  0  0  0  0  0  0  0  0  0  0  0
    1.5447   -8.0822    3.3415 N   0  0  0  0  0  0  0  0  0  0  0  0
    1.6913   -9.4335    3.5836 N   0  0  0  0  0  0  0  0  0  0  0  0
    0.5712  -10.0882    3.9935 C   0  0  0  0  0  0  0  0  0  0  0  0
   -0.6125   -9.4566    4.0544 N   0  0  0  0  0  0  0  0  0  0  0  0
    0.7236  -11.3462    4.3471 N   0  0  0  0  0  0  0  0  0  0  0  0
    5.1636   -7.5755    2.3685 C   0  0  1  0  0  0  0  0  0  0  0  0
    4.9231   -6.1361    1.7669 C   0  0  1  0  0  0  0  0  0  0  0  0
    3.7864   -6.3884    0.6863 C   0  0  0  0  0  0  0  0  0  0  0  0
    4.5770   -5.0023    2.8129 C   0  0  0  0  0  0  0  0  0  0  0  0
    4.3063   -3.6628    2.1024 C   0  0  0  0  0  0  0  0  0  0  0  0
    5.5637   -3.1583    1.3192 C   0  0  2  0  0  0  0  0  0  0  0  0
    5.3357   -1.7440    0.6783 C   0  0  0  0  0  0  0  0  0  0  0  0
    4.6857   -0.7995    1.7174 C   0  0  0  0  0  0  0  0  0  0  0  0
    6.6866   -1.0737    0.3310 C   0  0  0  0  0  0  0  0  0  0  0  0
    4.4161   -1.8766   -0.5855 C   0  0  1  0  0  0  0  0  0  0  0  0
    4.3915   -0.6365   -1.2447 O   0  0  0  0  0  0  0  0  0  0  0  0
    4.9601   -2.8765   -1.6317 C   0  0  0  0  0  0  0  0  0  0  0  0
    5.1457   -4.2495   -0.9717 C   0  0  0  0  0  0  0  0  0  0  0  0
    6.0983   -4.2207    0.2853 C   0  0  1  0  0  0  0  0  0  0  0  0
    7.5433   -3.8638   -0.2321 C   0  0  0  0  0  0  0  0  0  0  0  0
    6.2216   -5.6438    0.9898 C   0  0  1  0  0  0  0  0  0  0  0  0
    7.4744   -5.7423    1.9250 C   0  0  0  0  0  0  0  0  0  0  0  0
    7.7490   -7.1670    2.3714 C   0  0  0  0  0  0  0  0  0  0  0  0
    7.8012   -9.5677    3.5514 H   0  0  0  0  0  0  0  0  0  0  0  0
    6.9152   -9.7419    2.0198 H   0  0  0  0  0  0  0  0  0  0  0  0
    6.1053   -9.9378    3.5682 H   0  0  0  0  0  0  0  0  0  0  0  0
    6.9392   -7.9650    5.1938 H   0  0  0  0  0  0  0  0  0  0  0  0
    6.5401   -6.3652    4.6632 H   0  0  0  0  0  0  0  0  0  0  0  0
    4.6817   -8.5103    5.4832 H   0  0  0  0  0  0  0  0  0  0  0  0
    4.3494   -6.7968    5.2085 H   0  0  0  0  0  0  0  0  0  0  0  0
    4.1629   -9.1703    3.3379 H   0  0  0  0  0  0  0  0  0  0  0  0
    2.5883   -6.4871    2.9591 H   0  0  0  0  0  0  0  0  0  0  0  0
   -1.3983  -10.0342    4.4370 H   0  0  0  0  0  0  0  0  0  0  0  0
   -0.6948   -8.5148    3.7595 H   0  0  0  0  0  0  0  0  0  0  0  0
    1.5523  -11.8769    4.1130 H   0  0  0  0  0  0  0  0  0  0  0  0
    0.0098  -11.7217    4.9381 H   0  0  0  0  0  0  0  0  0  0  0  0
    5.1625   -8.2414    1.5039 H   0  0  0  0  0  0  0  0  0  0  0  0
    3.0877   -5.5316    0.6301 H   0  0  0  0  0  0  0  0  0  0  0  0
    3.1550   -7.2682    0.8519 H   0  0  0  0  0  0  0  0  0  0  0  0
    4.2156   -6.6209   -0.3176 H   0  0  0  0  0  0  0  0  0  0  0  0
    3.7050   -5.1538    3.4045 H   0  0  0  0  0  0  0  0  0  0  0  0
    5.4082   -4.8637    3.5172 H   0  0  0  0  0  0  0  0  0  0  0  0
    3.4369   -3.6910    1.4378 H   0  0  0  0  0  0  0  0  0  0  0  0
    4.0154   -2.9652    2.8976 H   0  0  0  0  0  0  0  0  0  0  0  0
    6.2988   -3.0661    2.1185 H   0  0  0  0  0  0  0  0  0  0  0  0
    4.7459    0.2356    1.3781 H   0  0  0  0  0  0  0  0  0  0  0  0
    5.2161   -0.8662    2.6741 H   0  0  0  0  0  0  0  0  0  0  0  0
    3.6233   -1.0130    1.8838 H   0  0  0  0  0  0  0  0  0  0  0  0
    6.6192    0.0211    0.3552 H   0  0  0  0  0  0  0  0  0  0  0  0
    7.0004   -1.3726   -0.6572 H   0  0  0  0  0  0  0  0  0  0  0  0
    7.4607   -1.3669    1.0569 H   0  0  0  0  0  0  0  0  0  0  0  0
    3.3967   -2.1797   -0.2869 H   0  0  0  0  0  0  0  0  0  0  0  0
    4.5088    0.0005   -0.5665 H   0  0  0  0  0  0  0  0  0  0  0  0
    4.2391   -3.0053   -2.4507 H   0  0  0  0  0  0  0  0  0  0  0  0
    5.8861   -2.5256   -2.1016 H   0  0  0  0  0  0  0  0  0  0  0  0
    4.1160   -4.5176   -0.7871 H   0  0  0  0  0  0  0  0  0  0  0  0
    5.5099   -4.9803   -1.6969 H   0  0  0  0  0  0  0  0  0  0  0  0
    8.1030   -4.7588   -0.5476 H   0  0  0  0  0  0  0  0  0  0  0  0
    8.1155   -3.4302    0.6082 H   0  0  0  0  0  0  0  0  0  0  0  0
    7.5444   -3.1934   -1.0792 H   0  0  0  0  0  0  0  0  0  0  0  0
    6.4259   -6.3465    0.1677 H   0  0  0  0  0  0  0  0  0  0  0  0
    8.4206   -5.4730    1.4531 H   0  0  0  0  0  0  0  0  0  0  0  0
    7.3863   -5.0565    2.7663 H   0  0  0  0  0  0  0  0  0  0  0  0
    8.6317   -7.1569    3.0206 H   0  0  0  0  0  0  0  0  0  0  0  0
    8.0629   -7.7228    1.4792 H   0  0  0  0  0  0  0  0  0  0  0  0
    2.6179   -9.7923    3.5076 H   0  0  0  0  0  0  0  0  0  0  0  0
  2  1  1  1
  1 30  1  0
  1 31  1  0
  1 32  1  0
  2 12  1  0
  2 29  1  0
  2  3  1  0
  3  4  1  0
  3 33  1  0
  3 34  1  0
  4  5  1  0
  4 35  1  0
  4 36  1  0
  5  6  1  0
  5 12  1  0
  5 37  1  1
  6  7  2  3
  6 38  1  0
  7  8  1  0
  8  9  1  0
  8 72  1  0
  9 10  1  0
  9 11  2  0
 10 39  1  0
 10 40  1  0
 11 41  1  0
 11 42  1  0
 12 13  1  0
 12 43  1  6
 13 27  1  0
 13 14  1  6
 13 15  1  0
 14 44  1  0
 14 45  1  0
 14 46  1  0
 15 16  1  0
 15 47  1  0
 15 48  1  0
 16 17  1  0
 16 49  1  0
 16 50  1  0
 17 25  1  0
 17 18  1  0
 17 51  1  1
 18 19  1  0
 18 20  1  0
 18 21  1  0
 19 52  1  0
 19 53  1  0
 19 54  1  0
 20 55  1  0
 20 56  1  0
 20 57  1  0
 21 22  1  0
 21 23  1  0
 21 58  1  1
 22 59  1  0
 23 24  1  0
 23 60  1  0
 23 61  1  0
 24 25  1  0
 24 62  1  0
 24 63  1  0
 25 26  1  6
 25 27  1  0
 26 64  1  0
 26 65  1  0
 26 66  1  0
 27 28  1  0
 27 67  1  6
 28 29  1  0
 28 68  1  0
 28 69  1  0
 29 70  1  0
 29 71  1  0
M  CHG  1  11   1
M  END
>  <i_m_ct_stereo_status>  (200) 
1

>  <s_m_source_file>  (200) 
/var/tmp/pbs.5076255.sched01/tmpguyree9i/45_f3p7e6s.sdf

>  <i_m_source_file_index>  (200) 
39

>  <i_lp_mmshare_version>  (200) 
48012

>  <i_f3d_flags>  (200) 
0

>  <s_epik_input>  (200) 
W05IMl1DKFtOSDJdKT1OXE49W0NIXVxbQ0BIXShbQ0gyXVtDSDJdMSlbQ0BIXShbQ0BdMTJbQ0gzXSlbQ0BdMyhbQ0gzXSlbQ0BIXShbQ0gyXVtDSDJdMilbQ0BdNChbQ0gzXSlbQ0BIXShbQ0gyXVtDSDJdMylDKFtDSDNdKShbQ0gzXSlbQ0BASF0oW09IXSlbQ0gyXVtDSDJdNA==

>  <s_epik_cmdline>  (200) 
J2VwaWtfcHl0aG9uJywgJy1waHQnLCAnMi4wJywgJy1waCcsICc3LjAnLCAnLXRuJywgJzgnLCAnLW1hJywgJzIwMCcsICctaW1hZScsICc8aW5maWxlLm1hZT4nLCAnLW9tYWUnLCAnPG91dGZpbGUubWFlPic=

>  <r_epik_Ionization_Penalty>  (200) 
0.354731

>  <r_epik_Ionization_Penalty_Charging>  (200) 
0.354718

>  <r_epik_Ionization_Penalty_Neutral>  (200) 
1.26159e-05

>  <r_epik_State_Penalty>  (200) 
0.350801

>  <r_epik_Charging_Adjusted_Penalty>  (200) 
0.705519

>  <i_epik_Tot_Q>  (200) 
1

>  <i_epik_Tot_abs_Q>  (200) 
1

>  <s_epik_Chemistry_Notes>  (200) 
This compound has an imine and may undergo hydrolysis.

>  <s_lp_Force_Field>  (200) 
OPLS3e

>  <r_lp_Energy>  (200) 
90.6693

>  <b_lp_Chiralities_Consistent>  (200) 
1

>  <s_lp_Variant>  (200) 
57:0-2

>  <s_i_glide_gridfile>  (200) 
pfpi4k_grid

>  <i_i_glide_lignum>  (200) 
39

>  <i_i_glide_rotatable_bonds>  (200) 
4

>  <r_i_docking_score>  (200) 
-3.48224

>  <r_i_glide_ligand_efficiency>  (200) 
-0.120077

>  <r_i_glide_ligand_efficiency_sa>  (200) 
-0.368915

>  <r_i_glide_ligand_efficiency_ln>  (200) 
-0.797344

>  <r_i_glide_gscore>  (200) 
-3.48224

>  <r_i_glide_lipo>  (200) 
-0.788656

>  <r_i_glide_hbond>  (200) 
-0.250391

>  <r_i_glide_metal>  (200) 
-0

>  <r_i_glide_rewards>  (200) 
-0.657106

>  <r_i_glide_evdw>  (200) 
-21.7034

>  <r_i_glide_ecoul>  (200) 
-6.31711

>  <r_i_glide_erotb>  (200) 
0.361579

>  <r_i_glide_esite>  (200) 
-0.114929

>  <r_i_glide_emodel>  (200) 
-31.9607

>  <r_i_glide_energy>  (200) 
-28.0205

>  <r_i_glide_einternal>  (200) 
5.39348

>  <r_i_glide_intrahb_reward>  (200) 
-0

>  <i_i_glide_confnum>  (200) 
1

>  <i_i_glide_posenum>  (200) 
35

>  <r_i_glide_eff_state_penalty>  (200) 
0

>  <ligand_id>  (200) 
57

>  <original_smiles>  (200) 
CC12CCC(C=NN=C(N)N)C1C1(C)CCC3C(C)(C)C(O)CCC3(C)C1CC2

>  <smiles>  (200) 
[H]OC1([H])C([H])([H])C([H])([H])C2(C([H])([H])[H])C([H])(C([H])([H])C([H])([H])C3(C([H])([H])[H])C4([H])C([H])(C([H])=NN([H])C(N([H])[H])=[N+]([H])[H])C([H])([H])C([H])([H])C4(C([H])([H])[H])C([H])([H])C([H])([H])C32[H])C1(C([H])([H])[H])C([H])([H])[H]

$$$$
57:1:2
     RDKit          3D

 72 75  0  0  1  0  0  0  0  0999 V2000
    2.5421   -0.3587    2.2757 C   0  0  0  0  0  0  0  0  0  0  0  0
    3.3506   -1.6525    2.4961 C   0  0  2  0  0  0  0  0  0  0  0  0
    4.8215   -1.2560    2.6687 C   0  0  0  0  0  0  0  0  0  0  0  0
    5.3965   -1.1715    1.2312 C   0  0  0  0  0  0  0  0  0  0  0  0
    4.3195   -1.6976    0.2509 C   0  0  1  0  0  0  0  0  0  0  0  0
    4.9250   -2.4343   -0.9478 C   0  0  0  0  0  0  0  0  0  0  0  0
    4.7169   -2.4258   -2.2177 N   0  0  0  0  0  0  0  0  0  0  0  0
    3.9389   -1.3579   -2.5000 N   0  0  0  0  0  0  0  0  0  0  0  0
    3.2832   -1.3429   -3.6187 C   0  0  0  0  0  0  0  0  0  0  0  0
    3.0440   -2.4872   -4.3244 N   0  0  0  0  0  0  0  0  0  0  0  0
    2.8579   -0.1960   -4.1369 N   0  0  0  0  0  0  0  0  0  0  0  0
    3.3506   -2.5009    1.1884 C   0  0  1  0  0  0  0  0  0  0  0  0
    3.5980   -4.0450    1.3425 C   0  0  1  0  0  0  0  0  0  0  0  0
    3.0080   -4.6249    0.0143 C   0  0  0  0  0  0  0  0  0  0  0  0
    5.0728   -4.5049    1.6010 C   0  0  0  0  0  0  0  0  0  0  0  0
    5.2381   -6.0090    1.6241 C   0  0  0  0  0  0  0  0  0  0  0  0
    4.4358   -6.5961    2.7954 C   0  0  2  0  0  0  0  0  0  0  0  0
    4.6422   -8.1434    2.9469 C   0  0  0  0  0  0  0  0  0  0  0  0
    6.1444   -8.4795    2.8522 C   0  0  0  0  0  0  0  0  0  0  0  0
    4.2313   -8.6125    4.3616 C   0  0  0  0  0  0  0  0  0  0  0  0
    3.8446   -8.8894    1.8304 C   0  0  1  0  0  0  0  0  0  0  0  0
    3.9377  -10.2411    2.0856 O   0  0  0  0  0  0  0  0  0  0  0  0
    2.3481   -8.5198    1.8155 C   0  0  0  0  0  0  0  0  0  0  0  0
    2.1565   -7.0117    1.6833 C   0  0  0  0  0  0  0  0  0  0  0  0
    2.9175   -6.1782    2.7628 C   0  0  1  0  0  0  0  0  0  0  0  0
    2.2132   -6.4645    4.1104 C   0  0  0  0  0  0  0  0  0  0  0  0
    2.7756   -4.6176    2.5534 C   0  0  1  0  0  0  0  0  0  0  0  0
    3.0984   -3.8147    3.8514 C   0  0  0  0  0  0  0  0  0  0  0  0
    2.7203   -2.3532    3.7193 C   0  0  0  0  0  0  0  0  0  0  0  0
    2.5614    0.2682    3.1648 H   0  0  0  0  0  0  0  0  0  0  0  0
    1.5047   -0.5793    2.0162 H   0  0  0  0  0  0  0  0  0  0  0  0
    2.9562    0.2410    1.4723 H   0  0  0  0  0  0  0  0  0  0  0  0
    4.9198   -0.3050    3.1949 H   0  0  0  0  0  0  0  0  0  0  0  0
    5.3772   -1.9808    3.2615 H   0  0  0  0  0  0  0  0  0  0  0  0
    5.6310   -0.1364    0.9701 H   0  0  0  0  0  0  0  0  0  0  0  0
    6.3162   -1.7447    1.1830 H   0  0  0  0  0  0  0  0  0  0  0  0
    3.7425   -0.8578   -0.0969 H   0  0  0  0  0  0  0  0  0  0  0  0
    5.6067   -3.2746   -0.7362 H   0  0  0  0  0  0  0  0  0  0  0  0
    2.4766   -2.4544   -5.1622 H   0  0  0  0  0  0  0  0  0  0  0  0
    3.3311   -3.3901   -3.9290 H   0  0  0  0  0  0  0  0  0  0  0  0
    2.7579    0.6232   -3.5248 H   0  0  0  0  0  0  0  0  0  0  0  0
    2.5745   -0.1348   -5.0884 H   0  0  0  0  0  0  0  0  0  0  0  0
    2.3237   -2.4115    0.8012 H   0  0  0  0  0  0  0  0  0  0  0  0
    3.5787   -5.4617   -0.3630 H   0  0  0  0  0  0  0  0  0  0  0  0
    2.9838   -3.9728   -0.8224 H   0  0  0  0  0  0  0  0  0  0  0  0
    1.9535   -4.8869    0.1301 H   0  0  0  0  0  0  0  0  0  0  0  0
    5.8064   -4.2774    0.8083 H   0  0  0  0  0  0  0  0  0  0  0  0
    5.5265   -4.0170    2.4474 H   0  0  0  0  0  0  0  0  0  0  0  0
    4.9782   -6.5058    0.6918 H   0  0  0  0  0  0  0  0  0  0  0  0
    6.3085   -6.2010    1.6953 H   0  0  0  0  0  0  0  0  0  0  0  0
    4.8972   -6.1089    3.6562 H   0  0  0  0  0  0  0  0  0  0  0  0
    6.3090   -9.4980    3.1977 H   0  0  0  0  0  0  0  0  0  0  0  0
    6.7223   -7.8089    3.4915 H   0  0  0  0  0  0  0  0  0  0  0  0
    6.5254   -8.4231    1.8326 H   0  0  0  0  0  0  0  0  0  0  0  0
    4.7314   -9.5051    4.6733 H   0  0  0  0  0  0  0  0  0  0  0  0
    3.1878   -8.9234    4.4009 H   0  0  0  0  0  0  0  0  0  0  0  0
    4.4154   -7.8346    5.1002 H   0  0  0  0  0  0  0  0  0  0  0  0
    4.2731   -8.6838    0.8498 H   0  0  0  0  0  0  0  0  0  0  0  0
    3.8310  -10.7850    1.2901 H   0  0  0  0  0  0  0  0  0  0  0  0
    1.8274   -9.0160    0.9990 H   0  0  0  0  0  0  0  0  0  0  0  0
    1.8362   -8.8858    2.6994 H   0  0  0  0  0  0  0  0  0  0  0  0
    2.5015   -6.8891    0.6823 H   0  0  0  0  0  0  0  0  0  0  0  0
    1.1026   -6.7238    1.6862 H   0  0  0  0  0  0  0  0  0  0  0  0
    1.3283   -5.8757    4.2572 H   0  0  0  0  0  0  0  0  0  0  0  0
    2.9160   -6.3005    4.9306 H   0  0  0  0  0  0  0  0  0  0  0  0
    1.8151   -7.4644    4.1914 H   0  0  0  0  0  0  0  0  0  0  0  0
    1.7091   -4.4354    2.3579 H   0  0  0  0  0  0  0  0  0  0  0  0
    2.5317   -4.1485    4.7159 H   0  0  0  0  0  0  0  0  0  0  0  0
    4.1376   -3.9369    4.1412 H   0  0  0  0  0  0  0  0  0  0  0  0
    2.9735   -1.8327    4.6479 H   0  0  0  0  0  0  0  0  0  0  0  0
    1.6295   -2.3055    3.6514 H   0  0  0  0  0  0  0  0  0  0  0  0
    3.9760   -0.5607   -1.8485 H   0  0  0  0  0  0  0  0  0  0  0  0
  2  1  1  6
  1 30  1  0
  1 31  1  0
  1 32  1  0
  2 12  1  0
  2 29  1  0
  2  3  1  0
  3  4  1  0
  3 33  1  0
  3 34  1  0
  4  5  1  0
  4 35  1  0
  4 36  1  0
  5  6  1  0
  5 12  1  0
  5 37  1  6
  6  7  2  3
  6 38  1  0
  7  8  1  0
  8  9  1  0
  8 72  1  0
  9 10  1  0
  9 11  2  0
 10 39  1  0
 10 40  1  0
 11 41  1  0
 11 42  1  0
 12 13  1  0
 12 43  1  6
 13 27  1  0
 13 14  1  6
 13 15  1  0
 14 44  1  0
 14 45  1  0
 14 46  1  0
 15 16  1  0
 15 47  1  0
 15 48  1  0
 16 17  1  0
 16 49  1  0
 16 50  1  0
 17 25  1  0
 17 18  1  0
 17 51  1  1
 18 19  1  0
 18 20  1  0
 18 21  1  0
 19 52  1  0
 19 53  1  0
 19 54  1  0
 20 55  1  0
 20 56  1  0
 20 57  1  0
 21 22  1  0
 21 23  1  0
 21 58  1  6
 22 59  1  0
 23 24  1  0
 23 60  1  0
 23 61  1  0
 24 25  1  0
 24 62  1  0
 24 63  1  0
 25 26  1  1
 25 27  1  0
 26 64  1  0
 26 65  1  0
 26 66  1  0
 27 28  1  0
 27 67  1  6
 28 29  1  0
 28 68  1  0
 28 69  1  0
 29 70  1  0
 29 71  1  0
M  CHG  1  11   1
M  END
>  <i_m_ct_stereo_status>  (201) 
1

>  <s_m_source_file>  (201) 
/var/tmp/pbs.5076255.sched01/tmpguyree9i/45_f3p7e6s.sdf

>  <i_m_source_file_index>  (201) 
39

>  <i_lp_mmshare_version>  (201) 
48012

>  <i_f3d_flags>  (201) 
0

>  <s_epik_input>  (201) 
W05IMl1DKFtOSDJdKT1OXE49W0NIXVxbQ0BIXShbQ0gyXVtDSDJdMSlbQ0BIXShbQ0BdMTJbQ0gzXSlbQ0BdMyhbQ0gzXSlbQ0BIXShbQ0gyXVtDSDJdMilbQ0BdNChbQ0gzXSlbQ0BIXShbQ0gyXVtDSDJdMylDKFtDSDNdKShbQ0gzXSlbQ0BASF0oW09IXSlbQ0gyXVtDSDJdNA==

>  <s_epik_cmdline>  (201) 
J2VwaWtfcHl0aG9uJywgJy1waHQnLCAnMi4wJywgJy1waCcsICc3LjAnLCAnLXRuJywgJzgnLCAnLW1hJywgJzIwMCcsICctaW1hZScsICc8aW5maWxlLm1hZT4nLCAnLW9tYWUnLCAnPG91dGZpbGUubWFlPic=

>  <r_epik_Ionization_Penalty>  (201) 
0.354731

>  <r_epik_Ionization_Penalty_Charging>  (201) 
0.354718

>  <r_epik_Ionization_Penalty_Neutral>  (201) 
1.26159e-05

>  <r_epik_State_Penalty>  (201) 
0.350801

>  <r_epik_Charging_Adjusted_Penalty>  (201) 
0.705519

>  <i_epik_Tot_Q>  (201) 
1

>  <i_epik_Tot_abs_Q>  (201) 
1

>  <s_epik_Chemistry_Notes>  (201) 
This compound has an imine and may undergo hydrolysis.

>  <s_lp_Force_Field>  (201) 
OPLS3e

>  <r_lp_Energy>  (201) 
90.6693

>  <b_lp_Chiralities_Consistent>  (201) 
1

>  <s_lp_Variant>  (201) 
57:0-2

>  <s_i_glide_gridfile>  (201) 
pfpi4k_grid

>  <i_i_glide_lignum>  (201) 
39

>  <i_i_glide_rotatable_bonds>  (201) 
4

>  <r_i_docking_score>  (201) 
-3.36506

>  <r_i_glide_ligand_efficiency>  (201) 
-0.116037

>  <r_i_glide_ligand_efficiency_sa>  (201) 
-0.356501

>  <r_i_glide_ligand_efficiency_ln>  (201) 
-0.770514

>  <r_i_glide_gscore>  (201) 
-3.36506

>  <r_i_glide_lipo>  (201) 
-0.545407

>  <r_i_glide_hbond>  (201) 
-0.16

>  <r_i_glide_metal>  (201) 
-0

>  <r_i_glide_rewards>  (201) 
-0.657106

>  <r_i_glide_evdw>  (201) 
-26.1493

>  <r_i_glide_ecoul>  (201) 
-11.5046

>  <r_i_glide_erotb>  (201) 
0.361579

>  <r_i_glide_esite>  (201) 
-0.0890336

>  <r_i_glide_emodel>  (201) 
-40.3656

>  <r_i_glide_energy>  (201) 
-37.6539

>  <r_i_glide_einternal>  (201) 
5.68807

>  <r_i_glide_intrahb_reward>  (201) 
-0

>  <i_i_glide_confnum>  (201) 
1

>  <i_i_glide_posenum>  (201) 
7

>  <r_i_glide_eff_state_penalty>  (201) 
0

>  <ligand_id>  (201) 
57

>  <original_smiles>  (201) 
CC12CCC(C=NN=C(N)N)C1C1(C)CCC3C(C)(C)C(O)CCC3(C)C1CC2

>  <smiles>  (201) 
[H]OC1([H])C([H])([H])C([H])([H])C2(C([H])([H])[H])C([H])(C([H])([H])C([H])([H])C3(C([H])([H])[H])C4([H])C([H])(C([H])=NN([H])C(N([H])[H])=[N+]([H])[H])C([H])([H])C([H])([H])C4(C([H])([H])[H])C([H])([H])C([H])([H])C32[H])C1(C([H])([H])[H])C([H])([H])[H]

$$$$
57:2:0
     RDKit          3D

 71 74  0  0  1  0  0  0  0  0999 V2000
    3.7634   -3.5434    8.2849 C   0  0  0  0  0  0  0  0  0  0  0  0
    3.7880   -4.8163    7.4146 C   0  0  2  0  0  0  0  0  0  0  0  0
    5.2564   -5.2003    7.1966 C   0  0  0  0  0  0  0  0  0  0  0  0
    5.7227   -4.3852    5.9726 C   0  0  0  0  0  0  0  0  0  0  0  0
    4.4736   -3.7038    5.3677 C   0  0  1  0  0  0  0  0  0  0  0  0
    4.5237   -3.5580    3.8623 C   0  0  0  0  0  0  0  0  0  0  0  0
    4.0010   -2.6150    3.2212 N   0  0  0  0  0  0  0  0  0  0  0  0
    4.0149   -2.9386    1.8728 N   0  0  0  0  0  0  0  0  0  0  0  0
    3.0231   -2.4322    1.2021 C   0  0  0  0  0  0  0  0  0  0  0  0
    1.9661   -1.6998    1.6915 N   0  0  0  0  0  0  0  0  0  0  0  0
    2.9848   -2.6102   -0.1583 N   0  0  0  0  0  0  0  0  0  0  0  0
    3.2731   -4.4804    5.9871 C   0  0  1  0  0  0  0  0  0  0  0  0
    2.6793   -5.6636    5.1295 C   0  0  1  0  0  0  0  0  0  0  0  0
    1.7829   -4.9406    4.0647 C   0  0  0  0  0  0  0  0  0  0  0  0
    3.7213   -6.6162    4.4631 C   0  0  0  0  0  0  0  0  0  0  0  0
    3.0753   -7.6994    3.6136 C   0  0  0  0  0  0  0  0  0  0  0  0
    2.1406   -8.5937    4.4686 C   0  0  2  0  0  0  0  0  0  0  0  0
    1.5136   -9.7697    3.6352 C   0  0  0  0  0  0  0  0  0  0  0  0
    2.6184  -10.4471    2.8053 C   0  0  0  0  0  0  0  0  0  0  0  0
    1.0000  -10.8872    4.5661 C   0  0  0  0  0  0  0  0  0  0  0  0
    0.3787   -9.2245    2.7041 C   0  0  1  0  0  0  0  0  0  0  0  0
   -0.2781  -10.2832    2.0693 O   0  0  0  0  0  0  0  0  0  0  0  0
   -0.7020   -8.4304    3.4786 C   0  0  0  0  0  0  0  0  0  0  0  0
   -0.0774   -7.2916    4.2900 C   0  0  0  0  0  0  0  0  0  0  0  0
    1.0562   -7.7640    5.2603 C   0  0  1  0  0  0  0  0  0  0  0  0
    0.3744   -8.6153    6.3601 C   0  0  0  0  0  0  0  0  0  0  0  0
    1.7456   -6.5675    6.0264 C   0  0  1  0  0  0  0  0  0  0  0  0
    2.5168   -7.0366    7.3018 C   0  0  0  0  0  0  0  0  0  0  0  0
    2.9502   -5.8675    8.1660 C   0  0  0  0  0  0  0  0  0  0  0  0
    4.1492   -3.7447    9.2852 H   0  0  0  0  0  0  0  0  0  0  0  0
    2.7525   -3.1410    8.3794 H   0  0  0  0  0  0  0  0  0  0  0  0
    4.3895   -2.7547    7.8730 H   0  0  0  0  0  0  0  0  0  0  0  0
    5.8651   -4.9797    8.0717 H   0  0  0  0  0  0  0  0  0  0  0  0
    5.3729   -6.2654    7.0093 H   0  0  0  0  0  0  0  0  0  0  0  0
    6.4435   -3.6152    6.2570 H   0  0  0  0  0  0  0  0  0  0  0  0
    6.2067   -5.0488    5.2550 H   0  0  0  0  0  0  0  0  0  0  0  0
    4.4122   -2.6839    5.7574 H   0  0  0  0  0  0  0  0  0  0  0  0
    5.0811   -4.3461    3.3577 H   0  0  0  0  0  0  0  0  0  0  0  0
    1.8970   -1.4624    2.6672 H   0  0  0  0  0  0  0  0  0  0  0  0
    1.4104   -1.1035    1.0722 H   0  0  0  0  0  0  0  0  0  0  0  0
    3.7749   -3.0259   -0.6474 H   0  0  0  0  0  0  0  0  0  0  0  0
    2.4241   -1.9702   -0.7443 H   0  0  0  0  0  0  0  0  0  0  0  0
    2.4353   -3.7900    6.1360 H   0  0  0  0  0  0  0  0  0  0  0  0
    1.8297   -5.4244    3.0821 H   0  0  0  0  0  0  0  0  0  0  0  0
    2.0523   -3.9092    3.8576 H   0  0  0  0  0  0  0  0  0  0  0  0
    0.7494   -4.8248    4.4173 H   0  0  0  0  0  0  0  0  0  0  0  0
    4.3595   -6.1139    3.7336 H   0  0  0  0  0  0  0  0  0  0  0  0
    4.3966   -7.0595    5.1899 H   0  0  0  0  0  0  0  0  0  0  0  0
    2.5367   -7.2982    2.7525 H   0  0  0  0  0  0  0  0  0  0  0  0
    3.8930   -8.2628    3.1598 H   0  0  0  0  0  0  0  0  0  0  0  0
    2.8343   -9.0306    5.1929 H   0  0  0  0  0  0  0  0  0  0  0  0
    2.2544  -11.4122    2.4641 H   0  0  0  0  0  0  0  0  0  0  0  0
    3.5019  -10.6565    3.4141 H   0  0  0  0  0  0  0  0  0  0  0  0
    2.9187   -9.8729    1.9214 H   0  0  0  0  0  0  0  0  0  0  0  0
    0.9883  -11.8670    4.0941 H   0  0  0  0  0  0  0  0  0  0  0  0
   -0.0419  -10.7215    4.8297 H   0  0  0  0  0  0  0  0  0  0  0  0
    1.5964  -10.9599    5.4721 H   0  0  0  0  0  0  0  0  0  0  0  0
    0.8113   -8.5704    1.9367 H   0  0  0  0  0  0  0  0  0  0  0  0
   -0.1774  -10.1888    1.0607 H   0  0  0  0  0  0  0  0  0  0  0  0
   -1.4290   -8.0036    2.7829 H   0  0  0  0  0  0  0  0  0  0  0  0
   -1.2849   -9.0872    4.1273 H   0  0  0  0  0  0  0  0  0  0  0  0
    0.2488   -6.6507    3.4738 H   0  0  0  0  0  0  0  0  0  0  0  0
   -0.8297   -6.7352    4.8583 H   0  0  0  0  0  0  0  0  0  0  0  0
   -0.0494   -7.9929    7.1502 H   0  0  0  0  0  0  0  0  0  0  0  0
    1.0996   -9.3032    6.7954 H   0  0  0  0  0  0  0  0  0  0  0  0
   -0.4786   -9.1941    6.0029 H   0  0  0  0  0  0  0  0  0  0  0  0
    0.9274   -5.9331    6.4000 H   0  0  0  0  0  0  0  0  0  0  0  0
    1.9101   -7.6304    7.9787 H   0  0  0  0  0  0  0  0  0  0  0  0
    3.3546   -7.6790    7.0439 H   0  0  0  0  0  0  0  0  0  0  0  0
    3.4855   -6.2489    9.0400 H   0  0  0  0  0  0  0  0  0  0  0  0
    2.0409   -5.4083    8.5630 H   0  0  0  0  0  0  0  0  0  0  0  0
  2  1  1  1
  1 30  1  0
  1 31  1  0
  1 32  1  0
  2 12  1  0
  2 29  1  0
  2  3  1  0
  3  4  1  0
  3 33  1  0
  3 34  1  0
  4  5  1  0
  4 35  1  0
  4 36  1  0
  5  6  1  0
  5 12  1  0
  5 37  1  1
  6  7  2  3
  6 38  1  0
  7  8  1  0
  8  9  2  3
  9 10  1  0
  9 11  1  0
 10 39  1  0
 10 40  1  0
 11 41  1  0
 11 42  1  0
 12 13  1  0
 12 43  1  1
 13 27  1  0
 13 14  1  6
 13 15  1  0
 14 44  1  0
 14 45  1  0
 14 46  1  0
 15 16  1  0
 15 47  1  0
 15 48  1  0
 16 17  1  0
 16 49  1  0
 16 50  1  0
 17 25  1  0
 17 18  1  0
 17 51  1  1
 18 19  1  0
 18 20  1  0
 18 21  1  0
 19 52  1  0
 19 53  1  0
 19 54  1  0
 20 55  1  0
 20 56  1  0
 20 57  1  0
 21 22  1  0
 21 23  1  0
 21 58  1  6
 22 59  1  0
 23 24  1  0
 23 60  1  0
 23 61  1  0
 24 25  1  0
 24 62  1  0
 24 63  1  0
 25 26  1  1
 25 27  1  0
 26 64  1  0
 26 65  1  0
 26 66  1  0
 27 28  1  0
 27 67  1  1
 28 29  1  0
 28 68  1  0
 28 69  1  0
 29 70  1  0
 29 71  1  0
M  END
>  <i_m_ct_stereo_status>  (202) 
1

>  <s_m_source_file>  (202) 
/var/tmp/pbs.5076255.sched01/tmpguyree9i/45_f3p7e6s.sdf

>  <i_m_source_file_index>  (202) 
40

>  <i_lp_mmshare_version>  (202) 
48012

>  <i_f3d_flags>  (202) 
0

>  <s_epik_input>  (202) 
W05IMl1DKFtOSDJdKT1OXE49W0NIXVxbQ0BIXShbQ0gyXVtDSDJdMSlbQ0BIXShbQ0BdMTJbQ0gzXSlbQ0BdMyhbQ0gzXSlbQ0BIXShbQ0gyXVtDSDJdMilbQ0BdNChbQ0gzXSlbQ0BIXShbQ0gyXVtDSDJdMylDKFtDSDNdKShbQ0gzXSlbQ0BASF0oW09IXSlbQ0gyXVtDSDJdNA==

>  <s_epik_cmdline>  (202) 
J2VwaWtfcHl0aG9uJywgJy1waHQnLCAnMi4wJywgJy1waCcsICc3LjAnLCAnLXRuJywgJzgnLCAnLW1hJywgJzIwMCcsICctaW1hZScsICc8aW5maWxlLm1hZT4nLCAnLW9tYWUnLCAnPG91dGZpbGUubWFlPic=

>  <r_epik_Ionization_Penalty>  (202) 
0.473302

>  <r_epik_Ionization_Penalty_Charging>  (202) 
0

>  <r_epik_Ionization_Penalty_Neutral>  (202) 
0.473302

>  <r_epik_State_Penalty>  (202) 
0.478

>  <r_epik_Charging_Adjusted_Penalty>  (202) 
0.478

>  <i_epik_Tot_Q>  (202) 
0

>  <i_epik_Tot_abs_Q>  (202) 
0

>  <s_epik_Chemistry_Notes>  (202) 
This compound has an imine and may undergo hydrolysis.

>  <s_lp_Force_Field>  (202) 
OPLS3e

>  <r_lp_Energy>  (202) 
86.6558

>  <b_lp_Chiralities_Consistent>  (202) 
1

>  <s_lp_Variant>  (202) 
57:0-3

>  <s_i_glide_gridfile>  (202) 
pfpi4k_grid

>  <i_i_glide_lignum>  (202) 
40

>  <i_i_glide_rotatable_bonds>  (202) 
3

>  <r_i_docking_score>  (202) 
-3.85494

>  <r_i_glide_ligand_efficiency>  (202) 
-0.132929

>  <r_i_glide_ligand_efficiency_sa>  (202) 
-0.4084

>  <r_i_glide_ligand_efficiency_ln>  (202) 
-0.882683

>  <r_i_glide_gscore>  (202) 
-3.85494

>  <r_i_glide_lipo>  (202) 
-0.00577899

>  <r_i_glide_hbond>  (202) 
-0.46215

>  <r_i_glide_metal>  (202) 
-0

>  <r_i_glide_rewards>  (202) 
-0.684312

>  <r_i_glide_evdw>  (202) 
-15.3538

>  <r_i_glide_ecoul>  (202) 
-13.7167

>  <r_i_glide_erotb>  (202) 
0.242141

>  <r_i_glide_esite>  (202) 
-0.119649

>  <r_i_glide_emodel>  (202) 
-33.8644

>  <r_i_glide_energy>  (202) 
-29.0705

>  <r_i_glide_einternal>  (202) 
1.75082

>  <r_i_glide_intrahb_reward>  (202) 
-0

>  <i_i_glide_confnum>  (202) 
2

>  <i_i_glide_posenum>  (202) 
26

>  <r_i_glide_eff_state_penalty>  (202) 
0

>  <ligand_id>  (202) 
57

>  <original_smiles>  (202) 
CC12CCC(C=NN=C(N)N)C1C1(C)CCC3C(C)(C)C(O)CCC3(C)C1CC2

>  <smiles>  (202) 
[H]OC1([H])C([H])([H])C([H])([H])C2(C([H])([H])[H])C([H])(C([H])([H])C([H])([H])C3(C([H])([H])[H])C4([H])C([H])(C([H])=NN=C(N([H])[H])N([H])[H])C([H])([H])C([H])([H])C4(C([H])([H])[H])C([H])([H])C([H])([H])C32[H])C1(C([H])([H])[H])C([H])([H])[H]

$$$$
57:2:1
     RDKit          3D

 71 74  0  0  1  0  0  0  0  0999 V2000
    8.3189   -6.2413    4.2366 C   0  0  0  0  0  0  0  0  0  0  0  0
    7.0655   -7.0994    3.9312 C   0  0  2  0  0  0  0  0  0  0  0  0
    7.4679   -8.1502    2.8822 C   0  0  0  0  0  0  0  0  0  0  0  0
    7.2722   -7.4626    1.5197 C   0  0  0  0  0  0  0  0  0  0  0  0
    6.5752   -6.1159    1.7819 C   0  0  1  0  0  0  0  0  0  0  0  0
    5.6264   -5.6873    0.6665 C   0  0  0  0  0  0  0  0  0  0  0  0
    5.2579   -4.5213    0.4601 N   0  0  0  0  0  0  0  0  0  0  0  0
    4.1936   -4.4641   -0.4960 N   0  0  0  0  0  0  0  0  0  0  0  0
    3.3043   -3.5557   -0.2391 C   0  0  0  0  0  0  0  0  0  0  0  0
    3.3148   -2.6452    0.8012 N   0  0  0  0  0  0  0  0  0  0  0  0
    2.2349   -3.4450   -1.0618 N   0  0  0  0  0  0  0  0  0  0  0  0
    5.9749   -6.2475    3.2192 C   0  0  1  0  0  0  0  0  0  0  0  0
    4.4628   -6.6873    3.3466 C   0  0  1  0  0  0  0  0  0  0  0  0
    3.6656   -5.3849    3.0290 C   0  0  0  0  0  0  0  0  0  0  0  0
    4.0524   -7.8565    2.3766 C   0  0  0  0  0  0  0  0  0  0  0  0
    2.5889   -8.2790    2.5595 C   0  0  0  0  0  0  0  0  0  0  0  0
    2.2499   -8.7030    4.0223 C   0  0  2  0  0  0  0  0  0  0  0  0
    0.7563   -9.1604    4.1732 C   0  0  0  0  0  0  0  0  0  0  0  0
    0.3684  -10.1277    3.0207 C   0  0  0  0  0  0  0  0  0  0  0  0
    0.6129   -9.9897    5.4711 C   0  0  0  0  0  0  0  0  0  0  0  0
   -0.1891   -7.9117    4.1648 C   0  0  1  0  0  0  0  0  0  0  0  0
   -1.5275   -8.3067    4.3642 O   0  0  0  0  0  0  0  0  0  0  0  0
    0.1694   -6.8565    5.2296 C   0  0  0  0  0  0  0  0  0  0  0  0
    1.6312   -6.4253    5.0442 C   0  0  0  0  0  0  0  0  0  0  0  0
    2.6654   -7.6097    5.0764 C   0  0  1  0  0  0  0  0  0  0  0  0
    2.6409   -8.1555    6.5496 C   0  0  0  0  0  0  0  0  0  0  0  0
    4.1510   -7.1576    4.8156 C   0  0  1  0  0  0  0  0  0  0  0  0
    5.2003   -8.2242    5.2787 C   0  0  0  0  0  0  0  0  0  0  0  0
    6.6173   -7.6796    5.2847 C   0  0  0  0  0  0  0  0  0  0  0  0
    9.0971   -6.8174    4.7341 H   0  0  0  0  0  0  0  0  0  0  0  0
    8.0771   -5.4076    4.8905 H   0  0  0  0  0  0  0  0  0  0  0  0
    8.7826   -5.8225    3.3487 H   0  0  0  0  0  0  0  0  0  0  0  0
    8.4973   -8.4962    3.0277 H   0  0  0  0  0  0  0  0  0  0  0  0
    6.8399   -9.0363    2.9711 H   0  0  0  0  0  0  0  0  0  0  0  0
    8.2381   -7.3084    1.0339 H   0  0  0  0  0  0  0  0  0  0  0  0
    6.6928   -8.1343    0.8822 H   0  0  0  0  0  0  0  0  0  0  0  0
    7.3484   -5.3422    1.8194 H   0  0  0  0  0  0  0  0  0  0  0  0
    5.2397   -6.5504    0.0805 H   0  0  0  0  0  0  0  0  0  0  0  0
    4.0078   -2.6419    1.5350 H   0  0  0  0  0  0  0  0  0  0  0  0
    2.7222   -1.8211    0.8059 H   0  0  0  0  0  0  0  0  0  0  0  0
    2.2060   -3.9606   -1.9193 H   0  0  0  0  0  0  0  0  0  0  0  0
    1.7279   -2.5647   -1.1475 H   0  0  0  0  0  0  0  0  0  0  0  0
    6.0191   -5.2681    3.6908 H   0  0  0  0  0  0  0  0  0  0  0  0
    2.7466   -5.5951    2.4779 H   0  0  0  0  0  0  0  0  0  0  0  0
    4.2277   -4.6423    2.5257 H   0  0  0  0  0  0  0  0  0  0  0  0
    3.3670   -4.8961    3.9576 H   0  0  0  0  0  0  0  0  0  0  0  0
    4.2040   -7.6316    1.3301 H   0  0  0  0  0  0  0  0  0  0  0  0
    4.6453   -8.7546    2.5780 H   0  0  0  0  0  0  0  0  0  0  0  0
    1.9418   -7.4763    2.2269 H   0  0  0  0  0  0  0  0  0  0  0  0
    2.4246   -9.1172    1.8691 H   0  0  0  0  0  0  0  0  0  0  0  0
    2.8594   -9.5926    4.1851 H   0  0  0  0  0  0  0  0  0  0  0  0
   -0.5780  -10.6402    3.1965 H   0  0  0  0  0  0  0  0  0  0  0  0
    1.1223  -10.9016    2.8761 H   0  0  0  0  0  0  0  0  0  0  0  0
    0.2436   -9.6117    2.0823 H   0  0  0  0  0  0  0  0  0  0  0  0
   -0.0928  -10.8063    5.3558 H   0  0  0  0  0  0  0  0  0  0  0  0
    0.3196   -9.3833    6.3259 H   0  0  0  0  0  0  0  0  0  0  0  0
    1.5094  -10.5565    5.7135 H   0  0  0  0  0  0  0  0  0  0  0  0
   -0.1631   -7.4461    3.1747 H   0  0  0  0  0  0  0  0  0  0  0  0
   -1.5085   -9.2043    4.6923 H   0  0  0  0  0  0  0  0  0  0  0  0
   -0.4542   -5.9759    5.0811 H   0  0  0  0  0  0  0  0  0  0  0  0
   -0.0320   -7.2285    6.2382 H   0  0  0  0  0  0  0  0  0  0  0  0
    1.6194   -5.9128    4.1013 H   0  0  0  0  0  0  0  0  0  0  0  0
    1.9000   -5.6872    5.8097 H   0  0  0  0  0  0  0  0  0  0  0  0
    3.3252   -7.5952    7.1808 H   0  0  0  0  0  0  0  0  0  0  0  0
    2.9802   -9.1962    6.5780 H   0  0  0  0  0  0  0  0  0  0  0  0
    1.6656   -8.1494    7.0248 H   0  0  0  0  0  0  0  0  0  0  0  0
    4.3350   -6.3045    5.4633 H   0  0  0  0  0  0  0  0  0  0  0  0
    5.0832   -8.5433    6.3212 H   0  0  0  0  0  0  0  0  0  0  0  0
    5.1463   -9.1504    4.7017 H   0  0  0  0  0  0  0  0  0  0  0  0
    7.3132   -8.4553    5.6209 H   0  0  0  0  0  0  0  0  0  0  0  0
    6.6614   -6.9072    6.0554 H   0  0  0  0  0  0  0  0  0  0  0  0
  2  1  1  1
  1 30  1  0
  1 31  1  0
  1 32  1  0
  2 12  1  0
  2 29  1  0
  2  3  1  0
  3  4  1  0
  3 33  1  0
  3 34  1  0
  4  5  1  0
  4 35  1  0
  4 36  1  0
  5  6  1  0
  5 12  1  0
  5 37  1  1
  6  7  2  3
  6 38  1  0
  7  8  1  0
  8  9  2  3
  9 10  1  0
  9 11  1  0
 10 39  1  0
 10 40  1  0
 11 41  1  0
 11 42  1  0
 12 13  1  0
 12 43  1  1
 13 27  1  0
 13 14  1  6
 13 15  1  0
 14 44  1  0
 14 45  1  0
 14 46  1  0
 15 16  1  0
 15 47  1  0
 15 48  1  0
 16 17  1  0
 16 49  1  0
 16 50  1  0
 17 25  1  0
 17 18  1  0
 17 51  1  1
 18 19  1  0
 18 20  1  0
 18 21  1  0
 19 52  1  0
 19 53  1  0
 19 54  1  0
 20 55  1  0
 20 56  1  0
 20 57  1  0
 21 22  1  0
 21 23  1  0
 21 58  1  6
 22 59  1  0
 23 24  1  0
 23 60  1  0
 23 61  1  0
 24 25  1  0
 24 62  1  0
 24 63  1  0
 25 26  1  1
 25 27  1  0
 26 64  1  0
 26 65  1  0
 26 66  1  0
 27 28  1  0
 27 67  1  1
 28 29  1  0
 28 68  1  0
 28 69  1  0
 29 70  1  0
 29 71  1  0
M  END
>  <i_m_ct_stereo_status>  (203) 
1

>  <s_m_source_file>  (203) 
/var/tmp/pbs.5076255.sched01/tmpguyree9i/45_f3p7e6s.sdf

>  <i_m_source_file_index>  (203) 
40

>  <i_lp_mmshare_version>  (203) 
48012

>  <i_f3d_flags>  (203) 
0

>  <s_epik_input>  (203) 
W05IMl1DKFtOSDJdKT1OXE49W0NIXVxbQ0BIXShbQ0gyXVtDSDJdMSlbQ0BIXShbQ0BdMTJbQ0gzXSlbQ0BdMyhbQ0gzXSlbQ0BIXShbQ0gyXVtDSDJdMilbQ0BdNChbQ0gzXSlbQ0BIXShbQ0gyXVtDSDJdMylDKFtDSDNdKShbQ0gzXSlbQ0BASF0oW09IXSlbQ0gyXVtDSDJdNA==

>  <s_epik_cmdline>  (203) 
J2VwaWtfcHl0aG9uJywgJy1waHQnLCAnMi4wJywgJy1waCcsICc3LjAnLCAnLXRuJywgJzgnLCAnLW1hJywgJzIwMCcsICctaW1hZScsICc8aW5maWxlLm1hZT4nLCAnLW9tYWUnLCAnPG91dGZpbGUubWFlPic=

>  <r_epik_Ionization_Penalty>  (203) 
0.473302

>  <r_epik_Ionization_Penalty_Charging>  (203) 
0

>  <r_epik_Ionization_Penalty_Neutral>  (203) 
0.473302

>  <r_epik_State_Penalty>  (203) 
0.478

>  <r_epik_Charging_Adjusted_Penalty>  (203) 
0.478

>  <i_epik_Tot_Q>  (203) 
0

>  <i_epik_Tot_abs_Q>  (203) 
0

>  <s_epik_Chemistry_Notes>  (203) 
This compound has an imine and may undergo hydrolysis.

>  <s_lp_Force_Field>  (203) 
OPLS3e

>  <r_lp_Energy>  (203) 
86.6558

>  <b_lp_Chiralities_Consistent>  (203) 
1

>  <s_lp_Variant>  (203) 
57:0-3

>  <s_i_glide_gridfile>  (203) 
pfpi4k_grid

>  <i_i_glide_lignum>  (203) 
40

>  <i_i_glide_rotatable_bonds>  (203) 
3

>  <r_i_docking_score>  (203) 
-3.10505

>  <r_i_glide_ligand_efficiency>  (203) 
-0.107071

>  <r_i_glide_ligand_efficiency_sa>  (203) 
-0.328955

>  <r_i_glide_ligand_efficiency_ln>  (203) 
-0.710977

>  <r_i_glide_gscore>  (203) 
-3.10505

>  <r_i_glide_lipo>  (203) 
-0.162205

>  <r_i_glide_hbond>  (203) 
-0.337039

>  <r_i_glide_metal>  (203) 
-0

>  <r_i_glide_rewards>  (203) 
-0.797029

>  <r_i_glide_evdw>  (203) 
-26.6974

>  <r_i_glide_ecoul>  (203) 
-6.39334

>  <r_i_glide_erotb>  (203) 
0.242141

>  <r_i_glide_esite>  (203) 
-0.0639456

>  <r_i_glide_emodel>  (203) 
-35.5785

>  <r_i_glide_energy>  (203) 
-33.0907

>  <r_i_glide_einternal>  (203) 
1.63625

>  <r_i_glide_intrahb_reward>  (203) 
-0

>  <i_i_glide_confnum>  (203) 
2

>  <i_i_glide_posenum>  (203) 
33

>  <r_i_glide_eff_state_penalty>  (203) 
0

>  <ligand_id>  (203) 
57

>  <original_smiles>  (203) 
CC12CCC(C=NN=C(N)N)C1C1(C)CCC3C(C)(C)C(O)CCC3(C)C1CC2

>  <smiles>  (203) 
[H]OC1([H])C([H])([H])C([H])([H])C2(C([H])([H])[H])C([H])(C([H])([H])C([H])([H])C3(C([H])([H])[H])C4([H])C([H])(C([H])=NN=C(N([H])[H])N([H])[H])C([H])([H])C([H])([H])C4(C([H])([H])[H])C([H])([H])C([H])([H])C32[H])C1(C([H])([H])[H])C([H])([H])[H]

$$$$
57:2:2
     RDKit          3D

 71 74  0  0  1  0  0  0  0  0999 V2000
    8.0563   -5.9086    3.1692 C   0  0  0  0  0  0  0  0  0  0  0  0
    6.6421   -6.3894    2.7646 C   0  0  2  0  0  0  0  0  0  0  0  0
    6.6734   -6.7023    1.2699 C   0  0  0  0  0  0  0  0  0  0  0  0
    6.3685   -5.3665    0.5590 C   0  0  0  0  0  0  0  0  0  0  0  0
    5.9724   -4.3564    1.6351 C   0  0  1  0  0  0  0  0  0  0  0  0
    4.9814   -3.3444    1.1131 C   0  0  0  0  0  0  0  0  0  0  0  0
    4.8327   -2.1931    1.6242 N   0  0  0  0  0  0  0  0  0  0  0  0
    3.6116   -1.6329    1.1691 N   0  0  0  0  0  0  0  0  0  0  0  0
    3.3352   -0.4455    1.7158 C   0  0  0  0  0  0  0  0  0  0  0  0
    4.1153    0.1643    2.6559 N   0  0  0  0  0  0  0  0  0  0  0  0
    2.2512    0.1966    1.2983 N   0  0  0  0  0  0  0  0  0  0  0  0
    5.6002   -5.2259    2.8840 C   0  0  1  0  0  0  0  0  0  0  0  0
    4.0711   -5.5665    3.1018 C   0  0  1  0  0  0  0  0  0  0  0  0
    3.4791   -4.2846    3.7300 C   0  0  0  0  0  0  0  0  0  0  0  0
    3.3185   -6.0203    1.8168 C   0  0  0  0  0  0  0  0  0  0  0  0
    1.8613   -6.3920    2.0638 C   0  0  0  0  0  0  0  0  0  0  0  0
    1.6879   -7.5378    3.1278 C   0  0  2  0  0  0  0  0  0  0  0  0
    0.1788   -7.9121    3.3681 C   0  0  0  0  0  0  0  0  0  0  0  0
   -0.5569   -8.0235    2.0072 C   0  0  0  0  0  0  0  0  0  0  0  0
    0.0328   -9.3197    3.9940 C   0  0  0  0  0  0  0  0  0  0  0  0
   -0.4821   -6.8172    4.2396 C   0  0  1  0  0  0  0  0  0  0  0  0
   -1.8004   -7.1877    4.4561 O   0  0  0  0  0  0  0  0  0  0  0  0
    0.2058   -6.5507    5.5846 C   0  0  0  0  0  0  0  0  0  0  0  0
    1.6583   -6.1755    5.3161 C   0  0  0  0  0  0  0  0  0  0  0  0
    2.4653   -7.2248    4.4771 C   0  0  1  0  0  0  0  0  0  0  0  0
    2.6146   -8.4854    5.3822 C   0  0  0  0  0  0  0  0  0  0  0  0
    3.9438   -6.7667    4.1368 C   0  0  1  0  0  0  0  0  0  0  0  0
    4.8604   -7.9717    3.7056 C   0  0  0  0  0  0  0  0  0  0  0  0
    6.3316   -7.5952    3.6666 C   0  0  0  0  0  0  0  0  0  0  0  0
    8.7947   -6.6997    3.0986 H   0  0  0  0  0  0  0  0  0  0  0  0
    8.0842   -5.5529    4.1999 H   0  0  0  0  0  0  0  0  0  0  0  0
    8.4381   -5.1011    2.5527 H   0  0  0  0  0  0  0  0  0  0  0  0
    7.6364   -7.1305    0.9653 H   0  0  0  0  0  0  0  0  0  0  0  0
    5.9216   -7.4613    1.0289 H   0  0  0  0  0  0  0  0  0  0  0  0
    7.2614   -5.0209    0.0378 H   0  0  0  0  0  0  0  0  0  0  0  0
    5.5888   -5.5505   -0.1926 H   0  0  0  0  0  0  0  0  0  0  0  0
    6.8632   -3.7906    1.8888 H   0  0  0  0  0  0  0  0  0  0  0  0
    4.3271   -3.6843    0.3045 H   0  0  0  0  0  0  0  0  0  0  0  0
    4.9385   -0.2662    3.0395 H   0  0  0  0  0  0  0  0  0  0  0  0
    4.0568    1.1729    2.8405 H   0  0  0  0  0  0  0  0  0  0  0  0
    1.6396   -0.1433    0.5656 H   0  0  0  0  0  0  0  0  0  0  0  0
    2.1237    1.1973    1.3929 H   0  0  0  0  0  0  0  0  0  0  0  0
    5.8913   -4.6708    3.7736 H   0  0  0  0  0  0  0  0  0  0  0  0
    2.4773   -4.0808    3.3947 H   0  0  0  0  0  0  0  0  0  0  0  0
    4.0557   -3.3926    3.5612 H   0  0  0  0  0  0  0  0  0  0  0  0
    3.4537   -4.3523    4.8049 H   0  0  0  0  0  0  0  0  0  0  0  0
    3.2994   -5.2982    1.0292 H   0  0  0  0  0  0  0  0  0  0  0  0
    3.7679   -6.9012    1.3616 H   0  0  0  0  0  0  0  0  0  0  0  0
    1.2976   -5.5199    2.3646 H   0  0  0  0  0  0  0  0  0  0  0  0
    1.4427   -6.7071    1.1059 H   0  0  0  0  0  0  0  0  0  0  0  0
    2.1671   -8.3990    2.6431 H   0  0  0  0  0  0  0  0  0  0  0  0
   -1.5254   -8.5133    2.0746 H   0  0  0  0  0  0  0  0  0  0  0  0
    0.0458   -8.6244    1.3300 H   0  0  0  0  0  0  0  0  0  0  0  0
   -0.7361   -7.0746    1.5113 H   0  0  0  0  0  0  0  0  0  0  0  0
   -0.8847   -9.8245    3.6949 H   0  0  0  0  0  0  0  0  0  0  0  0
    0.0451   -9.2977    5.0667 H   0  0  0  0  0  0  0  0  0  0  0  0
    0.8268   -9.9817    3.6737 H   0  0  0  0  0  0  0  0  0  0  0  0
   -0.5433   -5.8902    3.6695 H   0  0  0  0  0  0  0  0  0  0  0  0
   -1.7708   -8.0968    4.7857 H   0  0  0  0  0  0  0  0  0  0  0  0
   -0.2803   -5.6920    6.0526 H   0  0  0  0  0  0  0  0  0  0  0  0
    0.0926   -7.3944    6.2665 H   0  0  0  0  0  0  0  0  0  0  0  0
    1.5676   -5.2145    4.8131 H   0  0  0  0  0  0  0  0  0  0  0  0
    2.1768   -5.9817    6.2527 H   0  0  0  0  0  0  0  0  0  0  0  0
    3.4781   -8.4007    6.0335 H   0  0  0  0  0  0  0  0  0  0  0  0
    2.7744   -9.3776    4.7956 H   0  0  0  0  0  0  0  0  0  0  0  0
    1.7792   -8.6952    6.0218 H   0  0  0  0  0  0  0  0  0  0  0  0
    4.3815   -6.4296    5.0724 H   0  0  0  0  0  0  0  0  0  0  0  0
    4.8745   -8.8086    4.4149 H   0  0  0  0  0  0  0  0  0  0  0  0
    4.5552   -8.4215    2.7577 H   0  0  0  0  0  0  0  0  0  0  0  0
    6.9284   -8.4582    3.3687 H   0  0  0  0  0  0  0  0  0  0  0  0
    6.6357   -7.3830    4.7005 H   0  0  0  0  0  0  0  0  0  0  0  0
  2  1  1  1
  1 30  1  0
  1 31  1  0
  1 32  1  0
  2 12  1  0
  2 29  1  0
  2  3  1  0
  3  4  1  0
  3 33  1  0
  3 34  1  0
  4  5  1  0
  4 35  1  0
  4 36  1  0
  5  6  1  0
  5 12  1  0
  5 37  1  1
  6  7  2  3
  6 38  1  0
  7  8  1  0
  8  9  2  3
  9 10  1  0
  9 11  1  0
 10 39  1  0
 10 40  1  0
 11 41  1  0
 11 42  1  0
 12 13  1  0
 12 43  1  1
 13 27  1  0
 13 14  1  1
 13 15  1  0
 14 44  1  0
 14 45  1  0
 14 46  1  0
 15 16  1  0
 15 47  1  0
 15 48  1  0
 16 17  1  0
 16 49  1  0
 16 50  1  0
 17 25  1  0
 17 18  1  0
 17 51  1  6
 18 19  1  0
 18 20  1  0
 18 21  1  0
 19 52  1  0
 19 53  1  0
 19 54  1  0
 20 55  1  0
 20 56  1  0
 20 57  1  0
 21 22  1  0
 21 23  1  0
 21 58  1  6
 22 59  1  0
 23 24  1  0
 23 60  1  0
 23 61  1  0
 24 25  1  0
 24 62  1  0
 24 63  1  0
 25 26  1  1
 25 27  1  0
 26 64  1  0
 26 65  1  0
 26 66  1  0
 27 28  1  0
 27 67  1  1
 28 29  1  0
 28 68  1  0
 28 69  1  0
 29 70  1  0
 29 71  1  0
M  END
>  <i_m_ct_stereo_status>  (204) 
1

>  <s_m_source_file>  (204) 
/var/tmp/pbs.5076255.sched01/tmpguyree9i/45_f3p7e6s.sdf

>  <i_m_source_file_index>  (204) 
40

>  <i_lp_mmshare_version>  (204) 
48012

>  <i_f3d_flags>  (204) 
0

>  <s_epik_input>  (204) 
W05IMl1DKFtOSDJdKT1OXE49W0NIXVxbQ0BIXShbQ0gyXVtDSDJdMSlbQ0BIXShbQ0BdMTJbQ0gzXSlbQ0BdMyhbQ0gzXSlbQ0BIXShbQ0gyXVtDSDJdMilbQ0BdNChbQ0gzXSlbQ0BIXShbQ0gyXVtDSDJdMylDKFtDSDNdKShbQ0gzXSlbQ0BASF0oW09IXSlbQ0gyXVtDSDJdNA==

>  <s_epik_cmdline>  (204) 
J2VwaWtfcHl0aG9uJywgJy1waHQnLCAnMi4wJywgJy1waCcsICc3LjAnLCAnLXRuJywgJzgnLCAnLW1hJywgJzIwMCcsICctaW1hZScsICc8aW5maWxlLm1hZT4nLCAnLW9tYWUnLCAnPG91dGZpbGUubWFlPic=

>  <r_epik_Ionization_Penalty>  (204) 
0.473302

>  <r_epik_Ionization_Penalty_Charging>  (204) 
0

>  <r_epik_Ionization_Penalty_Neutral>  (204) 
0.473302

>  <r_epik_State_Penalty>  (204) 
0.478

>  <r_epik_Charging_Adjusted_Penalty>  (204) 
0.478

>  <i_epik_Tot_Q>  (204) 
0

>  <i_epik_Tot_abs_Q>  (204) 
0

>  <s_epik_Chemistry_Notes>  (204) 
This compound has an imine and may undergo hydrolysis.

>  <s_lp_Force_Field>  (204) 
OPLS3e

>  <r_lp_Energy>  (204) 
86.6558

>  <b_lp_Chiralities_Consistent>  (204) 
1

>  <s_lp_Variant>  (204) 
57:0-3

>  <s_i_glide_gridfile>  (204) 
pfpi4k_grid

>  <i_i_glide_lignum>  (204) 
40

>  <i_i_glide_rotatable_bonds>  (204) 
3

>  <r_i_docking_score>  (204) 
-2.94251

>  <r_i_glide_ligand_efficiency>  (204) 
-0.101466

>  <r_i_glide_ligand_efficiency_sa>  (204) 
-0.311735

>  <r_i_glide_ligand_efficiency_ln>  (204) 
-0.673759

>  <r_i_glide_gscore>  (204) 
-2.94251

>  <r_i_glide_lipo>  (204) 
-0.318513

>  <r_i_glide_hbond>  (204) 
-0.246819

>  <r_i_glide_metal>  (204) 
-0

>  <r_i_glide_rewards>  (204) 
-0.707911

>  <r_i_glide_evdw>  (204) 
-24.3849

>  <r_i_glide_ecoul>  (204) 
-4.05245

>  <r_i_glide_erotb>  (204) 
0.242141

>  <r_i_glide_esite>  (204) 
-0.0842944

>  <r_i_glide_emodel>  (204) 
-33.353

>  <r_i_glide_energy>  (204) 
-28.4373

>  <r_i_glide_einternal>  (204) 
0.122966

>  <r_i_glide_intrahb_reward>  (204) 
-0

>  <i_i_glide_confnum>  (204) 
2

>  <i_i_glide_posenum>  (204) 
19

>  <r_i_glide_eff_state_penalty>  (204) 
0

>  <ligand_id>  (204) 
57

>  <original_smiles>  (204) 
CC12CCC(C=NN=C(N)N)C1C1(C)CCC3C(C)(C)C(O)CCC3(C)C1CC2

>  <smiles>  (204) 
[H]OC1([H])C([H])([H])C([H])([H])C2(C([H])([H])[H])C([H])(C([H])([H])C([H])([H])C3(C([H])([H])[H])C4([H])C([H])(C([H])=NN=C(N([H])[H])N([H])[H])C([H])([H])C([H])([H])C4(C([H])([H])[H])C([H])([H])C([H])([H])C32[H])C1(C([H])([H])[H])C([H])([H])[H]

$$$$
57:3:0
     RDKit          3D

 71 74  0  0  1  0  0  0  0  0999 V2000
    8.4626   -6.2695    4.1285 C   0  0  0  0  0  0  0  0  0  0  0  0
    7.1744   -7.0037    3.6882 C   0  0  2  0  0  0  0  0  0  0  0  0
    7.4666   -7.6983    2.3537 C   0  0  0  0  0  0  0  0  0  0  0  0
    7.1840   -6.6305    1.2686 C   0  0  0  0  0  0  0  0  0  0  0  0
    6.5118   -5.4203    1.9463 C   0  0  1  0  0  0  0  0  0  0  0  0
    5.4262   -4.7527    1.0981 C   0  0  0  0  0  0  0  0  0  0  0  0
    5.4768   -3.8050    0.2563 N   0  0  0  0  0  0  0  0  0  0  0  0
    6.7876   -3.2985    0.0494 N   0  0  0  0  0  0  0  0  0  0  0  0
    6.9728   -3.0203   -1.2177 C   0  0  0  0  0  0  0  0  0  0  0  0
    6.0576   -3.1795   -2.2512 N   0  0  0  0  0  0  0  0  0  0  0  0
    8.1961   -2.5782   -1.5764 N   0  0  0  0  0  0  0  0  0  0  0  0
    6.0640   -5.9718    3.3292 C   0  0  1  0  0  0  0  0  0  0  0  0
    4.5532   -6.4312    3.4346 C   0  0  1  0  0  0  0  0  0  0  0  0
    3.7716   -5.0818    3.5919 C   0  0  0  0  0  0  0  0  0  0  0  0
    4.0532   -7.3290    2.2309 C   0  0  0  0  0  0  0  0  0  0  0  0
    2.5856   -7.7030    2.3631 C   0  0  0  0  0  0  0  0  0  0  0  0
    2.3269   -8.5177    3.6639 C   0  0  2  0  0  0  0  0  0  0  0  0
    0.8258   -8.9977    3.8010 C   0  0  0  0  0  0  0  0  0  0  0  0
    0.3423   -9.5760    2.4882 C   0  0  0  0  0  0  0  0  0  0  0  0
    0.6958  -10.1704    4.8031 C   0  0  0  0  0  0  0  0  0  0  0  0
   -0.0731   -7.7820    4.2246 C   0  0  1  0  0  0  0  0  0  0  0  0
   -1.3906   -8.2524    4.4169 O   0  0  0  0  0  0  0  0  0  0  0  0
    0.4145   -7.0784    5.5148 C   0  0  0  0  0  0  0  0  0  0  0  0
    1.8678   -6.6346    5.3619 C   0  0  0  0  0  0  0  0  0  0  0  0
    2.8563   -7.7844    4.9721 C   0  0  1  0  0  0  0  0  0  0  0  0
    2.9259   -8.7447    6.1896 C   0  0  0  0  0  0  0  0  0  0  0  0
    4.3391   -7.2903    4.7316 C   0  0  1  0  0  0  0  0  0  0  0  0
    5.3824   -8.4586    4.7990 C   0  0  0  0  0  0  0  0  0  0  0  0
    6.8093   -7.9494    4.8510 C   0  0  0  0  0  0  0  0  0  0  0  0
    9.2602   -6.9701    4.3617 H   0  0  0  0  0  0  0  0  0  0  0  0
    8.2937   -5.6550    5.0101 H   0  0  0  0  0  0  0  0  0  0  0  0
    8.8535   -5.6169    3.3536 H   0  0  0  0  0  0  0  0  0  0  0  0
    8.4945   -8.0766    2.3175 H   0  0  0  0  0  0  0  0  0  0  0  0
    6.8330   -8.5783    2.2219 H   0  0  0  0  0  0  0  0  0  0  0  0
    8.1205   -6.3492    0.7812 H   0  0  0  0  0  0  0  0  0  0  0  0
    6.5313   -7.0636    0.5137 H   0  0  0  0  0  0  0  0  0  0  0  0
    7.2868   -4.6903    2.1397 H   0  0  0  0  0  0  0  0  0  0  0  0
    4.4250   -5.0350    1.2309 H   0  0  0  0  0  0  0  0  0  0  0  0
    5.1429   -3.5946   -2.1021 H   0  0  0  0  0  0  0  0  0  0  0  0
    6.3560   -3.2272   -3.2271 H   0  0  0  0  0  0  0  0  0  0  0  0
    8.9389   -2.5729   -0.8943 H   0  0  0  0  0  0  0  0  0  0  0  0
    8.5234   -2.6540   -2.5344 H   0  0  0  0  0  0  0  0  0  0  0  0
    6.1672   -5.1797    4.0721 H   0  0  0  0  0  0  0  0  0  0  0  0
    2.8273   -5.0948    3.0627 H   0  0  0  0  0  0  0  0  0  0  0  0
    4.2787   -4.1915    3.2345 H   0  0  0  0  0  0  0  0  0  0  0  0
    3.6120   -4.8347    4.6406 H   0  0  0  0  0  0  0  0  0  0  0  0
    4.1262   -6.9379    1.2359 H   0  0  0  0  0  0  0  0  0  0  0  0
    4.6379   -8.2462    2.1388 H   0  0  0  0  0  0  0  0  0  0  0  0
    1.9337   -6.8342    2.3239 H   0  0  0  0  0  0  0  0  0  0  0  0
    2.3235   -8.2760    1.4690 H   0  0  0  0  0  0  0  0  0  0  0  0
    2.9377   -9.4153    3.5067 H   0  0  0  0  0  0  0  0  0  0  0  0
   -0.5937  -10.1109    2.5801 H   0  0  0  0  0  0  0  0  0  0  0  0
    1.0799  -10.2746    2.0719 H   0  0  0  0  0  0  0  0  0  0  0  0
    0.1670   -8.8037    1.7156 H   0  0  0  0  0  0  0  0  0  0  0  0
   -0.1282  -10.8228    4.5538 H   0  0  0  0  0  0  0  0  0  0  0  0
    0.5037   -9.8342    5.8067 H   0  0  0  0  0  0  0  0  0  0  0  0
    1.5845  -10.7844    4.7882 H   0  0  0  0  0  0  0  0  0  0  0  0
   -0.1023   -7.0456    3.4081 H   0  0  0  0  0  0  0  0  0  0  0  0
   -1.3258   -9.1400    4.7614 H   0  0  0  0  0  0  0  0  0  0  0  0
   -0.1960   -6.1946    5.6938 H   0  0  0  0  0  0  0  0  0  0  0  0
    0.2724   -7.7223    6.3818 H   0  0  0  0  0  0  0  0  0  0  0  0
    1.7637   -5.8600    4.6157 H   0  0  0  0  0  0  0  0  0  0  0  0
    2.2294   -6.1573    6.2669 H   0  0  0  0  0  0  0  0  0  0  0  0
    3.6426   -8.3961    6.9262 H   0  0  0  0  0  0  0  0  0  0  0  0
    3.2304   -9.7346    5.8742 H   0  0  0  0  0  0  0  0  0  0  0  0
    2.0103   -8.8431    6.7319 H   0  0  0  0  0  0  0  0  0  0  0  0
    4.5819   -6.6539    5.5818 H   0  0  0  0  0  0  0  0  0  0  0  0
    5.3132   -9.0517    5.7079 H   0  0  0  0  0  0  0  0  0  0  0  0
    5.2441   -9.1740    3.9939 H   0  0  0  0  0  0  0  0  0  0  0  0
    7.4930   -8.7990    4.8991 H   0  0  0  0  0  0  0  0  0  0  0  0
    6.9294   -7.4342    5.8082 H   0  0  0  0  0  0  0  0  0  0  0  0
  2  1  1  1
  1 30  1  0
  1 31  1  0
  1 32  1  0
  2 12  1  0
  2 29  1  0
  2  3  1  0
  3  4  1  0
  3 33  1  0
  3 34  1  0
  4  5  1  0
  4 35  1  0
  4 36  1  0
  5  6  1  0
  5 12  1  0
  5 37  1  1
  6  7  2  3
  6 38  1  0
  7  8  1  0
  8  9  2  3
  9 10  1  0
  9 11  1  0
 10 39  1  0
 10 40  1  0
 11 41  1  0
 11 42  1  0
 12 13  1  0
 12 43  1  1
 13 27  1  0
 13 14  1  1
 13 15  1  0
 14 44  1  0
 14 45  1  0
 14 46  1  0
 15 16  1  0
 15 47  1  0
 15 48  1  0
 16 17  1  0
 16 49  1  0
 16 50  1  0
 17 25  1  0
 17 18  1  0
 17 51  1  6
 18 19  1  0
 18 20  1  0
 18 21  1  0
 19 52  1  0
 19 53  1  0
 19 54  1  0
 20 55  1  0
 20 56  1  0
 20 57  1  0
 21 22  1  0
 21 23  1  0
 21 58  1  6
 22 59  1  0
 23 24  1  0
 23 60  1  0
 23 61  1  0
 24 25  1  0
 24 62  1  0
 24 63  1  0
 25 26  1  1
 25 27  1  0
 26 64  1  0
 26 65  1  0
 26 66  1  0
 27 28  1  0
 27 67  1  1
 28 29  1  0
 28 68  1  0
 28 69  1  0
 29 70  1  0
 29 71  1  0
M  END
>  <i_m_ct_stereo_status>  (205) 
1

>  <s_m_source_file>  (205) 
/var/tmp/pbs.5076255.sched01/tmpguyree9i/45_f3p7e6s.sdf

>  <i_m_source_file_index>  (205) 
41

>  <i_lp_mmshare_version>  (205) 
48012

>  <i_f3d_flags>  (205) 
0

>  <s_epik_input>  (205) 
W05IMl1DKFtOSDJdKT1OXE49W0NIXVxbQ0BIXShbQ0gyXVtDSDJdMSlbQ0BIXShbQ0BdMTJbQ0gzXSlbQ0BdMyhbQ0gzXSlbQ0BIXShbQ0gyXVtDSDJdMilbQ0BdNChbQ0gzXSlbQ0BIXShbQ0gyXVtDSDJdMylDKFtDSDNdKShbQ0gzXSlbQ0BASF0oW09IXSlbQ0gyXVtDSDJdNA==

>  <s_epik_cmdline>  (205) 
J2VwaWtfcHl0aG9uJywgJy1waHQnLCAnMi4wJywgJy1waCcsICc3LjAnLCAnLXRuJywgJzgnLCAnLW1hJywgJzIwMCcsICctaW1hZScsICc8aW5maWxlLm1hZT4nLCAnLW9tYWUnLCAnPG91dGZpbGUubWFlPic=

>  <r_epik_Ionization_Penalty>  (205) 
0.473302

>  <r_epik_Ionization_Penalty_Charging>  (205) 
0

>  <r_epik_Ionization_Penalty_Neutral>  (205) 
0.473302

>  <r_epik_State_Penalty>  (205) 
0.478

>  <r_epik_Charging_Adjusted_Penalty>  (205) 
0.478

>  <i_epik_Tot_Q>  (205) 
0

>  <i_epik_Tot_abs_Q>  (205) 
0

>  <s_epik_Chemistry_Notes>  (205) 
This compound has an imine and may undergo hydrolysis.

>  <s_lp_Force_Field>  (205) 
OPLS3e

>  <r_lp_Energy>  (205) 
91.4275

>  <b_lp_Chiralities_Consistent>  (205) 
1

>  <s_lp_Variant>  (205) 
57:0-4

>  <s_i_glide_gridfile>  (205) 
pfpi4k_grid

>  <i_i_glide_lignum>  (205) 
41

>  <i_i_glide_rotatable_bonds>  (205) 
3

>  <r_i_docking_score>  (205) 
-3.43559

>  <r_i_glide_ligand_efficiency>  (205) 
-0.118469

>  <r_i_glide_ligand_efficiency_sa>  (205) 
-0.363973

>  <r_i_glide_ligand_efficiency_ln>  (205) 
-0.786664

>  <r_i_glide_gscore>  (205) 
-3.43559

>  <r_i_glide_lipo>  (205) 
-0.183022

>  <r_i_glide_hbond>  (205) 
-0.424671

>  <r_i_glide_metal>  (205) 
-0

>  <r_i_glide_rewards>  (205) 
-0.747146

>  <r_i_glide_evdw>  (205) 
-26.9521

>  <r_i_glide_ecoul>  (205) 
-8.08679

>  <r_i_glide_erotb>  (205) 
0.242141

>  <r_i_glide_esite>  (205) 
-0.1

>  <r_i_glide_emodel>  (205) 
-36.8469

>  <r_i_glide_energy>  (205) 
-35.0389

>  <r_i_glide_einternal>  (205) 
5.33527

>  <r_i_glide_intrahb_reward>  (205) 
-0

>  <i_i_glide_confnum>  (205) 
4

>  <i_i_glide_posenum>  (205) 
1

>  <r_i_glide_eff_state_penalty>  (205) 
0

>  <ligand_id>  (205) 
57

>  <original_smiles>  (205) 
CC12CCC(C=NN=C(N)N)C1C1(C)CCC3C(C)(C)C(O)CCC3(C)C1CC2

>  <smiles>  (205) 
[H]OC1([H])C([H])([H])C([H])([H])C2(C([H])([H])[H])C([H])(C([H])([H])C([H])([H])C3(C([H])([H])[H])C4([H])C([H])(C([H])=NN=C(N([H])[H])N([H])[H])C([H])([H])C([H])([H])C4(C([H])([H])[H])C([H])([H])C([H])([H])C32[H])C1(C([H])([H])[H])C([H])([H])[H]

$$$$
57:3:1
     RDKit          3D

 71 74  0  0  1  0  0  0  0  0999 V2000
    3.5820   -3.5271    6.3714 C   0  0  0  0  0  0  0  0  0  0  0  0
    3.1241   -3.4053    4.8971 C   0  0  2  0  0  0  0  0  0  0  0  0
    1.6075   -3.6077    4.8580 C   0  0  0  0  0  0  0  0  0  0  0  0
    1.4069   -5.1438    4.7461 C   0  0  0  0  0  0  0  0  0  0  0  0
    2.7940   -5.7865    4.4911 C   0  0  1  0  0  0  0  0  0  0  0  0
    2.7718   -6.9903    3.5392 C   0  0  0  0  0  0  0  0  0  0  0  0
    2.7879   -8.2140    3.7726 N   0  0  0  0  0  0  0  0  0  0  0  0
    3.0194   -8.5307    5.1177 N   0  0  0  0  0  0  0  0  0  0  0  0
    2.8136   -9.8437    5.2883 C   0  0  0  0  0  0  0  0  0  0  0  0
    2.5313  -10.7785    4.3164 N   0  0  0  0  0  0  0  0  0  0  0  0
    2.8832  -10.2917    6.5663 N   0  0  0  0  0  0  0  0  0  0  0  0
    3.6756   -4.6000    4.0593 C   0  0  1  0  0  0  0  0  0  0  0  0
    3.8441   -4.3976    2.5117 C   0  0  1  0  0  0  0  0  0  0  0  0
    4.9135   -5.4950    2.1142 C   0  0  0  0  0  0  0  0  0  0  0  0
    2.5189   -4.4685    1.6698 C   0  0  0  0  0  0  0  0  0  0  0  0
    2.7788   -4.3299    0.1773 C   0  0  0  0  0  0  0  0  0  0  0  0
    3.4105   -2.9405   -0.1529 C   0  0  2  0  0  0  0  0  0  0  0  0
    3.6164   -2.7121   -1.7087 C   0  0  0  0  0  0  0  0  0  0  0  0
    2.3241   -3.1213   -2.4574 C   0  0  0  0  0  0  0  0  0  0  0  0
    3.7984   -1.2274   -2.0540 C   0  0  0  0  0  0  0  0  0  0  0  0
    4.8294   -3.5521   -2.1842 C   0  0  1  0  0  0  0  0  0  0  0  0
    5.0478   -3.2954   -3.5386 O   0  0  0  0  0  0  0  0  0  0  0  0
    6.1360   -3.2329   -1.4139 C   0  0  0  0  0  0  0  0  0  0  0  0
    5.9246   -3.4792    0.0883 C   0  0  0  0  0  0  0  0  0  0  0  0
    4.7334   -2.6482    0.6783 C   0  0  1  0  0  0  0  0  0  0  0  0
    5.1522   -1.1421    0.6276 C   0  0  0  0  0  0  0  0  0  0  0  0
    4.4644   -2.9743    2.2135 C   0  0  1  0  0  0  0  0  0  0  0  0
    3.6207   -1.8549    2.9183 C   0  0  0  0  0  0  0  0  0  0  0  0
    3.6066   -2.0178    4.4263 C   0  0  0  0  0  0  0  0  0  0  0  0
    3.1823   -2.7168    6.9828 H   0  0  0  0  0  0  0  0  0  0  0  0
    4.6691   -3.5056    6.4587 H   0  0  0  0  0  0  0  0  0  0  0  0
    3.2401   -4.4450    6.8375 H   0  0  0  0  0  0  0  0  0  0  0  0
    1.1239   -3.1873    5.7429 H   0  0  0  0  0  0  0  0  0  0  0  0
    1.1620   -3.0940    4.0106 H   0  0  0  0  0  0  0  0  0  0  0  0
    0.9623   -5.5263    5.6781 H   0  0  0  0  0  0  0  0  0  0  0  0
    0.7013   -5.3438    3.9406 H   0  0  0  0  0  0  0  0  0  0  0  0
    3.1675   -6.1034    5.4453 H   0  0  0  0  0  0  0  0  0  0  0  0
    2.7577   -6.8164    2.5056 H   0  0  0  0  0  0  0  0  0  0  0  0
    2.4125  -10.5312    3.3343 H   0  0  0  0  0  0  0  0  0  0  0  0
    2.1276  -11.7050    4.5565 H   0  0  0  0  0  0  0  0  0  0  0  0
    2.9468   -9.6180    7.3209 H   0  0  0  0  0  0  0  0  0  0  0  0
    2.4052  -11.1872    6.8399 H   0  0  0  0  0  0  0  0  0  0  0  0
    4.6883   -4.7536    4.4409 H   0  0  0  0  0  0  0  0  0  0  0  0
    4.7082   -5.9197    1.1234 H   0  0  0  0  0  0  0  0  0  0  0  0
    4.9844   -6.3436    2.7919 H   0  0  0  0  0  0  0  0  0  0  0  0
    5.9433   -5.0891    2.1603 H   0  0  0  0  0  0  0  0  0  0  0  0
    1.9271   -5.3565    1.7234 H   0  0  0  0  0  0  0  0  0  0  0  0
    1.8296   -3.6964    1.9861 H   0  0  0  0  0  0  0  0  0  0  0  0
    3.4006   -5.1250   -0.2340 H   0  0  0  0  0  0  0  0  0  0  0  0
    1.8149   -4.4498   -0.3302 H   0  0  0  0  0  0  0  0  0  0  0  0
    2.6342   -2.2400    0.1876 H   0  0  0  0  0  0  0  0  0  0  0  0
    2.3350   -2.7688   -3.4897 H   0  0  0  0  0  0  0  0  0  0  0  0
    1.4357   -2.6988   -1.9766 H   0  0  0  0  0  0  0  0  0  0  0  0
    2.1694   -4.2032   -2.5074 H   0  0  0  0  0  0  0  0  0  0  0  0
    3.4124   -0.9544   -3.0286 H   0  0  0  0  0  0  0  0  0  0  0  0
    4.8251   -0.9019   -2.0001 H   0  0  0  0  0  0  0  0  0  0  0  0
    3.1969   -0.7037   -1.3154 H   0  0  0  0  0  0  0  0  0  0  0  0
    4.6123   -4.6261   -2.1037 H   0  0  0  0  0  0  0  0  0  0  0  0
    4.2795   -3.5959   -4.0025 H   0  0  0  0  0  0  0  0  0  0  0  0
    6.9337   -3.9056   -1.7531 H   0  0  0  0  0  0  0  0  0  0  0  0
    6.4920   -2.2085   -1.6274 H   0  0  0  0  0  0  0  0  0  0  0  0
    5.7888   -4.5503    0.1074 H   0  0  0  0  0  0  0  0  0  0  0  0
    6.8311   -3.2442    0.6537 H   0  0  0  0  0  0  0  0  0  0  0  0
    5.7556   -0.8827    1.4976 H   0  0  0  0  0  0  0  0  0  0  0  0
    4.2545   -0.5260    0.6306 H   0  0  0  0  0  0  0  0  0  0  0  0
    5.7358   -0.8932   -0.2388 H   0  0  0  0  0  0  0  0  0  0  0  0
    5.4514   -2.9252    2.7028 H   0  0  0  0  0  0  0  0  0  0  0  0
    4.0217   -0.8526    2.7984 H   0  0  0  0  0  0  0  0  0  0  0  0
    2.6157   -1.7962    2.5128 H   0  0  0  0  0  0  0  0  0  0  0  0
    3.0046   -1.2143    4.8641 H   0  0  0  0  0  0  0  0  0  0  0  0
    4.6274   -1.8260    4.7733 H   0  0  0  0  0  0  0  0  0  0  0  0
  2  1  1  1
  1 30  1  0
  1 31  1  0
  1 32  1  0
  2 12  1  0
  2 29  1  0
  2  3  1  0
  3  4  1  0
  3 33  1  0
  3 34  1  0
  4  5  1  0
  4 35  1  0
  4 36  1  0
  5  6  1  0
  5 12  1  0
  5 37  1  1
  6  7  2  3
  6 38  1  0
  7  8  1  0
  8  9  2  3
  9 10  1  0
  9 11  1  0
 10 39  1  0
 10 40  1  0
 11 41  1  0
 11 42  1  0
 12 13  1  0
 12 43  1  1
 13 27  1  0
 13 14  1  6
 13 15  1  0
 14 44  1  0
 14 45  1  0
 14 46  1  0
 15 16  1  0
 15 47  1  0
 15 48  1  0
 16 17  1  0
 16 49  1  0
 16 50  1  0
 17 25  1  0
 17 18  1  0
 17 51  1  1
 18 19  1  0
 18 20  1  0
 18 21  1  0
 19 52  1  0
 19 53  1  0
 19 54  1  0
 20 55  1  0
 20 56  1  0
 20 57  1  0
 21 22  1  0
 21 23  1  0
 21 58  1  6
 22 59  1  0
 23 24  1  0
 23 60  1  0
 23 61  1  0
 24 25  1  0
 24 62  1  0
 24 63  1  0
 25 26  1  1
 25 27  1  0
 26 64  1  0
 26 65  1  0
 26 66  1  0
 27 28  1  0
 27 67  1  1
 28 29  1  0
 28 68  1  0
 28 69  1  0
 29 70  1  0
 29 71  1  0
M  END
>  <i_m_ct_stereo_status>  (206) 
1

>  <s_m_source_file>  (206) 
/var/tmp/pbs.5076255.sched01/tmpguyree9i/45_f3p7e6s.sdf

>  <i_m_source_file_index>  (206) 
41

>  <i_lp_mmshare_version>  (206) 
48012

>  <i_f3d_flags>  (206) 
0

>  <s_epik_input>  (206) 
W05IMl1DKFtOSDJdKT1OXE49W0NIXVxbQ0BIXShbQ0gyXVtDSDJdMSlbQ0BIXShbQ0BdMTJbQ0gzXSlbQ0BdMyhbQ0gzXSlbQ0BIXShbQ0gyXVtDSDJdMilbQ0BdNChbQ0gzXSlbQ0BIXShbQ0gyXVtDSDJdMylDKFtDSDNdKShbQ0gzXSlbQ0BASF0oW09IXSlbQ0gyXVtDSDJdNA==

>  <s_epik_cmdline>  (206) 
J2VwaWtfcHl0aG9uJywgJy1waHQnLCAnMi4wJywgJy1waCcsICc3LjAnLCAnLXRuJywgJzgnLCAnLW1hJywgJzIwMCcsICctaW1hZScsICc8aW5maWxlLm1hZT4nLCAnLW9tYWUnLCAnPG91dGZpbGUubWFlPic=

>  <r_epik_Ionization_Penalty>  (206) 
0.473302

>  <r_epik_Ionization_Penalty_Charging>  (206) 
0

>  <r_epik_Ionization_Penalty_Neutral>  (206) 
0.473302

>  <r_epik_State_Penalty>  (206) 
0.478

>  <r_epik_Charging_Adjusted_Penalty>  (206) 
0.478

>  <i_epik_Tot_Q>  (206) 
0

>  <i_epik_Tot_abs_Q>  (206) 
0

>  <s_epik_Chemistry_Notes>  (206) 
This compound has an imine and may undergo hydrolysis.

>  <s_lp_Force_Field>  (206) 
OPLS3e

>  <r_lp_Energy>  (206) 
91.4275

>  <b_lp_Chiralities_Consistent>  (206) 
1

>  <s_lp_Variant>  (206) 
57:0-4

>  <s_i_glide_gridfile>  (206) 
pfpi4k_grid

>  <i_i_glide_lignum>  (206) 
41

>  <i_i_glide_rotatable_bonds>  (206) 
3

>  <r_i_docking_score>  (206) 
-3.04043

>  <r_i_glide_ligand_efficiency>  (206) 
-0.104842

>  <r_i_glide_ligand_efficiency_sa>  (206) 
-0.322109

>  <r_i_glide_ligand_efficiency_ln>  (206) 
-0.696181

>  <r_i_glide_gscore>  (206) 
-3.04043

>  <r_i_glide_lipo>  (206) 
-0.476688

>  <r_i_glide_hbond>  (206) 
-0.16

>  <r_i_glide_metal>  (206) 
-0

>  <r_i_glide_rewards>  (206) 
-0.663979

>  <r_i_glide_evdw>  (206) 
-25.3121

>  <r_i_glide_ecoul>  (206) 
-5.34537

>  <r_i_glide_erotb>  (206) 
0.242141

>  <r_i_glide_esite>  (206) 
-0.12102

>  <r_i_glide_emodel>  (206) 
-32.1721

>  <r_i_glide_energy>  (206) 
-30.6575

>  <r_i_glide_einternal>  (206) 
4.2302

>  <r_i_glide_intrahb_reward>  (206) 
-0

>  <i_i_glide_confnum>  (206) 
4

>  <i_i_glide_posenum>  (206) 
4

>  <r_i_glide_eff_state_penalty>  (206) 
0

>  <ligand_id>  (206) 
57

>  <original_smiles>  (206) 
CC12CCC(C=NN=C(N)N)C1C1(C)CCC3C(C)(C)C(O)CCC3(C)C1CC2

>  <smiles>  (206) 
[H]OC1([H])C([H])([H])C([H])([H])C2(C([H])([H])[H])C([H])(C([H])([H])C([H])([H])C3(C([H])([H])[H])C4([H])C([H])(C([H])=NN=C(N([H])[H])N([H])[H])C([H])([H])C([H])([H])C4(C([H])([H])[H])C([H])([H])C([H])([H])C32[H])C1(C([H])([H])[H])C([H])([H])[H]

$$$$
57:3:2
     RDKit          3D

 71 74  0  0  1  0  0  0  0  0999 V2000
    8.6771   -6.5954    4.5089 C   0  0  0  0  0  0  0  0  0  0  0  0
    7.4046   -7.3514    4.0655 C   0  0  2  0  0  0  0  0  0  0  0  0
    7.7804   -8.2374    2.8753 C   0  0  0  0  0  0  0  0  0  0  0  0
    7.6405   -7.3256    1.6287 C   0  0  0  0  0  0  0  0  0  0  0  0
    6.9969   -5.9862    2.0707 C   0  0  1  0  0  0  0  0  0  0  0  0
    6.0223   -5.4328    1.0181 C   0  0  0  0  0  0  0  0  0  0  0  0
    6.0280   -4.3133    0.3633 N   0  0  0  0  0  0  0  0  0  0  0  0
    7.1145   -3.4769    0.6695 N   0  0  0  0  0  0  0  0  0  0  0  0
    7.5528   -2.9850   -0.4298 C   0  0  0  0  0  0  0  0  0  0  0  0
    7.0617   -3.1475   -1.7238 N   0  0  0  0  0  0  0  0  0  0  0  0
    8.6852   -2.2347   -0.3534 N   0  0  0  0  0  0  0  0  0  0  0  0
    6.3694   -6.3464    3.4576 C   0  0  1  0  0  0  0  0  0  0  0  0
    4.8644   -6.7615    3.4766 C   0  0  1  0  0  0  0  0  0  0  0  0
    4.1220   -5.3808    3.3339 C   0  0  0  0  0  0  0  0  0  0  0  0
    4.4114   -7.8279    2.4003 C   0  0  0  0  0  0  0  0  0  0  0  0
    2.9239   -8.0797    2.4250 C   0  0  0  0  0  0  0  0  0  0  0  0
    2.5237   -8.7003    3.7750 C   0  0  2  0  0  0  0  0  0  0  0  0
    1.0037   -9.1060    3.8387 C   0  0  0  0  0  0  0  0  0  0  0  0
    0.6221   -9.8556    2.5466 C   0  0  0  0  0  0  0  0  0  0  0  0
    0.7428  -10.1257    4.9692 C   0  0  0  0  0  0  0  0  0  0  0  0
    0.1249   -7.8278    4.0000 C   0  0  1  0  0  0  0  0  0  0  0  0
   -1.2163   -8.2237    4.1623 O   0  0  0  0  0  0  0  0  0  0  0  0
    0.5301   -6.9699    5.2221 C   0  0  0  0  0  0  0  0  0  0  0  0
    2.0069   -6.5902    5.1577 C   0  0  0  0  0  0  0  0  0  0  0  0
    2.9664   -7.8233    5.0134 C   0  0  1  0  0  0  0  0  0  0  0  0
    2.8909   -8.6101    6.3518 C   0  0  0  0  0  0  0  0  0  0  0  0
    4.4888   -7.4042    4.8566 C   0  0  1  0  0  0  0  0  0  0  0  0
    5.4615   -8.5845    5.1931 C   0  0  0  0  0  0  0  0  0  0  0  0
    6.8992   -8.1153    5.3057 C   0  0  0  0  0  0  0  0  0  0  0  0
    9.4227   -7.2914    4.8946 H   0  0  0  0  0  0  0  0  0  0  0  0
    8.4506   -5.8592    5.2795 H   0  0  0  0  0  0  0  0  0  0  0  0
    9.1441   -6.0766    3.6840 H   0  0  0  0  0  0  0  0  0  0  0  0
    8.7948   -8.6283    2.9704 H   0  0  0  0  0  0  0  0  0  0  0  0
    7.1338   -9.1027    2.7863 H   0  0  0  0  0  0  0  0  0  0  0  0
    8.6238   -7.1175    1.1894 H   0  0  0  0  0  0  0  0  0  0  0  0
    7.0490   -7.8404    0.8928 H   0  0  0  0  0  0  0  0  0  0  0  0
    7.7690   -5.2981    2.2648 H   0  0  0  0  0  0  0  0  0  0  0  0
    5.1302   -5.9061    0.8128 H   0  0  0  0  0  0  0  0  0  0  0  0
    6.3055   -3.7932   -1.9102 H   0  0  0  0  0  0  0  0  0  0  0  0
    7.6666   -3.0409   -2.5350 H   0  0  0  0  0  0  0  0  0  0  0  0
    9.1446   -2.1853    0.5435 H   0  0  0  0  0  0  0  0  0  0  0  0
    9.3134   -2.1342   -1.1326 H   0  0  0  0  0  0  0  0  0  0  0  0
    6.4407   -5.4604    4.1125 H   0  0  0  0  0  0  0  0  0  0  0  0
    3.2178   -5.4543    2.7422 H   0  0  0  0  0  0  0  0  0  0  0  0
    4.6579   -4.5933    2.8663 H   0  0  0  0  0  0  0  0  0  0  0  0
    3.9077   -4.9512    4.3289 H   0  0  0  0  0  0  0  0  0  0  0  0
    4.5232   -7.5934    1.3440 H   0  0  0  0  0  0  0  0  0  0  0  0
    4.9905   -8.7280    2.4484 H   0  0  0  0  0  0  0  0  0  0  0  0
    2.3064   -7.2164    2.2084 H   0  0  0  0  0  0  0  0  0  0  0  0
    2.7105   -8.7437    1.5798 H   0  0  0  0  0  0  0  0  0  0  0  0
    3.1137   -9.6241    3.7937 H   0  0  0  0  0  0  0  0  0  0  0  0
   -0.3442  -10.3391    2.6702 H   0  0  0  0  0  0  0  0  0  0  0  0
    1.3600  -10.6332    2.3291 H   0  0  0  0  0  0  0  0  0  0  0  0
    0.5365   -9.1925    1.6855 H   0  0  0  0  0  0  0  0  0  0  0  0
   -0.0808  -10.7660    4.7692 H   0  0  0  0  0  0  0  0  0  0  0  0
    0.4659   -9.6421    5.8939 H   0  0  0  0  0  0  0  0  0  0  0  0
    1.6175  -10.7554    5.1269 H   0  0  0  0  0  0  0  0  0  0  0  0
    0.1877   -7.1990    3.1031 H   0  0  0  0  0  0  0  0  0  0  0  0
   -1.2062   -9.0890    4.5728 H   0  0  0  0  0  0  0  0  0  0  0  0
   -0.0589   -6.0582    5.2679 H   0  0  0  0  0  0  0  0  0  0  0  0
    0.3026   -7.4812    6.1590 H   0  0  0  0  0  0  0  0  0  0  0  0
    1.9785   -5.9270    4.3343 H   0  0  0  0  0  0  0  0  0  0  0  0
    2.3228   -6.0078    6.0287 H   0  0  0  0  0  0  0  0  0  0  0  0
    3.5249   -8.1900    7.1068 H   0  0  0  0  0  0  0  0  0  0  0  0
    3.1702   -9.6484    6.1680 H   0  0  0  0  0  0  0  0  0  0  0  0
    1.9304   -8.5866    6.8102 H   0  0  0  0  0  0  0  0  0  0  0  0
    4.6724   -6.6544    5.6490 H   0  0  0  0  0  0  0  0  0  0  0  0
    5.2745   -9.0441    6.1589 H   0  0  0  0  0  0  0  0  0  0  0  0
    5.3550   -9.3934    4.4793 H   0  0  0  0  0  0  0  0  0  0  0  0
    7.5386   -8.9764    5.5276 H   0  0  0  0  0  0  0  0  0  0  0  0
    6.9610   -7.4775    6.1891 H   0  0  0  0  0  0  0  0  0  0  0  0
  2  1  1  1
  1 30  1  0
  1 31  1  0
  1 32  1  0
  2 12  1  0
  2 29  1  0
  2  3  1  0
  3  4  1  0
  3 33  1  0
  3 34  1  0
  4  5  1  0
  4 35  1  0
  4 36  1  0
  5  6  1  0
  5 12  1  0
  5 37  1  1
  6  7  2  3
  6 38  1  0
  7  8  1  0
  8  9  2  3
  9 10  1  0
  9 11  1  0
 10 39  1  0
 10 40  1  0
 11 41  1  0
 11 42  1  0
 12 13  1  0
 12 43  1  1
 13 27  1  0
 13 14  1  6
 13 15  1  0
 14 44  1  0
 14 45  1  0
 14 46  1  0
 15 16  1  0
 15 47  1  0
 15 48  1  0
 16 17  1  0
 16 49  1  0
 16 50  1  0
 17 25  1  0
 17 18  1  0
 17 51  1  1
 18 19  1  0
 18 20  1  0
 18 21  1  0
 19 52  1  0
 19 53  1  0
 19 54  1  0
 20 55  1  0
 20 56  1  0
 20 57  1  0
 21 22  1  0
 21 23  1  0
 21 58  1  6
 22 59  1  0
 23 24  1  0
 23 60  1  0
 23 61  1  0
 24 25  1  0
 24 62  1  0
 24 63  1  0
 25 26  1  1
 25 27  1  0
 26 64  1  0
 26 65  1  0
 26 66  1  0
 27 28  1  0
 27 67  1  1
 28 29  1  0
 28 68  1  0
 28 69  1  0
 29 70  1  0
 29 71  1  0
M  END
>  <i_m_ct_stereo_status>  (207) 
1

>  <s_m_source_file>  (207) 
/var/tmp/pbs.5076255.sched01/tmpguyree9i/45_f3p7e6s.sdf

>  <i_m_source_file_index>  (207) 
41

>  <i_lp_mmshare_version>  (207) 
48012

>  <i_f3d_flags>  (207) 
0

>  <s_epik_input>  (207) 
W05IMl1DKFtOSDJdKT1OXE49W0NIXVxbQ0BIXShbQ0gyXVtDSDJdMSlbQ0BIXShbQ0BdMTJbQ0gzXSlbQ0BdMyhbQ0gzXSlbQ0BIXShbQ0gyXVtDSDJdMilbQ0BdNChbQ0gzXSlbQ0BIXShbQ0gyXVtDSDJdMylDKFtDSDNdKShbQ0gzXSlbQ0BASF0oW09IXSlbQ0gyXVtDSDJdNA==

>  <s_epik_cmdline>  (207) 
J2VwaWtfcHl0aG9uJywgJy1waHQnLCAnMi4wJywgJy1waCcsICc3LjAnLCAnLXRuJywgJzgnLCAnLW1hJywgJzIwMCcsICctaW1hZScsICc8aW5maWxlLm1hZT4nLCAnLW9tYWUnLCAnPG91dGZpbGUubWFlPic=

>  <r_epik_Ionization_Penalty>  (207) 
0.473302

>  <r_epik_Ionization_Penalty_Charging>  (207) 
0

>  <r_epik_Ionization_Penalty_Neutral>  (207) 
0.473302

>  <r_epik_State_Penalty>  (207) 
0.478

>  <r_epik_Charging_Adjusted_Penalty>  (207) 
0.478

>  <i_epik_Tot_Q>  (207) 
0

>  <i_epik_Tot_abs_Q>  (207) 
0

>  <s_epik_Chemistry_Notes>  (207) 
This compound has an imine and may undergo hydrolysis.

>  <s_lp_Force_Field>  (207) 
OPLS3e

>  <r_lp_Energy>  (207) 
91.4275

>  <b_lp_Chiralities_Consistent>  (207) 
1

>  <s_lp_Variant>  (207) 
57:0-4

>  <s_i_glide_gridfile>  (207) 
pfpi4k_grid

>  <i_i_glide_lignum>  (207) 
41

>  <i_i_glide_rotatable_bonds>  (207) 
3

>  <r_i_docking_score>  (207) 
-2.50268

>  <r_i_glide_ligand_efficiency>  (207) 
-0.0862994

>  <r_i_glide_ligand_efficiency_sa>  (207) 
-0.265139

>  <r_i_glide_ligand_efficiency_ln>  (207) 
-0.573051

>  <r_i_glide_gscore>  (207) 
-2.50268

>  <r_i_glide_lipo>  (207) 
-0.242985

>  <r_i_glide_hbond>  (207) 
-0.475898

>  <r_i_glide_metal>  (207) 
-0

>  <r_i_glide_rewards>  (207) 
-0.794641

>  <r_i_glide_evdw>  (207) 
-27.3371

>  <r_i_glide_ecoul>  (207) 
-6.44085

>  <r_i_glide_erotb>  (207) 
0.242141

>  <r_i_glide_esite>  (207) 
-0.0900879

>  <r_i_glide_emodel>  (207) 
-32.6864

>  <r_i_glide_energy>  (207) 
-33.7779

>  <r_i_glide_einternal>  (207) 
3.89131

>  <r_i_glide_intrahb_reward>  (207) 
-0

>  <i_i_glide_confnum>  (207) 
4

>  <i_i_glide_posenum>  (207) 
31

>  <r_i_glide_eff_state_penalty>  (207) 
0

>  <ligand_id>  (207) 
57

>  <original_smiles>  (207) 
CC12CCC(C=NN=C(N)N)C1C1(C)CCC3C(C)(C)C(O)CCC3(C)C1CC2

>  <smiles>  (207) 
[H]OC1([H])C([H])([H])C([H])([H])C2(C([H])([H])[H])C([H])(C([H])([H])C([H])([H])C3(C([H])([H])[H])C4([H])C([H])(C([H])=NN=C(N([H])[H])N([H])[H])C([H])([H])C([H])([H])C4(C([H])([H])[H])C([H])([H])C([H])([H])C32[H])C1(C([H])([H])[H])C([H])([H])[H]

$$$$
58:0:0
     RDKit          3D

 36 39  0  0  1  0  0  0  0  0999 V2000
   -6.5553   -5.4991   -5.0598 N   0  0  0  0  0  0  0  0  0  0  0  0
   -6.1454   -6.7734   -5.3280 C   0  0  0  0  0  0  0  0  0  0  0  0
   -6.9633   -7.5106   -6.0705 N   0  0  0  0  0  0  0  0  0  0  0  0
   -6.5583   -8.7606   -6.3889 C   0  0  0  0  0  0  0  0  0  0  0  0
   -7.4843   -9.6279   -7.2540 C   0  0  2  0  0  0  0  0  0  0  0  0
   -8.5803   -8.7637   -7.9476 C   0  0  0  0  0  0  0  0  0  0  0  0
   -9.5047   -9.6357   -8.8116 C   0  0  1  0  0  0  0  0  0  0  0  0
   -8.6740  -10.3226   -9.9113 C   0  0  0  0  0  0  0  0  0  0  0  0
   -7.5983  -11.2045   -9.2515 C   0  0  2  0  0  0  0  0  0  0  0  0
   -8.2575  -12.2793   -8.3666 C   0  0  0  0  0  0  0  0  0  0  0  0
   -9.0983  -11.5851   -7.2776 C   0  0  2  0  0  0  0  0  0  0  0  0
  -10.1796  -10.6964   -7.9206 C   0  0  0  0  0  0  0  0  0  0  0  0
   -8.1765  -10.7157   -6.3942 C   0  0  0  0  0  0  0  0  0  0  0  0
   -6.6752  -10.3290   -8.3815 C   0  0  0  0  0  0  0  0  0  0  0  0
   -5.3383   -9.2656   -5.8967 C   0  0  0  0  0  0  0  0  0  0  0  0
   -4.5670   -8.3929   -5.1152 C   0  0  0  0  0  0  0  0  0  0  0  0
   -4.9673   -7.1346   -4.8371 N   0  0  0  0  0  0  0  0  0  0  0  0
   -7.4425   -5.1853   -5.4153 H   0  0  0  0  0  0  0  0  0  0  0  0
   -5.9912   -4.8978   -4.4821 H   0  0  0  0  0  0  0  0  0  0  0  0
   -9.1882   -8.2549   -7.1988 H   0  0  0  0  0  0  0  0  0  0  0  0
   -8.1199   -7.9860   -8.5589 H   0  0  0  0  0  0  0  0  0  0  0  0
  -10.2659   -9.0037   -9.2659 H   0  0  0  0  0  0  0  0  0  0  0  0
   -9.3194  -10.9245  -10.5516 H   0  0  0  0  0  0  0  0  0  0  0  0
   -8.2053   -9.5727  -10.5505 H   0  0  0  0  0  0  0  0  0  0  0  0
   -7.0017  -11.6933  -10.0203 H   0  0  0  0  0  0  0  0  0  0  0  0
   -8.8781  -12.9384   -8.9723 H   0  0  0  0  0  0  0  0  0  0  0  0
   -7.4916  -12.9070   -7.9101 H   0  0  0  0  0  0  0  0  0  0  0  0
   -9.5847  -12.3418   -6.6665 H   0  0  0  0  0  0  0  0  0  0  0  0
  -10.7701  -10.2161   -7.1402 H   0  0  0  0  0  0  0  0  0  0  0  0
  -10.8739  -11.2981   -8.5071 H   0  0  0  0  0  0  0  0  0  0  0  0
   -7.4252  -11.3500   -5.9188 H   0  0  0  0  0  0  0  0  0  0  0  0
   -8.7451  -10.2591   -5.5858 H   0  0  0  0  0  0  0  0  0  0  0  0
   -6.1829   -9.5780   -9.0017 H   0  0  0  0  0  0  0  0  0  0  0  0
   -5.8858  -10.9676   -7.9776 H   0  0  0  0  0  0  0  0  0  0  0  0
   -5.0065  -10.2713   -6.0841 H   0  0  0  0  0  0  0  0  0  0  0  0
   -3.6187   -8.7236   -4.7214 H   0  0  0  0  0  0  0  0  0  0  0  0
  1  2  1  0
  1 19  1  0
  1 18  1  0
  2  3  2  0
  2 17  1  0
  3  4  1  0
  5  4  1  1
  4 15  2  0
  5 13  1  0
  5 14  1  0
  5  6  1  0
  6  7  1  0
  6 20  1  0
  6 21  1  0
  7 12  1  0
  7  8  1  0
  7 22  1  6
  8  9  1  0
  8 23  1  0
  8 24  1  0
  9 10  1  0
  9 14  1  0
  9 25  1  6
 10 11  1  0
 10 26  1  0
 10 27  1  0
 11 12  1  0
 11 13  1  0
 11 28  1  1
 12 29  1  0
 12 30  1  0
 13 31  1  0
 13 32  1  0
 14 33  1  0
 14 34  1  0
 15 35  1  0
 15 16  1  0
 16 36  1  0
 16 17  2  0
M  END
>  <i_m_ct_stereo_status>  (208) 
1

>  <s_m_source_file>  (208) 
/var/tmp/pbs.5076255.sched01/tmpguyree9i/45_f3p7e6s.sdf

>  <i_m_source_file_index>  (208) 
42

>  <i_lp_mmshare_version>  (208) 
48012

>  <i_f3d_flags>  (208) 
0

>  <s_epik_input>  (208) 
W0hdL049YzFcbmMoW2NIXVtjSF1bbkhdMSlDMjNbQ0gyXVtDQEhdNFtDSDJdW0NAQEhdKFtDSDJdMylbQ0gyXVtDQEhdKFtDSDJdNClbQ0gyXTI=

>  <s_epik_cmdline>  (208) 
J2VwaWtfcHl0aG9uJywgJy1waHQnLCAnMi4wJywgJy1waCcsICc3LjAnLCAnLXRuJywgJzgnLCAnLW1hJywgJzIwMCcsICctaW1hZScsICc8aW5maWxlLm1hZT4nLCAnLW9tYWUnLCAnPG91dGZpbGUubWFlPic=

>  <r_lp_tautomer_probability>  (208) 
1

>  <r_epik_Ionization_Penalty>  (208) 
0.0153692

>  <r_epik_Ionization_Penalty_Charging>  (208) 
0

>  <r_epik_Ionization_Penalty_Neutral>  (208) 
0.0153692

>  <r_epik_State_Penalty>  (208) 
0.00999238

>  <r_epik_Charging_Adjusted_Penalty>  (208) 
0.00999238

>  <i_epik_Tot_Q>  (208) 
0

>  <i_epik_Tot_abs_Q>  (208) 
0

>  <s_lp_Force_Field>  (208) 
OPLS3e

>  <r_lp_Energy>  (208) 
13.3597

>  <b_lp_Chiralities_Consistent>  (208) 
1

>  <s_lp_Variant>  (208) 
58:0-1

>  <s_i_glide_gridfile>  (208) 
pfpi4k_grid

>  <i_i_glide_lignum>  (208) 
42

>  <i_i_glide_rotatable_bonds>  (208) 
1

>  <r_i_docking_score>  (208) 
-5.83115

>  <r_i_glide_ligand_efficiency>  (208) 
-0.343009

>  <r_i_glide_ligand_efficiency_sa>  (208) 
-0.881973

>  <r_i_glide_ligand_efficiency_ln>  (208) 
-1.52122

>  <r_i_glide_gscore>  (208) 
-5.83115

>  <r_i_glide_lipo>  (208) 
-1.1973

>  <r_i_glide_hbond>  (208) 
-0.0786107

>  <r_i_glide_metal>  (208) 
-0

>  <r_i_glide_rewards>  (208) 
-3.18824

>  <r_i_glide_evdw>  (208) 
-26.1555

>  <r_i_glide_ecoul>  (208) 
-2.55765

>  <r_i_glide_erotb>  (208) 
0.324417

>  <r_i_glide_esite>  (208) 
0

>  <r_i_glide_emodel>  (208) 
-37.1226

>  <r_i_glide_energy>  (208) 
-28.7131

>  <r_i_glide_einternal>  (208) 
2.95189

>  <r_i_glide_intrahb_reward>  (208) 
-0

>  <i_i_glide_confnum>  (208) 
5

>  <i_i_glide_posenum>  (208) 
37

>  <r_i_glide_eff_state_penalty>  (208) 
0

>  <ligand_id>  (208) 
58

>  <original_smiles>  (208) 
N=c1nc(C23CC4CC(CC(C4)C2)C3)cc[nH]1

>  <smiles>  (208) 
[H]c1nc(N([H])[H])nc(C23C([H])([H])C4([H])C([H])([H])C([H])(C([H])([H])C([H])(C4([H])[H])C2([H])[H])C3([H])[H])c1[H]

$$$$
58:0:1
     RDKit          3D

 36 39  0  0  1  0  0  0  0  0999 V2000
   -5.6337   -6.5706   -4.7361 N   0  0  0  0  0  0  0  0  0  0  0  0
   -6.7390   -5.9551   -5.2519 C   0  0  0  0  0  0  0  0  0  0  0  0
   -7.2882   -6.5075   -6.3330 N   0  0  0  0  0  0  0  0  0  0  0  0
   -8.3991   -5.9233   -6.8344 C   0  0  0  0  0  0  0  0  0  0  0  0
   -9.0637   -6.5840   -8.0569 C   0  0  2  0  0  0  0  0  0  0  0  0
  -10.5981   -6.3194   -8.0781 C   0  0  0  0  0  0  0  0  0  0  0  0
  -11.2543   -6.9912   -9.2966 C   0  0  1  0  0  0  0  0  0  0  0  0
  -10.6450   -6.3967  -10.5799 C   0  0  0  0  0  0  0  0  0  0  0  0
   -9.1306   -6.6646  -10.5954 C   0  0  2  0  0  0  0  0  0  0  0  0
   -8.8754   -8.1839  -10.5569 C   0  0  0  0  0  0  0  0  0  0  0  0
   -9.5043   -8.7806   -9.2788 C   0  0  2  0  0  0  0  0  0  0  0  0
  -11.0197   -8.5084   -9.2442 C   0  0  0  0  0  0  0  0  0  0  0  0
   -8.8447   -8.1333   -8.0470 C   0  0  0  0  0  0  0  0  0  0  0  0
   -8.4658   -6.0091   -9.3633 C   0  0  0  0  0  0  0  0  0  0  0  0
   -8.8947   -4.7280   -6.2658 C   0  0  0  0  0  0  0  0  0  0  0  0
   -8.2260   -4.2459   -5.1376 C   0  0  0  0  0  0  0  0  0  0  0  0
   -7.1437   -4.8611   -4.6215 N   0  0  0  0  0  0  0  0  0  0  0  0
   -5.3552   -7.4639   -5.1068 H   0  0  0  0  0  0  0  0  0  0  0  0
   -5.2719   -6.2318   -3.8559 H   0  0  0  0  0  0  0  0  0  0  0  0
  -11.0679   -6.6840   -7.1611 H   0  0  0  0  0  0  0  0  0  0  0  0
  -10.8295   -5.2549   -8.1377 H   0  0  0  0  0  0  0  0  0  0  0  0
  -12.3242   -6.7889   -9.2719 H   0  0  0  0  0  0  0  0  0  0  0  0
  -11.1189   -6.8360  -11.4559 H   0  0  0  0  0  0  0  0  0  0  0  0
  -10.8450   -5.3278  -10.6216 H   0  0  0  0  0  0  0  0  0  0  0  0
   -8.6921   -6.2417  -11.4993 H   0  0  0  0  0  0  0  0  0  0  0  0
   -9.2978   -8.6566  -11.4429 H   0  0  0  0  0  0  0  0  0  0  0  0
   -7.8028   -8.3805  -10.5746 H   0  0  0  0  0  0  0  0  0  0  0  0
   -9.3321   -9.8560   -9.2568 H   0  0  0  0  0  0  0  0  0  0  0  0
  -11.4548   -8.9177   -8.3307 H   0  0  0  0  0  0  0  0  0  0  0  0
  -11.5228   -8.9928  -10.0818 H   0  0  0  0  0  0  0  0  0  0  0  0
   -7.7810   -8.3861   -8.0639 H   0  0  0  0  0  0  0  0  0  0  0  0
   -9.2466   -8.5757   -7.1339 H   0  0  0  0  0  0  0  0  0  0  0  0
   -8.5836   -4.9259   -9.3813 H   0  0  0  0  0  0  0  0  0  0  0  0
   -7.3912   -6.1855   -9.3893 H   0  0  0  0  0  0  0  0  0  0  0  0
   -9.7496   -4.2028   -6.6479 H   0  0  0  0  0  0  0  0  0  0  0  0
   -8.5603   -3.3331   -4.6739 H   0  0  0  0  0  0  0  0  0  0  0  0
  1  2  1  0
  1 19  1  0
  1 18  1  0
  2  3  2  0
  2 17  1  0
  3  4  1  0
  5  4  1  1
  4 15  2  0
  5 13  1  0
  5 14  1  0
  5  6  1  0
  6  7  1  0
  6 20  1  0
  6 21  1  0
  7 12  1  0
  7  8  1  0
  7 22  1  6
  8  9  1  0
  8 23  1  0
  8 24  1  0
  9 10  1  0
  9 14  1  0
  9 25  1  6
 10 11  1  0
 10 26  1  0
 10 27  1  0
 11 12  1  0
 11 13  1  0
 11 28  1  1
 12 29  1  0
 12 30  1  0
 13 31  1  0
 13 32  1  0
 14 33  1  0
 14 34  1  0
 15 35  1  0
 15 16  1  0
 16 36  1  0
 16 17  2  0
M  END
>  <i_m_ct_stereo_status>  (209) 
1

>  <s_m_source_file>  (209) 
/var/tmp/pbs.5076255.sched01/tmpguyree9i/45_f3p7e6s.sdf

>  <i_m_source_file_index>  (209) 
42

>  <i_lp_mmshare_version>  (209) 
48012

>  <i_f3d_flags>  (209) 
0

>  <s_epik_input>  (209) 
W0hdL049YzFcbmMoW2NIXVtjSF1bbkhdMSlDMjNbQ0gyXVtDQEhdNFtDSDJdW0NAQEhdKFtDSDJdMylbQ0gyXVtDQEhdKFtDSDJdNClbQ0gyXTI=

>  <s_epik_cmdline>  (209) 
J2VwaWtfcHl0aG9uJywgJy1waHQnLCAnMi4wJywgJy1waCcsICc3LjAnLCAnLXRuJywgJzgnLCAnLW1hJywgJzIwMCcsICctaW1hZScsICc8aW5maWxlLm1hZT4nLCAnLW9tYWUnLCAnPG91dGZpbGUubWFlPic=

>  <r_lp_tautomer_probability>  (209) 
1

>  <r_epik_Ionization_Penalty>  (209) 
0.0153692

>  <r_epik_Ionization_Penalty_Charging>  (209) 
0

>  <r_epik_Ionization_Penalty_Neutral>  (209) 
0.0153692

>  <r_epik_State_Penalty>  (209) 
0.00999238

>  <r_epik_Charging_Adjusted_Penalty>  (209) 
0.00999238

>  <i_epik_Tot_Q>  (209) 
0

>  <i_epik_Tot_abs_Q>  (209) 
0

>  <s_lp_Force_Field>  (209) 
OPLS3e

>  <r_lp_Energy>  (209) 
13.3597

>  <b_lp_Chiralities_Consistent>  (209) 
1

>  <s_lp_Variant>  (209) 
58:0-1

>  <s_i_glide_gridfile>  (209) 
pfpi4k_grid

>  <i_i_glide_lignum>  (209) 
42

>  <i_i_glide_rotatable_bonds>  (209) 
1

>  <r_i_docking_score>  (209) 
-4.97137

>  <r_i_glide_ligand_efficiency>  (209) 
-0.292434

>  <r_i_glide_ligand_efficiency_sa>  (209) 
-0.75193

>  <r_i_glide_ligand_efficiency_ln>  (209) 
-1.29692

>  <r_i_glide_gscore>  (209) 
-4.97137

>  <r_i_glide_lipo>  (209) 
-1.48229

>  <r_i_glide_hbond>  (209) 
0

>  <r_i_glide_metal>  (209) 
-0

>  <r_i_glide_rewards>  (209) 
-2.59259

>  <r_i_glide_evdw>  (209) 
-26.4776

>  <r_i_glide_ecoul>  (209) 
0.686515

>  <r_i_glide_erotb>  (209) 
0.324417

>  <r_i_glide_esite>  (209) 
0

>  <r_i_glide_emodel>  (209) 
-32.9052

>  <r_i_glide_energy>  (209) 
-25.7911

>  <r_i_glide_einternal>  (209) 
2.37894

>  <r_i_glide_intrahb_reward>  (209) 
-0

>  <i_i_glide_confnum>  (209) 
5

>  <i_i_glide_posenum>  (209) 
11

>  <r_i_glide_eff_state_penalty>  (209) 
0

>  <ligand_id>  (209) 
58

>  <original_smiles>  (209) 
N=c1nc(C23CC4CC(CC(C4)C2)C3)cc[nH]1

>  <smiles>  (209) 
[H]c1nc(N([H])[H])nc(C23C([H])([H])C4([H])C([H])([H])C([H])(C([H])([H])C([H])(C4([H])[H])C2([H])[H])C3([H])[H])c1[H]

$$$$
58:0:2
     RDKit          3D

 36 39  0  0  1  0  0  0  0  0999 V2000
   -6.0398   -4.7451   -5.1102 N   0  0  0  0  0  0  0  0  0  0  0  0
   -7.3007   -4.7608   -5.6417 C   0  0  0  0  0  0  0  0  0  0  0  0
   -7.5534   -5.6768   -6.5781 N   0  0  0  0  0  0  0  0  0  0  0  0
   -8.8093   -5.7190   -7.0825 C   0  0  0  0  0  0  0  0  0  0  0  0
   -9.1096   -6.8060   -8.1350 C   0  0  2  0  0  0  0  0  0  0  0  0
   -8.5450   -8.1914   -7.6883 C   0  0  0  0  0  0  0  0  0  0  0  0
   -8.8561   -9.2651   -8.7503 C   0  0  1  0  0  0  0  0  0  0  0  0
  -10.3806   -9.3967   -8.9347 C   0  0  0  0  0  0  0  0  0  0  0  0
  -10.9438   -8.0421   -9.4011 C   0  0  2  0  0  0  0  0  0  0  0  0
  -10.3046   -7.6152  -10.7361 C   0  0  0  0  0  0  0  0  0  0  0  0
   -8.7798   -7.5034  -10.5517 C   0  0  2  0  0  0  0  0  0  0  0  0
   -8.2011   -8.8525  -10.0803 C   0  0  0  0  0  0  0  0  0  0  0  0
   -8.4664   -6.4232   -9.4914 C   0  0  0  0  0  0  0  0  0  0  0  0
  -10.6424   -6.9663   -8.3537 C   0  0  0  0  0  0  0  0  0  0  0  0
   -9.7832   -4.7876   -6.6533 C   0  0  0  0  0  0  0  0  0  0  0  0
   -9.3902   -3.8592   -5.6766 C   0  0  0  0  0  0  0  0  0  0  0  0
   -8.1456   -3.8592   -5.1621 N   0  0  0  0  0  0  0  0  0  0  0  0
   -5.3523   -5.3989   -5.4555 H   0  0  0  0  0  0  0  0  0  0  0  0
   -5.8028   -4.0307   -4.4398 H   0  0  0  0  0  0  0  0  0  0  0  0
   -7.4610   -8.1471   -7.5356 H   0  0  0  0  0  0  0  0  0  0  0  0
   -8.9670   -8.4968   -6.7332 H   0  0  0  0  0  0  0  0  0  0  0  0
   -8.4499  -10.2221   -8.4247 H   0  0  0  0  0  0  0  0  0  0  0  0
  -10.6140  -10.1715   -9.6646 H   0  0  0  0  0  0  0  0  0  0  0  0
  -10.8503   -9.6949   -7.9960 H   0  0  0  0  0  0  0  0  0  0  0  0
  -12.0270   -8.1183   -9.5165 H   0  0  0  0  0  0  0  0  0  0  0  0
  -10.5506   -8.3283  -11.5192 H   0  0  0  0  0  0  0  0  0  0  0  0
  -10.7159   -6.6542  -11.0492 H   0  0  0  0  0  0  0  0  0  0  0  0
   -8.3195   -7.2184  -11.4976 H   0  0  0  0  0  0  0  0  0  0  0  0
   -7.1217   -8.7678   -9.9447 H   0  0  0  0  0  0  0  0  0  0  0  0
   -8.3689   -9.6217  -10.8331 H   0  0  0  0  0  0  0  0  0  0  0  0
   -8.8384   -5.4520   -9.8218 H   0  0  0  0  0  0  0  0  0  0  0  0
   -7.3857   -6.3127   -9.3857 H   0  0  0  0  0  0  0  0  0  0  0  0
  -11.1474   -7.2280   -7.4205 H   0  0  0  0  0  0  0  0  0  0  0  0
  -11.0937   -6.0335   -8.7020 H   0  0  0  0  0  0  0  0  0  0  0  0
  -10.7964   -4.7809   -7.0125 H   0  0  0  0  0  0  0  0  0  0  0  0
  -10.0892   -3.1322   -5.2919 H   0  0  0  0  0  0  0  0  0  0  0  0
  1  2  1  0
  1 19  1  0
  1 18  1  0
  2  3  2  0
  2 17  1  0
  3  4  1  0
  5  4  1  1
  4 15  2  0
  5 13  1  0
  5 14  1  0
  5  6  1  0
  6  7  1  0
  6 20  1  0
  6 21  1  0
  7 12  1  0
  7  8  1  0
  7 22  1  1
  8  9  1  0
  8 23  1  0
  8 24  1  0
  9 10  1  0
  9 14  1  0
  9 25  1  6
 10 11  1  0
 10 26  1  0
 10 27  1  0
 11 12  1  0
 11 13  1  0
 11 28  1  6
 12 29  1  0
 12 30  1  0
 13 31  1  0
 13 32  1  0
 14 33  1  0
 14 34  1  0
 15 35  1  0
 15 16  1  0
 16 36  1  0
 16 17  2  0
M  END
>  <i_m_ct_stereo_status>  (210) 
1

>  <s_m_source_file>  (210) 
/var/tmp/pbs.5076255.sched01/tmpguyree9i/45_f3p7e6s.sdf

>  <i_m_source_file_index>  (210) 
42

>  <i_lp_mmshare_version>  (210) 
48012

>  <i_f3d_flags>  (210) 
0

>  <s_epik_input>  (210) 
W0hdL049YzFcbmMoW2NIXVtjSF1bbkhdMSlDMjNbQ0gyXVtDQEhdNFtDSDJdW0NAQEhdKFtDSDJdMylbQ0gyXVtDQEhdKFtDSDJdNClbQ0gyXTI=

>  <s_epik_cmdline>  (210) 
J2VwaWtfcHl0aG9uJywgJy1waHQnLCAnMi4wJywgJy1waCcsICc3LjAnLCAnLXRuJywgJzgnLCAnLW1hJywgJzIwMCcsICctaW1hZScsICc8aW5maWxlLm1hZT4nLCAnLW9tYWUnLCAnPG91dGZpbGUubWFlPic=

>  <r_lp_tautomer_probability>  (210) 
1

>  <r_epik_Ionization_Penalty>  (210) 
0.0153692

>  <r_epik_Ionization_Penalty_Charging>  (210) 
0

>  <r_epik_Ionization_Penalty_Neutral>  (210) 
0.0153692

>  <r_epik_State_Penalty>  (210) 
0.00999238

>  <r_epik_Charging_Adjusted_Penalty>  (210) 
0.00999238

>  <i_epik_Tot_Q>  (210) 
0

>  <i_epik_Tot_abs_Q>  (210) 
0

>  <s_lp_Force_Field>  (210) 
OPLS3e

>  <r_lp_Energy>  (210) 
13.3597

>  <b_lp_Chiralities_Consistent>  (210) 
1

>  <s_lp_Variant>  (210) 
58:0-1

>  <s_i_glide_gridfile>  (210) 
pfpi4k_grid

>  <i_i_glide_lignum>  (210) 
42

>  <i_i_glide_rotatable_bonds>  (210) 
1

>  <r_i_docking_score>  (210) 
-4.94172

>  <r_i_glide_ligand_efficiency>  (210) 
-0.290689

>  <r_i_glide_ligand_efficiency_sa>  (210) 
-0.747444

>  <r_i_glide_ligand_efficiency_ln>  (210) 
-1.28918

>  <r_i_glide_gscore>  (210) 
-4.94172

>  <r_i_glide_lipo>  (210) 
-1.51669

>  <r_i_glide_hbond>  (210) 
0

>  <r_i_glide_metal>  (210) 
-0

>  <r_i_glide_rewards>  (210) 
-2.55387

>  <r_i_glide_evdw>  (210) 
-25.2148

>  <r_i_glide_ecoul>  (210) 
0.434438

>  <r_i_glide_erotb>  (210) 
0.324417

>  <r_i_glide_esite>  (210) 
0

>  <r_i_glide_emodel>  (210) 
-32.6414

>  <r_i_glide_energy>  (210) 
-24.7803

>  <r_i_glide_einternal>  (210) 
0.840217

>  <r_i_glide_intrahb_reward>  (210) 
-0

>  <i_i_glide_confnum>  (210) 
3

>  <i_i_glide_posenum>  (210) 
2

>  <r_i_glide_eff_state_penalty>  (210) 
0

>  <ligand_id>  (210) 
58

>  <original_smiles>  (210) 
N=c1nc(C23CC4CC(CC(C4)C2)C3)cc[nH]1

>  <smiles>  (210) 
[H]c1nc(N([H])[H])nc(C23C([H])([H])C4([H])C([H])([H])C([H])(C([H])([H])C([H])(C4([H])[H])C2([H])[H])C3([H])[H])c1[H]

$$$$
58:1:0
     RDKit          3D

 37 40  0  0  1  0  0  0  0  0999 V2000
   -7.7255   -4.2896   -4.4797 N   0  0  0  0  0  0  0  0  0  0  0  0
   -7.3834   -5.4402   -5.1313 C   0  0  0  0  0  0  0  0  0  0  0  0
   -8.0331   -5.7359   -6.2581 N   0  0  0  0  0  0  0  0  0  0  0  0
   -7.7064   -6.8512   -6.9428 C   0  0  0  0  0  0  0  0  0  0  0  0
   -8.4835   -7.1309   -8.2413 C   0  0  2  0  0  0  0  0  0  0  0  0
   -9.9737   -7.4382   -7.9529 C   0  0  0  0  0  0  0  0  0  0  0  0
  -10.7399   -7.7453   -9.2490 C   0  0  1  0  0  0  0  0  0  0  0  0
  -10.6652   -6.5211  -10.1822 C   0  0  0  0  0  0  0  0  0  0  0  0
   -9.1869   -6.2177  -10.4972 C   0  0  2  0  0  0  0  0  0  0  0  0
   -8.5471   -7.4314  -11.1823 C   0  0  0  0  0  0  0  0  0  0  0  0
   -8.6462   -8.6603  -10.2700 C   0  0  2  0  0  0  0  0  0  0  0  0
  -10.1129   -8.9756   -9.9309 C   0  0  0  0  0  0  0  0  0  0  0  0
   -7.8837   -8.3649   -8.9761 C   0  0  0  0  0  0  0  0  0  0  0  0
   -8.4251   -5.9081   -9.1948 C   0  0  0  0  0  0  0  0  0  0  0  0
   -6.6882   -7.7043   -6.4521 C   0  0  0  0  0  0  0  0  0  0  0  0
   -6.0520   -7.3467   -5.2585 C   0  0  0  0  0  0  0  0  0  0  0  0
   -6.4177   -6.2098   -4.6164 N   0  0  0  0  0  0  0  0  0  0  0  0
   -7.2943   -4.0590   -3.5950 H   0  0  0  0  0  0  0  0  0  0  0  0
   -8.4902   -3.7310   -4.8285 H   0  0  0  0  0  0  0  0  0  0  0  0
  -10.0479   -8.3021   -7.2886 H   0  0  0  0  0  0  0  0  0  0  0  0
  -10.4541   -6.5869   -7.4644 H   0  0  0  0  0  0  0  0  0  0  0  0
  -11.7843   -7.9583   -9.0061 H   0  0  0  0  0  0  0  0  0  0  0  0
  -11.2214   -6.7184  -11.1001 H   0  0  0  0  0  0  0  0  0  0  0  0
  -11.1410   -5.6642   -9.7042 H   0  0  0  0  0  0  0  0  0  0  0  0
   -9.1237   -5.3650  -11.1680 H   0  0  0  0  0  0  0  0  0  0  0  0
   -9.0420   -7.6415  -12.1234 H   0  0  0  0  0  0  0  0  0  0  0  0
   -7.5011   -7.2109  -11.4010 H   0  0  0  0  0  0  0  0  0  0  0  0
   -8.1879   -9.5225  -10.7492 H   0  0  0  0  0  0  0  0  0  0  0  0
  -10.1645   -9.8368   -9.2635 H   0  0  0  0  0  0  0  0  0  0  0  0
  -10.6650   -9.2392  -10.8305 H   0  0  0  0  0  0  0  0  0  0  0  0
   -6.8269   -8.1957   -9.2149 H   0  0  0  0  0  0  0  0  0  0  0  0
   -7.9439   -9.2610   -8.3513 H   0  0  0  0  0  0  0  0  0  0  0  0
   -8.8594   -5.0263   -8.7249 H   0  0  0  0  0  0  0  0  0  0  0  0
   -7.3928   -5.6522   -9.4273 H   0  0  0  0  0  0  0  0  0  0  0  0
   -6.3835   -8.6180   -6.9395 H   0  0  0  0  0  0  0  0  0  0  0  0
   -5.2727   -7.9407   -4.7902 H   0  0  0  0  0  0  0  0  0  0  0  0
   -5.9585   -5.9628   -3.7396 H   0  0  0  0  0  0  0  0  0  0  0  0
  1  2  1  0
  1 19  1  0
  1 18  1  0
  2  3  2  0
  2 17  1  0
  3  4  1  0
  5  4  1  1
  4 15  2  0
  5 13  1  0
  5 14  1  0
  5  6  1  0
  6  7  1  0
  6 20  1  0
  6 21  1  0
  7 12  1  0
  7  8  1  0
  7 22  1  1
  8  9  1  0
  8 23  1  0
  8 24  1  0
  9 10  1  0
  9 14  1  0
  9 25  1  6
 10 11  1  0
 10 26  1  0
 10 27  1  0
 11 12  1  0
 11 13  1  0
 11 28  1  6
 12 29  1  0
 12 30  1  0
 13 31  1  0
 13 32  1  0
 14 33  1  0
 14 34  1  0
 15 35  1  0
 15 16  1  0
 16 36  1  0
 16 17  2  0
 17 37  1  0
M  CHG  1  17   1
M  END
>  <i_m_ct_stereo_status>  (211) 
1

>  <s_m_source_file>  (211) 
/var/tmp/pbs.5076255.sched01/tmpguyree9i/45_f3p7e6s.sdf

>  <i_m_source_file_index>  (211) 
43

>  <i_lp_mmshare_version>  (211) 
48012

>  <i_f3d_flags>  (211) 
0

>  <s_epik_input>  (211) 
W0hdL049YzFcbmMoW2NIXVtjSF1bbkhdMSlDMjNbQ0gyXVtDQEhdNFtDSDJdW0NAQEhdKFtDSDJdMylbQ0gyXVtDQEhdKFtDSDJdNClbQ0gyXTI=

>  <s_epik_cmdline>  (211) 
J2VwaWtfcHl0aG9uJywgJy1waHQnLCAnMi4wJywgJy1waCcsICc3LjAnLCAnLXRuJywgJzgnLCAnLW1hJywgJzIwMCcsICctaW1hZScsICc8aW5maWxlLm1hZT4nLCAnLW9tYWUnLCAnPG91dGZpbGUubWFlPic=

>  <r_lp_tautomer_probability>  (211) 
0.505494

>  <r_epik_Ionization_Penalty>  (211) 
2.33743

>  <r_epik_Ionization_Penalty_Charging>  (211) 
2.33742

>  <r_epik_Ionization_Penalty_Neutral>  (211) 
2.23309e-06

>  <r_epik_State_Penalty>  (211) 
2.72411

>  <r_epik_Charging_Adjusted_Penalty>  (211) 
5.06153

>  <i_epik_Tot_Q>  (211) 
1

>  <i_epik_Tot_abs_Q>  (211) 
1

>  <s_lp_Force_Field>  (211) 
OPLS3e

>  <r_lp_Energy>  (211) 
16.495

>  <b_lp_Chiralities_Consistent>  (211) 
1

>  <s_lp_Variant>  (211) 
58:0-2

>  <s_i_glide_gridfile>  (211) 
pfpi4k_grid

>  <i_i_glide_lignum>  (211) 
43

>  <i_i_glide_rotatable_bonds>  (211) 
1

>  <r_i_docking_score>  (211) 
-4.93802

>  <r_i_glide_ligand_efficiency>  (211) 
-0.290472

>  <r_i_glide_ligand_efficiency_sa>  (211) 
-0.746885

>  <r_i_glide_ligand_efficiency_ln>  (211) 
-1.28822

>  <r_i_glide_gscore>  (211) 
-4.93802

>  <r_i_glide_lipo>  (211) 
-1.57817

>  <r_i_glide_hbond>  (211) 
0

>  <r_i_glide_metal>  (211) 
-0

>  <r_i_glide_rewards>  (211) 
-2.58785

>  <r_i_glide_evdw>  (211) 
-18.0145

>  <r_i_glide_ecoul>  (211) 
-1.28856

>  <r_i_glide_erotb>  (211) 
0.322012

>  <r_i_glide_esite>  (211) 
0

>  <r_i_glide_emodel>  (211) 
-26.6209

>  <r_i_glide_energy>  (211) 
-19.303

>  <r_i_glide_einternal>  (211) 
0.201296

>  <r_i_glide_intrahb_reward>  (211) 
-0

>  <i_i_glide_confnum>  (211) 
1

>  <i_i_glide_posenum>  (211) 
1

>  <r_i_glide_eff_state_penalty>  (211) 
0

>  <ligand_id>  (211) 
58

>  <original_smiles>  (211) 
N=c1nc(C23CC4CC(CC(C4)C2)C3)cc[nH]1

>  <smiles>  (211) 
[H]c1c(C23C([H])([H])C4([H])C([H])([H])C([H])(C([H])([H])C([H])(C4([H])[H])C2([H])[H])C3([H])[H])nc(N([H])[H])[n+]([H])c1[H]

$$$$
58:1:1
     RDKit          3D

 37 40  0  0  1  0  0  0  0  0999 V2000
   -3.7090   -9.8438   -5.1358 N   0  0  0  0  0  0  0  0  0  0  0  0
   -4.8118   -9.1365   -5.5123 C   0  0  0  0  0  0  0  0  0  0  0  0
   -5.7313   -9.7492   -6.2490 N   0  0  0  0  0  0  0  0  0  0  0  0
   -6.8205   -9.0682   -6.6556 C   0  0  0  0  0  0  0  0  0  0  0  0
   -7.8497   -9.8335   -7.5016 C   0  0  2  0  0  0  0  0  0  0  0  0
   -7.1697  -10.4633   -8.7460 C   0  0  0  0  0  0  0  0  0  0  0  0
   -8.2145  -11.2083   -9.6057 C   0  0  1  0  0  0  0  0  0  0  0  0
   -8.8706  -12.3258   -8.7677 C   0  0  0  0  0  0  0  0  0  0  0  0
   -9.5635  -11.7049   -7.5359 C   0  0  2  0  0  0  0  0  0  0  0  0
  -10.6516  -10.7135   -8.0001 C   0  0  0  0  0  0  0  0  0  0  0  0
  -10.0007   -9.6184   -8.8616 C   0  0  2  0  0  0  0  0  0  0  0  0
   -9.2925  -10.2176  -10.0871 C   0  0  0  0  0  0  0  0  0  0  0  0
   -8.9685   -8.8770   -8.0091 C   0  0  0  0  0  0  0  0  0  0  0  0
   -8.5161  -10.9641   -6.6750 C   0  0  0  0  0  0  0  0  0  0  0  0
   -6.9804   -7.7108   -6.2929 C   0  0  0  0  0  0  0  0  0  0  0  0
   -5.9845   -7.1224   -5.5111 C   0  0  0  0  0  0  0  0  0  0  0  0
   -4.9047   -7.8548   -5.1367 N   0  0  0  0  0  0  0  0  0  0  0  0
   -3.0084   -9.4161   -4.5382 H   0  0  0  0  0  0  0  0  0  0  0  0
   -3.6325  -10.8201   -5.3753 H   0  0  0  0  0  0  0  0  0  0  0  0
   -6.6757   -9.6883   -9.3335 H   0  0  0  0  0  0  0  0  0  0  0  0
   -6.3901  -11.1652   -8.4482 H   0  0  0  0  0  0  0  0  0  0  0  0
   -7.7224  -11.6476  -10.4737 H   0  0  0  0  0  0  0  0  0  0  0  0
   -9.5952  -12.8685   -9.3722 H   0  0  0  0  0  0  0  0  0  0  0  0
   -8.1199  -13.0512   -8.4550 H   0  0  0  0  0  0  0  0  0  0  0  0
  -10.0263  -12.4922   -6.9414 H   0  0  0  0  0  0  0  0  0  0  0  0
  -11.4272  -11.2276   -8.5598 H   0  0  0  0  0  0  0  0  0  0  0  0
  -11.1381  -10.2672   -7.1313 H   0  0  0  0  0  0  0  0  0  0  0  0
  -10.7634   -8.9086   -9.1852 H   0  0  0  0  0  0  0  0  0  0  0  0
   -8.8300   -9.4213  -10.6747 H   0  0  0  0  0  0  0  0  0  0  0  0
  -10.0109  -10.7122  -10.7364 H   0  0  0  0  0  0  0  0  0  0  0  0
   -9.4994   -8.4303   -7.1661 H   0  0  0  0  0  0  0  0  0  0  0  0
   -8.5389   -8.0613   -8.5997 H   0  0  0  0  0  0  0  0  0  0  0  0
   -7.7672  -11.6741   -6.3164 H   0  0  0  0  0  0  0  0  0  0  0  0
   -8.9854  -10.5540   -5.7794 H   0  0  0  0  0  0  0  0  0  0  0  0
   -7.8338   -7.1098   -6.5753 H   0  0  0  0  0  0  0  0  0  0  0  0
   -6.0221   -6.0930   -5.1687 H   0  0  0  0  0  0  0  0  0  0  0  0
   -4.1777   -7.4337   -4.5604 H   0  0  0  0  0  0  0  0  0  0  0  0
  1  2  1  0
  1 19  1  0
  1 18  1  0
  2  3  2  0
  2 17  1  0
  3  4  1  0
  5  4  1  1
  4 15  2  0
  5 13  1  0
  5 14  1  0
  5  6  1  0
  6  7  1  0
  6 20  1  0
  6 21  1  0
  7 12  1  0
  7  8  1  0
  7 22  1  6
  8  9  1  0
  8 23  1  0
  8 24  1  0
  9 10  1  0
  9 14  1  0
  9 25  1  1
 10 11  1  0
 10 26  1  0
 10 27  1  0
 11 12  1  0
 11 13  1  0
 11 28  1  6
 12 29  1  0
 12 30  1  0
 13 31  1  0
 13 32  1  0
 14 33  1  0
 14 34  1  0
 15 35  1  0
 15 16  1  0
 16 36  1  0
 16 17  2  0
 17 37  1  0
M  CHG  1  17   1
M  END
>  <i_m_ct_stereo_status>  (212) 
1

>  <s_m_source_file>  (212) 
/var/tmp/pbs.5076255.sched01/tmpguyree9i/45_f3p7e6s.sdf

>  <i_m_source_file_index>  (212) 
43

>  <i_lp_mmshare_version>  (212) 
48012

>  <i_f3d_flags>  (212) 
0

>  <s_epik_input>  (212) 
W0hdL049YzFcbmMoW2NIXVtjSF1bbkhdMSlDMjNbQ0gyXVtDQEhdNFtDSDJdW0NAQEhdKFtDSDJdMylbQ0gyXVtDQEhdKFtDSDJdNClbQ0gyXTI=

>  <s_epik_cmdline>  (212) 
J2VwaWtfcHl0aG9uJywgJy1waHQnLCAnMi4wJywgJy1waCcsICc3LjAnLCAnLXRuJywgJzgnLCAnLW1hJywgJzIwMCcsICctaW1hZScsICc8aW5maWxlLm1hZT4nLCAnLW9tYWUnLCAnPG91dGZpbGUubWFlPic=

>  <r_lp_tautomer_probability>  (212) 
0.505494

>  <r_epik_Ionization_Penalty>  (212) 
2.33743

>  <r_epik_Ionization_Penalty_Charging>  (212) 
2.33742

>  <r_epik_Ionization_Penalty_Neutral>  (212) 
2.23309e-06

>  <r_epik_State_Penalty>  (212) 
2.72411

>  <r_epik_Charging_Adjusted_Penalty>  (212) 
5.06153

>  <i_epik_Tot_Q>  (212) 
1

>  <i_epik_Tot_abs_Q>  (212) 
1

>  <s_lp_Force_Field>  (212) 
OPLS3e

>  <r_lp_Energy>  (212) 
16.495

>  <b_lp_Chiralities_Consistent>  (212) 
1

>  <s_lp_Variant>  (212) 
58:0-2

>  <s_i_glide_gridfile>  (212) 
pfpi4k_grid

>  <i_i_glide_lignum>  (212) 
43

>  <i_i_glide_rotatable_bonds>  (212) 
1

>  <r_i_docking_score>  (212) 
-4.44524

>  <r_i_glide_ligand_efficiency>  (212) 
-0.261485

>  <r_i_glide_ligand_efficiency_sa>  (212) 
-0.672351

>  <r_i_glide_ligand_efficiency_ln>  (212) 
-1.15967

>  <r_i_glide_gscore>  (212) 
-4.44524

>  <r_i_glide_lipo>  (212) 
-1.20337

>  <r_i_glide_hbond>  (212) 
0

>  <r_i_glide_metal>  (212) 
-0

>  <r_i_glide_rewards>  (212) 
-2.28226

>  <r_i_glide_evdw>  (212) 
-19.425

>  <r_i_glide_ecoul>  (212) 
-2.0629

>  <r_i_glide_erotb>  (212) 
0.322012

>  <r_i_glide_esite>  (212) 
-0.000940591

>  <r_i_glide_emodel>  (212) 
-28.062

>  <r_i_glide_energy>  (212) 
-21.4879

>  <r_i_glide_einternal>  (212) 
0.250791

>  <r_i_glide_intrahb_reward>  (212) 
-0

>  <i_i_glide_confnum>  (212) 
6

>  <i_i_glide_posenum>  (212) 
21

>  <r_i_glide_eff_state_penalty>  (212) 
0

>  <ligand_id>  (212) 
58

>  <original_smiles>  (212) 
N=c1nc(C23CC4CC(CC(C4)C2)C3)cc[nH]1

>  <smiles>  (212) 
[H]c1c(C23C([H])([H])C4([H])C([H])([H])C([H])(C([H])([H])C([H])(C4([H])[H])C2([H])[H])C3([H])[H])nc(N([H])[H])[n+]([H])c1[H]

$$$$
58:1:2
     RDKit          3D

 37 40  0  0  1  0  0  0  0  0999 V2000
   -6.4689   -5.9675   -5.0945 N   0  0  0  0  0  0  0  0  0  0  0  0
   -6.1059   -7.2576   -5.3930 C   0  0  0  0  0  0  0  0  0  0  0  0
   -6.9352   -7.9685   -6.1503 N   0  0  0  0  0  0  0  0  0  0  0  0
   -6.6120   -9.2344   -6.4884 C   0  0  0  0  0  0  0  0  0  0  0  0
   -7.5991  -10.0215   -7.3637 C   0  0  2  0  0  0  0  0  0  0  0  0
   -6.8345  -10.7527   -8.5033 C   0  0  0  0  0  0  0  0  0  0  0  0
   -7.8141  -11.5432   -9.3908 C   0  0  1  0  0  0  0  0  0  0  0  0
   -8.5514  -12.5902   -8.5312 C   0  0  0  0  0  0  0  0  0  0  0  0
   -9.3314  -11.8713   -7.4103 C   0  0  2  0  0  0  0  0  0  0  0  0
  -10.3572  -10.9032   -8.0293 C   0  0  0  0  0  0  0  0  0  0  0  0
   -9.6191   -9.8721   -8.9065 C   0  0  2  0  0  0  0  0  0  0  0  0
   -8.8263  -10.5737  -10.0247 C   0  0  0  0  0  0  0  0  0  0  0  0
   -8.6449   -9.0767   -8.0275 C   0  0  0  0  0  0  0  0  0  0  0  0
   -8.3529  -11.0781   -6.5163 C   0  0  0  0  0  0  0  0  0  0  0  0
   -5.4231   -9.8149   -6.0105 C   0  0  0  0  0  0  0  0  0  0  0  0
   -4.5960   -9.0206   -5.2046 C   0  0  0  0  0  0  0  0  0  0  0  0
   -4.9554   -7.7454   -4.9180 N   0  0  0  0  0  0  0  0  0  0  0  0
   -5.8828   -5.3818   -4.5229 H   0  0  0  0  0  0  0  0  0  0  0  0
   -7.3365   -5.6047   -5.4583 H   0  0  0  0  0  0  0  0  0  0  0  0
   -6.2753  -10.0301   -9.1027 H   0  0  0  0  0  0  0  0  0  0  0  0
   -6.1029  -11.4589   -8.1102 H   0  0  0  0  0  0  0  0  0  0  0  0
   -7.2529  -12.0489  -10.1767 H   0  0  0  0  0  0  0  0  0  0  0  0
   -9.2309  -13.1710   -9.1539 H   0  0  0  0  0  0  0  0  0  0  0  0
   -7.8415  -13.3002   -8.1060 H   0  0  0  0  0  0  0  0  0  0  0  0
   -9.8561  -12.6090   -6.8040 H   0  0  0  0  0  0  0  0  0  0  0  0
  -11.0925  -11.4497   -8.6171 H   0  0  0  0  0  0  0  0  0  0  0  0
  -10.9092  -10.3983   -7.2354 H   0  0  0  0  0  0  0  0  0  0  0  0
  -10.3437   -9.1881   -9.3471 H   0  0  0  0  0  0  0  0  0  0  0  0
   -8.2993   -9.8318  -10.6275 H   0  0  0  0  0  0  0  0  0  0  0  0
   -9.4967  -11.1085  -10.6959 H   0  0  0  0  0  0  0  0  0  0  0  0
   -9.2270   -8.5508   -7.2698 H   0  0  0  0  0  0  0  0  0  0  0  0
   -8.1473   -8.3125   -8.6273 H   0  0  0  0  0  0  0  0  0  0  0  0
   -7.6453  -11.7661   -6.0490 H   0  0  0  0  0  0  0  0  0  0  0  0
   -8.8972  -10.6036   -5.6971 H   0  0  0  0  0  0  0  0  0  0  0  0
   -5.1559  -10.8400   -6.2189 H   0  0  0  0  0  0  0  0  0  0  0  0
   -3.6675   -9.3696   -4.7685 H   0  0  0  0  0  0  0  0  0  0  0  0
   -4.3451   -7.2006   -4.3143 H   0  0  0  0  0  0  0  0  0  0  0  0
  1  2  1  0
  1 19  1  0
  1 18  1  0
  2  3  2  0
  2 17  1  0
  3  4  1  0
  5  4  1  1
  4 15  2  0
  5 13  1  0
  5 14  1  0
  5  6  1  0
  6  7  1  0
  6 20  1  0
  6 21  1  0
  7 12  1  0
  7  8  1  0
  7 22  1  6
  8  9  1  0
  8 23  1  0
  8 24  1  0
  9 10  1  0
  9 14  1  0
  9 25  1  1
 10 11  1  0
 10 26  1  0
 10 27  1  0
 11 12  1  0
 11 13  1  0
 11 28  1  6
 12 29  1  0
 12 30  1  0
 13 31  1  0
 13 32  1  0
 14 33  1  0
 14 34  1  0
 15 35  1  0
 15 16  1  0
 16 36  1  0
 16 17  2  0
 17 37  1  0
M  CHG  1  17   1
M  END
>  <i_m_ct_stereo_status>  (213) 
1

>  <s_m_source_file>  (213) 
/var/tmp/pbs.5076255.sched01/tmpguyree9i/45_f3p7e6s.sdf

>  <i_m_source_file_index>  (213) 
43

>  <i_lp_mmshare_version>  (213) 
48012

>  <i_f3d_flags>  (213) 
0

>  <s_epik_input>  (213) 
W0hdL049YzFcbmMoW2NIXVtjSF1bbkhdMSlDMjNbQ0gyXVtDQEhdNFtDSDJdW0NAQEhdKFtDSDJdMylbQ0gyXVtDQEhdKFtDSDJdNClbQ0gyXTI=

>  <s_epik_cmdline>  (213) 
J2VwaWtfcHl0aG9uJywgJy1waHQnLCAnMi4wJywgJy1waCcsICc3LjAnLCAnLXRuJywgJzgnLCAnLW1hJywgJzIwMCcsICctaW1hZScsICc8aW5maWxlLm1hZT4nLCAnLW9tYWUnLCAnPG91dGZpbGUubWFlPic=

>  <r_lp_tautomer_probability>  (213) 
0.505494

>  <r_epik_Ionization_Penalty>  (213) 
2.33743

>  <r_epik_Ionization_Penalty_Charging>  (213) 
2.33742

>  <r_epik_Ionization_Penalty_Neutral>  (213) 
2.23309e-06

>  <r_epik_State_Penalty>  (213) 
2.72411

>  <r_epik_Charging_Adjusted_Penalty>  (213) 
5.06153

>  <i_epik_Tot_Q>  (213) 
1

>  <i_epik_Tot_abs_Q>  (213) 
1

>  <s_lp_Force_Field>  (213) 
OPLS3e

>  <r_lp_Energy>  (213) 
16.495

>  <b_lp_Chiralities_Consistent>  (213) 
1

>  <s_lp_Variant>  (213) 
58:0-2

>  <s_i_glide_gridfile>  (213) 
pfpi4k_grid

>  <i_i_glide_lignum>  (213) 
43

>  <i_i_glide_rotatable_bonds>  (213) 
1

>  <r_i_docking_score>  (213) 
-4.11244

>  <r_i_glide_ligand_efficiency>  (213) 
-0.241908

>  <r_i_glide_ligand_efficiency_sa>  (213) 
-0.622014

>  <r_i_glide_ligand_efficiency_ln>  (213) 
-1.07284

>  <r_i_glide_gscore>  (213) 
-4.11244

>  <r_i_glide_lipo>  (213) 
-0.986697

>  <r_i_glide_hbond>  (213) 
0

>  <r_i_glide_metal>  (213) 
-0

>  <r_i_glide_rewards>  (213) 
-2.33913

>  <r_i_glide_evdw>  (213) 
-20.6612

>  <r_i_glide_ecoul>  (213) 
-0.503746

>  <r_i_glide_erotb>  (213) 
0.322012

>  <r_i_glide_esite>  (213) 
0

>  <r_i_glide_emodel>  (213) 
-25.8453

>  <r_i_glide_energy>  (213) 
-21.165

>  <r_i_glide_einternal>  (213) 
3.02938

>  <r_i_glide_intrahb_reward>  (213) 
-0

>  <i_i_glide_confnum>  (213) 
6

>  <i_i_glide_posenum>  (213) 
3

>  <r_i_glide_eff_state_penalty>  (213) 
0

>  <ligand_id>  (213) 
58

>  <original_smiles>  (213) 
N=c1nc(C23CC4CC(CC(C4)C2)C3)cc[nH]1

>  <smiles>  (213) 
[H]c1c(C23C([H])([H])C4([H])C([H])([H])C([H])(C([H])([H])C([H])(C4([H])[H])C2([H])[H])C3([H])[H])nc(N([H])[H])[n+]([H])c1[H]

$$$$
59:0:0
     RDKit          3D

 81 89  0  0  1  0  0  0  0  0999 V2000
    4.4178  -10.2338    7.9523 C   0  0  0  0  0  0  0  0  0  0  0  0
    4.5047   -9.2268    6.9479 O   0  0  0  0  0  0  0  0  0  0  0  0
    3.9261   -9.5696    5.6855 C   0  0  2  0  0  0  0  0  0  0  0  0
    4.6601  -10.7409    4.9997 C   0  0  0  0  0  0  0  0  0  0  0  0
    4.3603  -10.7520    3.4927 C   0  0  1  0  0  0  0  0  0  0  0  0
    3.0618  -11.4664    3.2991 C   0  0  0  0  0  0  0  0  0  0  0  0
    1.9030  -10.8200    3.2990 C   0  0  0  0  0  0  0  0  0  0  0  0
    0.5975  -11.5484    3.1506 C   0  0  0  0  0  0  0  0  0  0  0  0
    1.8139   -9.3176    3.4032 C   0  0  0  0  0  0  0  0  0  0  0  0
    3.1367   -8.4463    3.4518 C   0  0  2  0  0  0  0  0  0  0  0  0
    2.6038   -6.9156    3.2052 C   0  0  1  0  0  0  0  0  0  0  0  0
    1.9435   -6.2214    4.4725 C   0  0  0  0  0  0  0  0  0  0  0  0
    2.8148   -5.7857    5.7348 C   0  0  2  0  0  0  0  0  0  0  0  0
    2.1850   -5.9110    7.1080 C   0  0  0  0  0  0  0  0  0  0  0  0
    2.3074   -4.6535    6.4716 O   0  0  0  0  0  0  0  0  0  0  0  0
    4.3243   -5.9284    5.6226 C   0  0  2  0  0  0  0  0  0  0  0  0
    4.9340   -4.8010    4.7946 C   0  0  2  0  0  0  0  0  0  0  0  0
    4.4489   -3.9648    3.7431 O   0  0  0  0  0  0  0  0  0  0  0  0
    3.1451   -3.7413    3.3566 C   0  0  1  0  0  0  0  0  0  0  0  0
    3.0868   -2.3076    2.8711 C   0  0  0  0  0  0  0  0  0  0  0  0
    1.8856   -1.5709    2.9761 C   0  0  0  0  0  0  0  0  0  0  0  0
    1.8568   -0.2338    2.5072 C   0  0  0  0  0  0  0  0  0  0  0  0
    3.0260    0.2939    1.9232 C   0  0  0  0  0  0  0  0  0  0  0  0
    4.1755   -0.3971    1.8073 N   0  0  0  0  0  0  0  0  0  0  0  0
    4.1913   -1.6663    2.2625 C   0  0  0  0  0  0  0  0  0  0  0  0
    2.7120   -4.5276    2.2677 O   0  0  0  0  0  0  0  0  0  0  0  0
    2.9522   -5.9385    1.9991 C   0  0  2  0  0  0  0  0  0  0  0  0
    1.8860   -6.0550    0.8705 C   0  0  0  0  0  0  0  0  0  0  0  0
    4.3060   -6.1721    1.2977 C   0  0  0  0  0  0  0  0  0  0  0  0
    4.4254   -7.0143    0.4175 O   0  0  0  0  0  0  0  0  0  0  0  0
    5.4649   -5.2422    1.5265 C   0  0  0  0  0  0  0  0  0  0  0  0
    6.3692   -5.5923    2.7158 C   0  0  0  0  0  0  0  0  0  0  0  0
    5.7534   -5.8405    4.1290 C   0  0  1  0  0  0  0  0  0  0  0  0
    7.0133   -5.6293    4.7849 O   0  0  0  0  0  0  0  0  0  0  0  0
    4.9201   -7.1300    4.7606 C   0  0  1  0  0  0  0  0  0  0  0  0
    6.0486   -8.0944    4.6004 C   0  0  0  0  0  0  0  0  0  0  0  0
    6.9937   -8.4129    5.3182 O   0  0  0  0  0  0  0  0  0  0  0  0
    5.8562   -8.7379    3.1690 C   0  0  1  0  0  0  0  0  0  0  0  0
    7.0188   -9.6700    2.7431 C   0  0  0  0  0  0  0  0  0  0  0  0
    4.3897   -9.3018    2.8807 C   0  0  1  0  0  0  0  0  0  0  0  0
    4.1990   -9.4749    1.4896 O   0  0  0  0  0  0  0  0  0  0  0  0
    3.7439   -8.2488    4.8146 C   0  0  2  0  0  0  0  0  0  0  0  0
    4.8278   -9.8485    8.8866 H   0  0  0  0  0  0  0  0  0  0  0  0
    4.9912  -11.1250    7.6952 H   0  0  0  0  0  0  0  0  0  0  0  0
    3.3848  -10.5268    8.1433 H   0  0  0  0  0  0  0  0  0  0  0  0
    2.9179   -9.9418    5.8953 H   0  0  0  0  0  0  0  0  0  0  0  0
    5.7337  -10.7286    5.1884 H   0  0  0  0  0  0  0  0  0  0  0  0
    4.3401  -11.6835    5.4612 H   0  0  0  0  0  0  0  0  0  0  0  0
    5.0959  -11.3854    2.9950 H   0  0  0  0  0  0  0  0  0  0  0  0
    3.1025  -12.5420    3.1925 H   0  0  0  0  0  0  0  0  0  0  0  0
   -0.0347  -11.3793    4.0265 H   0  0  0  0  0  0  0  0  0  0  0  0
    0.7250  -12.6274    3.0427 H   0  0  0  0  0  0  0  0  0  0  0  0
    0.0722  -11.1870    2.2640 H   0  0  0  0  0  0  0  0  0  0  0  0
    1.2599   -9.0873    2.4950 H   0  0  0  0  0  0  0  0  0  0  0  0
    1.1616   -9.0798    4.2458 H   0  0  0  0  0  0  0  0  0  0  0  0
    1.6257   -7.1448    2.8099 H   0  0  0  0  0  0  0  0  0  0  0  0
    1.2724   -5.4108    4.1610 H   0  0  0  0  0  0  0  0  0  0  0  0
    1.2000   -6.9168    4.8678 H   0  0  0  0  0  0  0  0  0  0  0  0
    1.1738   -6.3045    7.1779 H   0  0  0  0  0  0  0  0  0  0  0  0
    2.8248   -6.0519    7.9622 H   0  0  0  0  0  0  0  0  0  0  0  0
    4.8136   -5.9702    6.5992 H   0  0  0  0  0  0  0  0  0  0  0  0
    5.4733   -4.1492    5.4891 H   0  0  0  0  0  0  0  0  0  0  0  0
    2.4875   -3.7727    4.2077 H   0  0  0  0  0  0  0  0  0  0  0  0
    0.9986   -2.0014    3.4207 H   0  0  0  0  0  0  0  0  0  0  0  0
    0.9617    0.3705    2.5704 H   0  0  0  0  0  0  0  0  0  0  0  0
    3.0432    1.3097    1.5531 H   0  0  0  0  0  0  0  0  0  0  0  0
    5.1341   -2.1681    2.1432 H   0  0  0  0  0  0  0  0  0  0  0  0
    1.7712   -7.0659    0.4984 H   0  0  0  0  0  0  0  0  0  0  0  0
    2.1325   -5.4246    0.0132 H   0  0  0  0  0  0  0  0  0  0  0  0
    0.9080   -5.7503    1.2268 H   0  0  0  0  0  0  0  0  0  0  0  0
    6.0755   -5.2605    0.6227 H   0  0  0  0  0  0  0  0  0  0  0  0
    5.0853   -4.2277    1.5741 H   0  0  0  0  0  0  0  0  0  0  0  0
    7.0988   -6.3469    2.4315 H   0  0  0  0  0  0  0  0  0  0  0  0
    6.9859   -4.7092    2.7405 H   0  0  0  0  0  0  0  0  0  0  0  0
    7.6231   -6.2708    4.4702 H   0  0  0  0  0  0  0  0  0  0  0  0
    5.9246   -7.9436    2.4473 H   0  0  0  0  0  0  0  0  0  0  0  0
    7.9389   -9.0840    2.6959 H   0  0  0  0  0  0  0  0  0  0  0  0
    6.8510  -10.0930    1.7505 H   0  0  0  0  0  0  0  0  0  0  0  0
    7.1931  -10.4978    3.4335 H   0  0  0  0  0  0  0  0  0  0  0  0
    4.2142  -10.4045    1.2811 H   0  0  0  0  0  0  0  0  0  0  0  0
    2.9685   -8.0080    5.5213 H   0  0  0  0  0  0  0  0  0  0  0  0
  1  2  1  0
  1 43  1  0
  1 44  1  0
  1 45  1  0
  2  3  1  0
  3 42  1  0
  3  4  1  0
  3 46  1  1
  4  5  1  0
  4 47  1  0
  4 48  1  0
  5 40  1  0
  5  6  1  0
  5 49  1  6
  6  7  2  0
  6 50  1  0
  7  8  1  0
  7  9  1  0
  8 51  1  0
  8 52  1  0
  8 53  1  0
 10  9  1  1
  9 54  1  0
  9 55  1  0
 10 40  1  0
 10 42  1  0
 10 11  1  0
 11 27  1  0
 11 12  1  0
 11 56  1  6
 12 13  1  0
 12 57  1  0
 12 58  1  0
 13 15  1  6
 13 14  1  0
 13 16  1  0
 14 15  1  0
 14 59  1  0
 14 60  1  0
 16 35  1  0
 16 17  1  0
 16 61  1  1
 17 33  1  0
 17 18  1  0
 17 62  1  1
 18 19  1  0
 19 20  1  0
 19 26  1  0
 19 63  1  1
 20 25  1  0
 20 21  2  0
 21 22  1  0
 21 64  1  0
 22 23  2  0
 22 65  1  0
 23 24  1  0
 23 66  1  0
 24 25  2  0
 25 67  1  0
 26 27  1  0
 27 28  1  6
 27 29  1  0
 28 68  1  0
 28 69  1  0
 28 70  1  0
 29 30  2  0
 29 31  1  0
 31 32  1  0
 31 71  1  0
 31 72  1  0
 32 33  1  0
 32 73  1  0
 32 74  1  0
 33 34  1  1
 33 35  1  0
 34 75  1  0
 35 36  1  1
 35 42  1  0
 36 37  2  0
 36 38  1  0
 38 39  1  0
 38 40  1  0
 38 76  1  6
 39 77  1  0
 39 78  1  0
 39 79  1  0
 40 41  1  6
 41 80  1  0
 42 81  1  1
M  END
>  <i_m_ct_stereo_status>  (214) 
1

>  <s_m_source_file>  (214) 
/var/tmp/pbs.5076255.sched01/tmpguyree9i/45_f3p7e6s.sdf

>  <i_m_source_file_index>  (214) 
44

>  <i_lp_mmshare_version>  (214) 
48012

>  <i_f3d_flags>  (214) 
0

>  <s_epik_input>  (214) 
Tz1DMVtDQEBIXShbQ0gzXSlbQ0BAXTIoW09IXSlbQ0BIXShbQ0hdPUMoW0NIM10pW0NIMl0zKVtDSDJdW0NAQEhdKE9bQ0gzXSlbQ0BIXTRDMShbQ0BAXTUoW09IXSlbQ0gyXVtDSDJdQzY9TylbQ0BIXShbQ0BAXTcoW0NIMl04KVtDSDJdTzcpW0NAQEhdNU9bQ0BIXShPW0NAQF02KFtDQEhdOFtDQF0yMzQpW0NIM10pYzlbY0hdW2NIXVtjSF1uW2NIXTk=

>  <s_epik_cmdline>  (214) 
J2VwaWtfcHl0aG9uJywgJy1waHQnLCAnMi4wJywgJy1waCcsICc3LjAnLCAnLXRuJywgJzgnLCAnLW1hJywgJzIwMCcsICctaW1hZScsICc8aW5maWxlLm1hZT4nLCAnLW9tYWUnLCAnPG91dGZpbGUubWFlPic=

>  <r_lp_tautomer_probability>  (214) 
0.9999

>  <r_epik_Ionization_Penalty>  (214) 
0.00379024

>  <r_epik_Ionization_Penalty_Charging>  (214) 
0

>  <r_epik_Ionization_Penalty_Neutral>  (214) 
0.00379024

>  <r_epik_State_Penalty>  (214) 
0.00270339

>  <r_epik_Charging_Adjusted_Penalty>  (214) 
0.00270339

>  <i_epik_Tot_Q>  (214) 
0

>  <i_epik_Tot_abs_Q>  (214) 
0

>  <s_epik_Chemistry_Notes>  (214) 
This compound contains an acetal/aminal-like group ( X-CH(R)-Y where X, Y are N, S, or O) that may be acid/base labile, releasing an aldehyde.

>  <s_lp_Force_Field>  (214) 
OPLS3e

>  <r_lp_Energy>  (214) 
303.699

>  <b_lp_Chiralities_Consistent>  (214) 
1

>  <s_lp_Variant>  (214) 
59:0-1

>  <s_i_glide_gridfile>  (214) 
pfpi4k_grid

>  <i_i_glide_lignum>  (214) 
44

>  <i_i_glide_rotatable_bonds>  (214) 
4

>  <r_i_docking_score>  (214) 
-2.28807

>  <r_i_glide_ligand_efficiency>  (214) 
-0.0544779

>  <r_i_glide_ligand_efficiency_sa>  (214) 
-0.189367

>  <r_i_glide_ligand_efficiency_ln>  (214) 
-0.482953

>  <r_i_glide_gscore>  (214) 
-2.28807

>  <r_i_glide_lipo>  (214) 
-0.336904

>  <r_i_glide_hbond>  (214) 
0

>  <r_i_glide_metal>  (214) 
-0

>  <r_i_glide_rewards>  (214) 
-0.0924304

>  <r_i_glide_evdw>  (214) 
-25.709

>  <r_i_glide_ecoul>  (214) 
-4.23917

>  <r_i_glide_erotb>  (214) 
0.0625857

>  <r_i_glide_esite>  (214) 
0

>  <r_i_glide_emodel>  (214) 
-33.3064

>  <r_i_glide_energy>  (214) 
-29.9482

>  <r_i_glide_einternal>  (214) 
2.29036

>  <r_i_glide_intrahb_reward>  (214) 
-0

>  <i_i_glide_confnum>  (214) 
1

>  <i_i_glide_posenum>  (214) 
15

>  <r_i_glide_eff_state_penalty>  (214) 
0

>  <ligand_id>  (214) 
59

>  <original_smiles>  (214) 
COC1CC2C=C(C)CC34C5CC6(CO6)C6C7OC(c8cccnc8)OC5(C)C(=O)CCC7(O)C6(C(=O)C(C)C23O)C14

>  <smiles>  (214) 
[H]OC12C([H])([H])C([H])([H])C(=O)C3(C([H])([H])[H])OC([H])(c4c([H])nc([H])c([H])c4[H])OC1([H])C1([H])C4(OC4([H])[H])C([H])([H])C3([H])C34C([H])([H])C(C([H])([H])[H])=C([H])C5([H])C([H])([H])C([H])(OC([H])([H])[H])C3([H])C12C(=O)C([H])(C([H])([H])[H])C54O[H]

$$$$
59:0:1
     RDKit          3D

 81 89  0  0  1  0  0  0  0  0999 V2000
    4.3879  -10.1989    7.9520 C   0  0  0  0  0  0  0  0  0  0  0  0
    4.4762   -9.1940    6.9473 O   0  0  0  0  0  0  0  0  0  0  0  0
    3.8911   -9.5316    5.6884 C   0  0  2  0  0  0  0  0  0  0  0  0
    4.6137  -10.7087    5.0004 C   0  0  0  0  0  0  0  0  0  0  0  0
    4.3093  -10.7187    3.4952 C   0  0  1  0  0  0  0  0  0  0  0  0
    2.9992  -11.4225    3.3068 C   0  0  0  0  0  0  0  0  0  0  0  0
    1.8523  -10.7562    3.3025 C   0  0  0  0  0  0  0  0  0  0  0  0
    0.5318  -11.4621    3.1594 C   0  0  0  0  0  0  0  0  0  0  0  0
    1.7833   -9.2519    3.4058 C   0  0  0  0  0  0  0  0  0  0  0  0
    3.1138   -8.4013    3.4554 C   0  0  2  0  0  0  0  0  0  0  0  0
    2.6048   -6.8644    3.2071 C   0  0  1  0  0  0  0  0  0  0  0  0
    1.9512   -6.1609    4.4748 C   0  0  0  0  0  0  0  0  0  0  0  0
    2.8268   -5.7370    5.7369 C   0  0  2  0  0  0  0  0  0  0  0  0
    2.1952   -5.8501    7.1133 C   0  0  0  0  0  0  0  0  0  0  0  0
    2.3336   -4.5968    6.4791 O   0  0  0  0  0  0  0  0  0  0  0  0
    4.3345   -5.8900    5.6243 C   0  0  2  0  0  0  0  0  0  0  0  0
    4.9577   -4.7671    4.8021 C   0  0  2  0  0  0  0  0  0  0  0  0
    4.4791   -3.9375    3.7452 O   0  0  0  0  0  0  0  0  0  0  0  0
    3.1775   -3.6983    3.3569 C   0  0  1  0  0  0  0  0  0  0  0  0
    3.1384   -2.2610    2.8757 C   0  0  0  0  0  0  0  0  0  0  0  0
    1.9470   -1.5047    2.9998 C   0  0  0  0  0  0  0  0  0  0  0  0
    1.9347   -0.1675    2.5309 C   0  0  0  0  0  0  0  0  0  0  0  0
    3.1055    0.3389    1.9346 C   0  0  0  0  0  0  0  0  0  0  0  0
    4.2424   -0.3639    1.8024 N   0  0  0  0  0  0  0  0  0  0  0  0
    4.2435   -1.6371    2.2583 C   0  0  0  0  0  0  0  0  0  0  0  0
    2.7329   -4.4738    2.2716 O   0  0  0  0  0  0  0  0  0  0  0  0
    2.9555   -5.8901    1.9983 C   0  0  2  0  0  0  0  0  0  0  0  0
    1.8930   -6.0042    0.8701 C   0  0  0  0  0  0  0  0  0  0  0  0
    4.3084   -6.1396    1.3004 C   0  0  0  0  0  0  0  0  0  0  0  0
    4.4157   -6.9794    0.4158 O   0  0  0  0  0  0  0  0  0  0  0  0
    5.4811   -5.2258    1.5336 C   0  0  0  0  0  0  0  0  0  0  0  0
    6.3738   -5.5816    2.7220 C   0  0  0  0  0  0  0  0  0  0  0  0
    5.7504   -5.8196    4.1299 C   0  0  1  0  0  0  0  0  0  0  0  0
    7.0296   -5.6559    4.7579 O   0  0  0  0  0  0  0  0  0  0  0  0
    4.9119   -7.1064    4.7564 C   0  0  1  0  0  0  0  0  0  0  0  0
    6.0267   -8.0841    4.6004 C   0  0  0  0  0  0  0  0  0  0  0  0
    6.9545   -8.4345    5.3322 O   0  0  0  0  0  0  0  0  0  0  0  0
    5.8353   -8.7234    3.1652 C   0  0  1  0  0  0  0  0  0  0  0  0
    6.9898   -9.6727    2.7403 C   0  0  0  0  0  0  0  0  0  0  0  0
    4.3591   -9.2724    2.8812 C   0  0  1  0  0  0  0  0  0  0  0  0
    4.1607   -9.4548    1.4849 O   0  0  0  0  0  0  0  0  0  0  0  0
    3.7221   -8.2138    4.8171 C   0  0  2  0  0  0  0  0  0  0  0  0
    4.8006   -9.8234    8.8853 H   0  0  0  0  0  0  0  0  0  0  0  0
    4.9561  -11.0977    7.6904 H   0  0  0  0  0  0  0  0  0  0  0  0
    3.3535  -10.4938    8.1392 H   0  0  0  0  0  0  0  0  0  0  0  0
    2.8825   -9.8881    5.8937 H   0  0  0  0  0  0  0  0  0  0  0  0
    5.6860  -10.7151    5.1853 H   0  0  0  0  0  0  0  0  0  0  0  0
    4.2836  -11.6488    5.4620 H   0  0  0  0  0  0  0  0  0  0  0  0
    5.0373  -11.3601    2.9937 H   0  0  0  0  0  0  0  0  0  0  0  0
    3.0338  -12.4984    3.1968 H   0  0  0  0  0  0  0  0  0  0  0  0
   -0.0970  -11.2884    4.0368 H   0  0  0  0  0  0  0  0  0  0  0  0
    0.6476  -12.5466    3.0527 H   0  0  0  0  0  0  0  0  0  0  0  0
    0.0059  -11.0965    2.2714 H   0  0  0  0  0  0  0  0  0  0  0  0
    1.2310   -9.0180    2.4984 H   0  0  0  0  0  0  0  0  0  0  0  0
    1.1341   -9.0079    4.2475 H   0  0  0  0  0  0  0  0  0  0  0  0
    1.6202   -7.0802    2.8145 H   0  0  0  0  0  0  0  0  0  0  0  0
    1.2862   -5.3415    4.1642 H   0  0  0  0  0  0  0  0  0  0  0  0
    1.1960   -6.8485    4.8689 H   0  0  0  0  0  0  0  0  0  0  0  0
    1.1817   -6.2366    7.1822 H   0  0  0  0  0  0  0  0  0  0  0  0
    2.8359   -6.0023    7.9646 H   0  0  0  0  0  0  0  0  0  0  0  0
    4.8192   -5.9439    6.6029 H   0  0  0  0  0  0  0  0  0  0  0  0
    5.5072   -4.1239    5.4939 H   0  0  0  0  0  0  0  0  0  0  0  0
    2.5204   -3.7198    4.2098 H   0  0  0  0  0  0  0  0  0  0  0  0
    1.0593   -1.9225    3.4538 H   0  0  0  0  0  0  0  0  0  0  0  0
    1.0507    0.4531    2.6068 H   0  0  0  0  0  0  0  0  0  0  0  0
    3.1347    1.3510    1.5634 H   0  0  0  0  0  0  0  0  0  0  0  0
    5.1795   -2.1497    2.1256 H   0  0  0  0  0  0  0  0  0  0  0  0
    1.7641   -7.0154    0.5060 H   0  0  0  0  0  0  0  0  0  0  0  0
    2.1402   -5.3722    0.0184 H   0  0  0  0  0  0  0  0  0  0  0  0
    0.9238   -5.6790    1.2336 H   0  0  0  0  0  0  0  0  0  0  0  0
    6.0910   -5.2505    0.6275 H   0  0  0  0  0  0  0  0  0  0  0  0
    5.1091   -4.2037    1.5754 H   0  0  0  0  0  0  0  0  0  0  0  0
    7.0934   -6.3491    2.4484 H   0  0  0  0  0  0  0  0  0  0  0  0
    7.0097   -4.7120    2.7482 H   0  0  0  0  0  0  0  0  0  0  0  0
    6.9084   -5.7581    5.6876 H   0  0  0  0  0  0  0  0  0  0  0  0
    5.9101   -7.9325    2.4463 H   0  0  0  0  0  0  0  0  0  0  0  0
    7.9123   -9.0960    2.6895 H   0  0  0  0  0  0  0  0  0  0  0  0
    6.8101  -10.0923    1.7510 H   0  0  0  0  0  0  0  0  0  0  0  0
    7.1506  -10.4977    3.4287 H   0  0  0  0  0  0  0  0  0  0  0  0
    4.2040  -10.3886    1.2778 H   0  0  0  0  0  0  0  0  0  0  0  0
    2.9528   -7.9579    5.5219 H   0  0  0  0  0  0  0  0  0  0  0  0
  1  2  1  0
  1 43  1  0
  1 44  1  0
  1 45  1  0
  2  3  1  0
  3 42  1  0
  3  4  1  0
  3 46  1  1
  4  5  1  0
  4 47  1  0
  4 48  1  0
  5 40  1  0
  5  6  1  0
  5 49  1  6
  6  7  2  0
  6 50  1  0
  7  8  1  0
  7  9  1  0
  8 51  1  0
  8 52  1  0
  8 53  1  0
 10  9  1  1
  9 54  1  0
  9 55  1  0
 10 40  1  0
 10 42  1  0
 10 11  1  0
 11 27  1  0
 11 12  1  0
 11 56  1  6
 12 13  1  0
 12 57  1  0
 12 58  1  0
 13 15  1  6
 13 14  1  0
 13 16  1  0
 14 15  1  0
 14 59  1  0
 14 60  1  0
 16 35  1  0
 16 17  1  0
 16 61  1  1
 17 33  1  0
 17 18  1  0
 17 62  1  1
 18 19  1  0
 19 20  1  0
 19 26  1  0
 19 63  1  1
 20 25  1  0
 20 21  2  0
 21 22  1  0
 21 64  1  0
 22 23  2  0
 22 65  1  0
 23 24  1  0
 23 66  1  0
 24 25  2  0
 25 67  1  0
 26 27  1  0
 27 28  1  6
 27 29  1  0
 28 68  1  0
 28 69  1  0
 28 70  1  0
 29 30  2  0
 29 31  1  0
 31 32  1  0
 31 71  1  0
 31 72  1  0
 32 33  1  0
 32 73  1  0
 32 74  1  0
 33 34  1  1
 33 35  1  0
 34 75  1  0
 35 36  1  1
 35 42  1  0
 36 37  2  0
 36 38  1  0
 38 39  1  0
 38 40  1  0
 38 76  1  6
 39 77  1  0
 39 78  1  0
 39 79  1  0
 40 41  1  6
 41 80  1  0
 42 81  1  1
M  END
>  <i_m_ct_stereo_status>  (215) 
1

>  <s_m_source_file>  (215) 
/var/tmp/pbs.5076255.sched01/tmpguyree9i/45_f3p7e6s.sdf

>  <i_m_source_file_index>  (215) 
44

>  <i_lp_mmshare_version>  (215) 
48012

>  <i_f3d_flags>  (215) 
0

>  <s_epik_input>  (215) 
Tz1DMVtDQEBIXShbQ0gzXSlbQ0BAXTIoW09IXSlbQ0BIXShbQ0hdPUMoW0NIM10pW0NIMl0zKVtDSDJdW0NAQEhdKE9bQ0gzXSlbQ0BIXTRDMShbQ0BAXTUoW09IXSlbQ0gyXVtDSDJdQzY9TylbQ0BIXShbQ0BAXTcoW0NIMl04KVtDSDJdTzcpW0NAQEhdNU9bQ0BIXShPW0NAQF02KFtDQEhdOFtDQF0yMzQpW0NIM10pYzlbY0hdW2NIXVtjSF1uW2NIXTk=

>  <s_epik_cmdline>  (215) 
J2VwaWtfcHl0aG9uJywgJy1waHQnLCAnMi4wJywgJy1waCcsICc3LjAnLCAnLXRuJywgJzgnLCAnLW1hJywgJzIwMCcsICctaW1hZScsICc8aW5maWxlLm1hZT4nLCAnLW9tYWUnLCAnPG91dGZpbGUubWFlPic=

>  <r_lp_tautomer_probability>  (215) 
0.9999

>  <r_epik_Ionization_Penalty>  (215) 
0.00379024

>  <r_epik_Ionization_Penalty_Charging>  (215) 
0

>  <r_epik_Ionization_Penalty_Neutral>  (215) 
0.00379024

>  <r_epik_State_Penalty>  (215) 
0.00270339

>  <r_epik_Charging_Adjusted_Penalty>  (215) 
0.00270339

>  <i_epik_Tot_Q>  (215) 
0

>  <i_epik_Tot_abs_Q>  (215) 
0

>  <s_epik_Chemistry_Notes>  (215) 
This compound contains an acetal/aminal-like group ( X-CH(R)-Y where X, Y are N, S, or O) that may be acid/base labile, releasing an aldehyde.

>  <s_lp_Force_Field>  (215) 
OPLS3e

>  <r_lp_Energy>  (215) 
303.699

>  <b_lp_Chiralities_Consistent>  (215) 
1

>  <s_lp_Variant>  (215) 
59:0-1

>  <s_i_glide_gridfile>  (215) 
pfpi4k_grid

>  <i_i_glide_lignum>  (215) 
44

>  <i_i_glide_rotatable_bonds>  (215) 
4

>  <r_i_docking_score>  (215) 
-2.25132

>  <r_i_glide_ligand_efficiency>  (215) 
-0.0536029

>  <r_i_glide_ligand_efficiency_sa>  (215) 
-0.186325

>  <r_i_glide_ligand_efficiency_ln>  (215) 
-0.475196

>  <r_i_glide_gscore>  (215) 
-2.25132

>  <r_i_glide_lipo>  (215) 
-0.369081

>  <r_i_glide_hbond>  (215) 
0

>  <r_i_glide_metal>  (215) 
-0

>  <r_i_glide_rewards>  (215) 
-0.0902728

>  <r_i_glide_evdw>  (215) 
-25.5992

>  <r_i_glide_ecoul>  (215) 
-3.83064

>  <r_i_glide_erotb>  (215) 
0.0625857

>  <r_i_glide_esite>  (215) 
0

>  <r_i_glide_emodel>  (215) 
-33.1166

>  <r_i_glide_energy>  (215) 
-29.4298

>  <r_i_glide_einternal>  (215) 
1.45686

>  <r_i_glide_intrahb_reward>  (215) 
-0

>  <i_i_glide_confnum>  (215) 
6

>  <i_i_glide_posenum>  (215) 
12

>  <r_i_glide_eff_state_penalty>  (215) 
0

>  <ligand_id>  (215) 
59

>  <original_smiles>  (215) 
COC1CC2C=C(C)CC34C5CC6(CO6)C6C7OC(c8cccnc8)OC5(C)C(=O)CCC7(O)C6(C(=O)C(C)C23O)C14

>  <smiles>  (215) 
[H]OC12C([H])([H])C([H])([H])C(=O)C3(C([H])([H])[H])OC([H])(c4c([H])nc([H])c([H])c4[H])OC1([H])C1([H])C4(OC4([H])[H])C([H])([H])C3([H])C34C([H])([H])C(C([H])([H])[H])=C([H])C5([H])C([H])([H])C([H])(OC([H])([H])[H])C3([H])C12C(=O)C([H])(C([H])([H])[H])C54O[H]

$$$$
59:0:2
     RDKit          3D

 81 89  0  0  1  0  0  0  0  0999 V2000
    6.1205   -8.9303    7.4033 C   0  0  0  0  0  0  0  0  0  0  0  0
    5.0433   -9.6550    6.8326 O   0  0  0  0  0  0  0  0  0  0  0  0
    3.7772   -8.9896    6.8432 C   0  0  2  0  0  0  0  0  0  0  0  0
    2.6737  -10.0523    6.9167 C   0  0  0  0  0  0  0  0  0  0  0  0
    1.3184   -9.4526    6.4995 C   0  0  1  0  0  0  0  0  0  0  0  0
    0.7271   -8.7990    7.7123 C   0  0  0  0  0  0  0  0  0  0  0  0
    0.9448   -7.5145    8.0031 C   0  0  0  0  0  0  0  0  0  0  0  0
    0.4038   -6.8639    9.2602 C   0  0  0  0  0  0  0  0  0  0  0  0
    1.7479   -6.6223    7.0802 C   0  0  0  0  0  0  0  0  0  0  0  0
    2.2812   -7.1786    5.6873 C   0  0  2  0  0  0  0  0  0  0  0  0
    2.7494   -5.8214    4.8889 C   0  0  1  0  0  0  0  0  0  0  0  0
    4.1526   -5.2131    5.3284 C   0  0  0  0  0  0  0  0  0  0  0  0
    5.5044   -5.9505    4.9886 C   0  0  2  0  0  0  0  0  0  0  0  0
    6.6677   -5.8277    5.9636 C   0  0  0  0  0  0  0  0  0  0  0  0
    6.6154   -5.0610    4.7716 O   0  0  0  0  0  0  0  0  0  0  0  0
    5.4380   -7.2296    4.1167 C   0  0  2  0  0  0  0  0  0  0  0  0
    5.2868   -6.8294    2.6419 C   0  0  2  0  0  0  0  0  0  0  0  0
    4.7306   -5.7037    1.9351 O   0  0  0  0  0  0  0  0  0  0  0  0
    4.3939   -4.4741    2.4571 C   0  0  1  0  0  0  0  0  0  0  0  0
    4.6325   -3.4712    1.3401 C   0  0  0  0  0  0  0  0  0  0  0  0
    3.5821   -2.9691    0.5452 C   0  0  0  0  0  0  0  0  0  0  0  0
    3.8744   -2.0087   -0.4487 C   0  0  0  0  0  0  0  0  0  0  0  0
    5.2047   -1.6005   -0.6093 C   0  0  0  0  0  0  0  0  0  0  0  0
    6.2231   -2.0768    0.1330 N   0  0  0  0  0  0  0  0  0  0  0  0
    5.9335   -2.9960    1.0821 C   0  0  0  0  0  0  0  0  0  0  0  0
    3.0404   -4.3263    2.8263 O   0  0  0  0  0  0  0  0  0  0  0  0
    2.1651   -5.2437    3.5301 C   0  0  2  0  0  0  0  0  0  0  0  0
    1.0516   -4.1870    3.8163 C   0  0  0  0  0  0  0  0  0  0  0  0
    1.5073   -6.2546    2.5610 C   0  0  0  0  0  0  0  0  0  0  0  0
    0.3209   -6.5674    2.6681 O   0  0  0  0  0  0  0  0  0  0  0  0
    2.2263   -6.6816    1.3050 C   0  0  0  0  0  0  0  0  0  0  0  0
    3.1779   -7.8757    1.4430 C   0  0  0  0  0  0  0  0  0  0  0  0
    4.2777   -7.9123    2.5561 C   0  0  1  0  0  0  0  0  0  0  0  0
    5.0310   -8.9508    1.8964 O   0  0  0  0  0  0  0  0  0  0  0  0
    4.1483   -8.1650    4.1906 C   0  0  1  0  0  0  0  0  0  0  0  0
    3.6066   -9.5590    4.1034 C   0  0  0  0  0  0  0  0  0  0  0  0
    4.2058  -10.6261    4.0232 O   0  0  0  0  0  0  0  0  0  0  0  0
    2.0320   -9.4035    4.0748 C   0  0  1  0  0  0  0  0  0  0  0  0
    1.3114  -10.7493    3.8171 C   0  0  0  0  0  0  0  0  0  0  0  0
    1.4385   -8.4929    5.2530 C   0  0  1  0  0  0  0  0  0  0  0  0
    0.1065   -8.1233    4.9483 O   0  0  0  0  0  0  0  0  0  0  0  0
    3.6131   -7.8737    5.7143 C   0  0  2  0  0  0  0  0  0  0  0  0
    7.0742   -9.4249    7.2122 H   0  0  0  0  0  0  0  0  0  0  0  0
    5.9970   -8.8345    8.4858 H   0  0  0  0  0  0  0  0  0  0  0  0
    6.1736   -7.9511    6.9618 H   0  0  0  0  0  0  0  0  0  0  0  0
    3.7115   -8.4682    7.8026 H   0  0  0  0  0  0  0  0  0  0  0  0
    2.9182  -10.9190    6.3001 H   0  0  0  0  0  0  0  0  0  0  0  0
    2.6480  -10.4405    7.9391 H   0  0  0  0  0  0  0  0  0  0  0  0
    0.6404  -10.2746    6.2831 H   0  0  0  0  0  0  0  0  0  0  0  0
    0.1444   -9.4238    8.3690 H   0  0  0  0  0  0  0  0  0  0  0  0
    1.2181   -6.4898    9.8858 H   0  0  0  0  0  0  0  0  0  0  0  0
   -0.1683   -7.5793    9.8520 H   0  0  0  0  0  0  0  0  0  0  0  0
   -0.2453   -6.0239    9.0067 H   0  0  0  0  0  0  0  0  0  0  0  0
    1.0224   -5.8263    6.8989 H   0  0  0  0  0  0  0  0  0  0  0  0
    2.5673   -6.1851    7.6489 H   0  0  0  0  0  0  0  0  0  0  0  0
    2.2368   -5.0881    5.4908 H   0  0  0  0  0  0  0  0  0  0  0  0
    4.2079   -4.1557    5.0719 H   0  0  0  0  0  0  0  0  0  0  0  0
    4.1327   -5.1317    6.4191 H   0  0  0  0  0  0  0  0  0  0  0  0
    6.4793   -5.2899    6.8895 H   0  0  0  0  0  0  0  0  0  0  0  0
    7.4903   -6.5465    5.9820 H   0  0  0  0  0  0  0  0  0  0  0  0
    6.3410   -7.8422    4.2360 H   0  0  0  0  0  0  0  0  0  0  0  0
    6.2306   -7.0590    2.1413 H   0  0  0  0  0  0  0  0  0  0  0  0
    5.0838   -4.1867    3.2323 H   0  0  0  0  0  0  0  0  0  0  0  0
    2.5647   -3.2847    0.6926 H   0  0  0  0  0  0  0  0  0  0  0  0
    3.0830   -1.5980   -1.0513 H   0  0  0  0  0  0  0  0  0  0  0  0
    5.4627   -0.8664   -1.3620 H   0  0  0  0  0  0  0  0  0  0  0  0
    6.7770   -3.3355    1.6671 H   0  0  0  0  0  0  0  0  0  0  0  0
    0.2275   -4.5817    4.4132 H   0  0  0  0  0  0  0  0  0  0  0  0
    0.6269   -3.7984    2.8897 H   0  0  0  0  0  0  0  0  0  0  0  0
    1.4532   -3.3220    4.3463 H   0  0  0  0  0  0  0  0  0  0  0  0
    1.4630   -6.9543    0.5751 H   0  0  0  0  0  0  0  0  0  0  0  0
    2.7316   -5.8244    0.8669 H   0  0  0  0  0  0  0  0  0  0  0  0
    2.6230   -8.8139    1.3777 H   0  0  0  0  0  0  0  0  0  0  0  0
    3.6941   -7.8457    0.4857 H   0  0  0  0  0  0  0  0  0  0  0  0
    4.4712   -9.7054    1.8218 H   0  0  0  0  0  0  0  0  0  0  0  0
    1.8038   -8.8223    3.1961 H   0  0  0  0  0  0  0  0  0  0  0  0
    1.5706  -11.1525    2.8391 H   0  0  0  0  0  0  0  0  0  0  0  0
    0.2333  -10.6113    3.8197 H   0  0  0  0  0  0  0  0  0  0  0  0
    1.5444  -11.5189    4.5537 H   0  0  0  0  0  0  0  0  0  0  0  0
   -0.3908   -8.9209    4.8641 H   0  0  0  0  0  0  0  0  0  0  0  0
    4.2612   -7.2690    6.3177 H   0  0  0  0  0  0  0  0  0  0  0  0
  1  2  1  0
  1 43  1  0
  1 44  1  0
  1 45  1  0
  2  3  1  0
  3 42  1  0
  3  4  1  0
  3 46  1  1
  4  5  1  0
  4 47  1  0
  4 48  1  0
  5 40  1  0
  5  6  1  0
  5 49  1  6
  6  7  2  0
  6 50  1  0
  7  8  1  0
  7  9  1  0
  8 51  1  0
  8 52  1  0
  8 53  1  0
 10  9  1  1
  9 54  1  0
  9 55  1  0
 10 40  1  0
 10 42  1  0
 10 11  1  0
 11 27  1  0
 11 12  1  0
 11 56  1  1
 12 13  1  0
 12 57  1  0
 12 58  1  0
 13 15  1  6
 13 14  1  0
 13 16  1  0
 14 15  1  0
 14 59  1  0
 14 60  1  0
 16 35  1  0
 16 17  1  0
 16 61  1  6
 17 33  1  0
 17 18  1  0
 17 62  1  6
 18 19  1  0
 19 20  1  0
 19 26  1  0
 19 63  1  1
 20 25  1  0
 20 21  2  0
 21 22  1  0
 21 64  1  0
 22 23  2  0
 22 65  1  0
 23 24  1  0
 23 66  1  0
 24 25  2  0
 25 67  1  0
 26 27  1  0
 27 28  1  1
 27 29  1  0
 28 68  1  0
 28 69  1  0
 28 70  1  0
 29 30  2  0
 29 31  1  0
 31 32  1  0
 31 71  1  0
 31 72  1  0
 32 33  1  0
 32 73  1  0
 32 74  1  0
 33 34  1  6
 33 35  1  0
 34 75  1  0
 35 36  1  6
 35 42  1  0
 36 37  2  0
 36 38  1  0
 38 39  1  0
 38 40  1  0
 38 76  1  6
 39 77  1  0
 39 78  1  0
 39 79  1  0
 40 41  1  6
 41 80  1  0
 42 81  1  1
M  END
>  <i_m_ct_stereo_status>  (216) 
1

>  <s_m_source_file>  (216) 
/var/tmp/pbs.5076255.sched01/tmpguyree9i/45_f3p7e6s.sdf

>  <i_m_source_file_index>  (216) 
44

>  <i_lp_mmshare_version>  (216) 
48012

>  <i_f3d_flags>  (216) 
0

>  <s_epik_input>  (216) 
Tz1DMVtDQEBIXShbQ0gzXSlbQ0BAXTIoW09IXSlbQ0BIXShbQ0hdPUMoW0NIM10pW0NIMl0zKVtDSDJdW0NAQEhdKE9bQ0gzXSlbQ0BIXTRDMShbQ0BAXTUoW09IXSlbQ0gyXVtDSDJdQzY9TylbQ0BIXShbQ0BAXTcoW0NIMl04KVtDSDJdTzcpW0NAQEhdNU9bQ0BIXShPW0NAQF02KFtDQEhdOFtDQF0yMzQpW0NIM10pYzlbY0hdW2NIXVtjSF1uW2NIXTk=

>  <s_epik_cmdline>  (216) 
J2VwaWtfcHl0aG9uJywgJy1waHQnLCAnMi4wJywgJy1waCcsICc3LjAnLCAnLXRuJywgJzgnLCAnLW1hJywgJzIwMCcsICctaW1hZScsICc8aW5maWxlLm1hZT4nLCAnLW9tYWUnLCAnPG91dGZpbGUubWFlPic=

>  <r_lp_tautomer_probability>  (216) 
0.9999

>  <r_epik_Ionization_Penalty>  (216) 
0.00379024

>  <r_epik_Ionization_Penalty_Charging>  (216) 
0

>  <r_epik_Ionization_Penalty_Neutral>  (216) 
0.00379024

>  <r_epik_State_Penalty>  (216) 
0.00270339

>  <r_epik_Charging_Adjusted_Penalty>  (216) 
0.00270339

>  <i_epik_Tot_Q>  (216) 
0

>  <i_epik_Tot_abs_Q>  (216) 
0

>  <s_epik_Chemistry_Notes>  (216) 
This compound contains an acetal/aminal-like group ( X-CH(R)-Y where X, Y are N, S, or O) that may be acid/base labile, releasing an aldehyde.

>  <s_lp_Force_Field>  (216) 
OPLS3e

>  <r_lp_Energy>  (216) 
303.699

>  <b_lp_Chiralities_Consistent>  (216) 
1

>  <s_lp_Variant>  (216) 
59:0-1

>  <s_i_glide_gridfile>  (216) 
pfpi4k_grid

>  <i_i_glide_lignum>  (216) 
44

>  <i_i_glide_rotatable_bonds>  (216) 
4

>  <r_i_docking_score>  (216) 
-2.16712

>  <r_i_glide_ligand_efficiency>  (216) 
-0.0515982

>  <r_i_glide_ligand_efficiency_sa>  (216) 
-0.179357

>  <r_i_glide_ligand_efficiency_ln>  (216) 
-0.457424

>  <r_i_glide_gscore>  (216) 
-2.16712

>  <r_i_glide_lipo>  (216) 
-0.202691

>  <r_i_glide_hbond>  (216) 
-0.0618397

>  <r_i_glide_metal>  (216) 
-0

>  <r_i_glide_rewards>  (216) 
-0.00880332

>  <r_i_glide_evdw>  (216) 
-26.9541

>  <r_i_glide_ecoul>  (216) 
-3.81264

>  <r_i_glide_erotb>  (216) 
0.0625857

>  <r_i_glide_esite>  (216) 
-0.0367764

>  <r_i_glide_emodel>  (216) 
-33.3973

>  <r_i_glide_energy>  (216) 
-30.7667

>  <r_i_glide_einternal>  (216) 
2.53836

>  <r_i_glide_intrahb_reward>  (216) 
-0

>  <i_i_glide_confnum>  (216) 
1

>  <i_i_glide_posenum>  (216) 
38

>  <r_i_glide_eff_state_penalty>  (216) 
0

>  <ligand_id>  (216) 
59

>  <original_smiles>  (216) 
COC1CC2C=C(C)CC34C5CC6(CO6)C6C7OC(c8cccnc8)OC5(C)C(=O)CCC7(O)C6(C(=O)C(C)C23O)C14

>  <smiles>  (216) 
[H]OC12C([H])([H])C([H])([H])C(=O)C3(C([H])([H])[H])OC([H])(c4c([H])nc([H])c([H])c4[H])OC1([H])C1([H])C4(OC4([H])[H])C([H])([H])C3([H])C34C([H])([H])C(C([H])([H])[H])=C([H])C5([H])C([H])([H])C([H])(OC([H])([H])[H])C3([H])C12C(=O)C([H])(C([H])([H])[H])C54O[H]

$$$$
60:0:0
     RDKit          3D

 81 86  0  0  1  0  0  0  0  0999 V2000
   -3.9291    3.3977    2.4693 C   0  0  0  0  0  0  0  0  0  0  0  0
   -2.8373    4.1921    2.9262 O   0  0  0  0  0  0  0  0  0  0  0  0
   -1.6602    3.4073    3.0347 C   0  0  0  0  0  0  0  0  0  0  0  0
   -0.4731    4.1909    3.5894 C   0  0  0  0  0  0  0  0  0  0  0  0
    0.8418    3.5242    3.2792 N   0  0  0  0  0  0  0  0  0  0  0  0
    1.0682    2.1963    3.9811 C   0  0  2  0  0  0  0  0  0  0  0  0
    2.2664    1.3868    3.5029 C   0  0  1  0  0  0  0  0  0  0  0  0
    3.5676    1.0841    4.2712 C   0  0  0  0  0  0  0  0  0  0  0  0
    3.7861   -0.4668    4.3939 C   0  0  1  0  0  0  0  0  0  0  0  0
    5.1702   -0.7048    4.5577 O   0  0  0  0  0  0  0  0  0  0  0  0
    3.0931   -1.0303    5.7187 C   0  0  1  0  0  0  0  0  0  0  0  0
    3.9468   -0.7610    6.8363 O   0  0  0  0  0  0  0  0  0  0  0  0
    4.7718   -1.8517    7.2646 C   0  0  0  0  0  0  0  0  0  0  0  0
    1.6659   -0.4497    6.0079 C   0  0  2  0  0  0  0  0  0  0  0  0
    0.9085   -1.0094    7.2689 C   0  0  1  0  0  0  0  0  0  0  0  0
    1.6991   -0.9342    8.5936 C   0  0  0  0  0  0  0  0  0  0  0  0
   -0.1981   -0.1594    7.5172 O   0  0  0  0  0  0  0  0  0  0  0  0
    0.3733   -2.4372    7.0108 C   0  0  1  0  0  0  0  0  0  0  0  0
   -0.3296   -2.9673    8.1139 O   0  0  0  0  0  0  0  0  0  0  0  0
   -0.5333   -2.4858    5.7767 C   0  0  0  0  0  0  0  0  0  0  0  0
    0.1929   -1.9554    4.5388 C   0  0  0  0  0  0  0  0  0  0  0  0
    0.7943   -0.5441    4.7260 C   0  0  1  0  0  0  0  0  0  0  0  0
   -0.3596    0.3526    4.6780 O   0  0  0  0  0  0  0  0  0  0  0  0
    0.1810    1.0314    3.4934 C   0  0  2  0  0  0  0  0  0  0  0  0
    1.3904    0.1246    3.4551 C   0  0  1  0  0  0  0  0  0  0  0  0
    1.9651   -0.8220    2.4402 C   0  0  0  0  0  0  0  0  0  0  0  0
    3.3155   -1.2939    3.0895 C   0  0  1  0  0  0  0  0  0  0  0  0
    4.3459   -1.5075    2.0539 N   0  0  0  0  0  0  0  0  0  0  0  0
    4.9498   -0.2865    1.5035 C   0  0  0  0  0  0  0  0  0  0  0  0
    4.7131   -2.7274    1.5490 C   0  0  0  0  0  0  0  0  0  0  0  0
    5.5806   -2.7910    0.6875 O   0  0  0  0  0  0  0  0  0  0  0  0
    4.0726   -4.0573    2.0186 C   0  0  0  0  0  0  0  0  0  0  0  0
    5.1444   -5.0617    2.5098 C   0  0  0  0  0  0  0  0  0  0  0  0
    4.5659   -6.4413    2.2108 C   0  0  0  0  0  0  0  0  0  0  0  0
    3.8114   -6.2558    0.8924 C   0  0  0  0  0  0  0  0  0  0  0  0
    3.3536   -4.7914    0.8566 C   0  0  0  0  0  0  0  0  0  0  0  0
   -4.8196    4.0128    2.3949 H   0  0  0  0  0  0  0  0  0  0  0  0
   -4.1471    2.5760    3.1526 H   0  0  0  0  0  0  0  0  0  0  0  0
   -3.7461    2.9609    1.4863 H   0  0  0  0  0  0  0  0  0  0  0  0
   -1.8882    2.5759    3.7051 H   0  0  0  0  0  0  0  0  0  0  0  0
   -1.4336    3.0077    2.0377 H   0  0  0  0  0  0  0  0  0  0  0  0
   -0.4309    5.1640    3.1168 H   0  0  0  0  0  0  0  0  0  0  0  0
   -0.5523    4.3527    4.6557 H   0  0  0  0  0  0  0  0  0  0  0  0
    0.8756    3.4488    2.2596 H   0  0  0  0  0  0  0  0  0  0  0  0
    1.0582    2.3427    5.0535 H   0  0  0  0  0  0  0  0  0  0  0  0
    2.4853    1.6711    2.4702 H   0  0  0  0  0  0  0  0  0  0  0  0
    4.3902    1.5379    3.7091 H   0  0  0  0  0  0  0  0  0  0  0  0
    3.5815    1.5781    5.2434 H   0  0  0  0  0  0  0  0  0  0  0  0
    5.6197   -0.4120    3.7692 H   0  0  0  0  0  0  0  0  0  0  0  0
    2.9892   -2.1268    5.6486 H   0  0  0  0  0  0  0  0  0  0  0  0
    5.4435   -1.5275    8.0579 H   0  0  0  0  0  0  0  0  0  0  0  0
    5.3938   -2.2698    6.4743 H   0  0  0  0  0  0  0  0  0  0  0  0
    4.1874   -2.6805    7.6590 H   0  0  0  0  0  0  0  0  0  0  0  0
    1.8205    0.6008    6.2368 H   0  0  0  0  0  0  0  0  0  0  0  0
    2.4980   -1.6677    8.6277 H   0  0  0  0  0  0  0  0  0  0  0  0
    1.0653   -1.1529    9.4537 H   0  0  0  0  0  0  0  0  0  0  0  0
    2.1374    0.0525    8.7517 H   0  0  0  0  0  0  0  0  0  0  0  0
    0.1437    0.7154    7.6960 H   0  0  0  0  0  0  0  0  0  0  0  0
    1.2222   -3.0957    6.8322 H   0  0  0  0  0  0  0  0  0  0  0  0
    0.3100   -3.1849    8.7901 H   0  0  0  0  0  0  0  0  0  0  0  0
   -0.8212   -3.5199    5.5991 H   0  0  0  0  0  0  0  0  0  0  0  0
   -1.4611   -1.9315    5.9498 H   0  0  0  0  0  0  0  0  0  0  0  0
    0.9782   -2.6589    4.3027 H   0  0  0  0  0  0  0  0  0  0  0  0
   -0.4919   -1.9754    3.6935 H   0  0  0  0  0  0  0  0  0  0  0  0
   -0.3930    1.0154    2.5751 H   0  0  0  0  0  0  0  0  0  0  0  0
    1.3173   -1.6706    2.2180 H   0  0  0  0  0  0  0  0  0  0  0  0
    2.1010   -0.3442    1.4744 H   0  0  0  0  0  0  0  0  0  0  0  0
    3.0912   -2.2776    3.4948 H   0  0  0  0  0  0  0  0  0  0  0  0
    5.6100   -0.4458    0.6544 H   0  0  0  0  0  0  0  0  0  0  0  0
    5.5705    0.1951    2.2497 H   0  0  0  0  0  0  0  0  0  0  0  0
    4.1802    0.4106    1.1793 H   0  0  0  0  0  0  0  0  0  0  0  0
    3.3392   -3.9389    2.8278 H   0  0  0  0  0  0  0  0  0  0  0  0
    6.0882   -4.9693    1.9831 H   0  0  0  0  0  0  0  0  0  0  0  0
    5.3528   -4.9320    3.5708 H   0  0  0  0  0  0  0  0  0  0  0  0
    5.3399   -7.2149    2.1455 H   0  0  0  0  0  0  0  0  0  0  0  0
    3.8722   -6.7336    2.9977 H   0  0  0  0  0  0  0  0  0  0  0  0
    4.4891   -6.4364    0.0595 H   0  0  0  0  0  0  0  0  0  0  0  0
    2.9782   -6.9547    0.7997 H   0  0  0  0  0  0  0  0  0  0  0  0
    2.2760   -4.7187    1.0057 H   0  0  0  0  0  0  0  0  0  0  0  0
    3.5518   -4.3779   -0.1282 H   0  0  0  0  0  0  0  0  0  0  0  0
    1.5702    4.1543    3.5522 H   0  0  0  0  0  0  0  0  0  0  0  0
  1  2  1  0
  1 37  1  0
  1 38  1  0
  1 39  1  0
  2  3  1  0
  3  4  1  0
  3 40  1  0
  3 41  1  0
  4  5  1  0
  4 42  1  0
  4 43  1  0
  5  6  1  0
  5 44  1  0
  5 81  1  0
  6 24  1  0
  6  7  1  0
  6 45  1  1
  7 25  1  0
  7  8  1  0
  7 46  1  6
  8  9  1  0
  8 47  1  0
  8 48  1  0
  9 27  1  0
  9 10  1  1
  9 11  1  0
 10 49  1  0
 11 12  1  0
 11 14  1  0
 11 50  1  6
 12 13  1  0
 13 51  1  0
 13 52  1  0
 13 53  1  0
 14 22  1  0
 14 15  1  0
 14 54  1  1
 15 16  1  0
 15 17  1  1
 15 18  1  0
 16 55  1  0
 16 56  1  0
 16 57  1  0
 17 58  1  0
 18 19  1  0
 18 20  1  0
 18 59  1  6
 19 60  1  0
 20 21  1  0
 20 61  1  0
 20 62  1  0
 21 22  1  0
 21 63  1  0
 21 64  1  0
 22 25  1  0
 22 23  1  1
 23 24  1  0
 24 25  1  0
 24 65  1  6
 25 26  1  6
 26 27  1  0
 26 66  1  0
 26 67  1  0
 27 28  1  0
 27 68  1  1
 28 29  1  0
 28 30  1  0
 29 69  1  0
 29 70  1  0
 29 71  1  0
 30 31  2  0
 30 32  1  0
 32 36  1  0
 32 33  1  0
 32 72  1  0
 33 34  1  0
 33 73  1  0
 33 74  1  0
 34 35  1  0
 34 75  1  0
 34 76  1  0
 35 36  1  0
 35 77  1  0
 35 78  1  0
 36 79  1  0
 36 80  1  0
M  CHG  1   5   1
M  END
>  <i_m_ct_stereo_status>  (217) 
1

>  <s_m_source_file>  (217) 
/var/tmp/pbs.5076255.sched01/tmpguyree9i/45_f3p7e6s.sdf

>  <i_m_source_file_index>  (217) 
45

>  <i_lp_mmshare_version>  (217) 
48012

>  <i_f3d_flags>  (217) 
0

>  <s_epik_input>  (217) 
W0NIM11PW0NIMl1bQ0gyXVtOSF1bQ0BASF0oW0NAQEhdMU8yKVtDQEhdKFtDQEBdMTNbQ0BdMjQ1KVtDSDJdW0NAQF0oW09IXSkoW0NAQEhdKE9bQ0gzXSlbQ0BASF00W0NAQF0oW0NIM10pKFtPSF0pW0NAQEhdKFtPSF0pW0NIMl1bQ0gyXTUpW0NAQEhdKFtDSDJdMylOKFtDSDNdKUMoPU8pW0NIXTZbQ0gyXVtDSDJdW0NIMl1bQ0gyXTY=

>  <s_epik_cmdline>  (217) 
J2VwaWtfcHl0aG9uJywgJy1waHQnLCAnMi4wJywgJy1waCcsICc3LjAnLCAnLXRuJywgJzgnLCAnLW1hJywgJzIwMCcsICctaW1hZScsICc8aW5maWxlLm1hZT4nLCAnLW9tYWUnLCAnPG91dGZpbGUubWFlPic=

>  <r_epik_Ionization_Penalty>  (217) 
0.00599876

>  <r_epik_Ionization_Penalty_Charging>  (217) 
0.00599842

>  <r_epik_Ionization_Penalty_Neutral>  (217) 
3.32398e-07

>  <r_epik_State_Penalty>  (217) 
0.00441535

>  <r_epik_Charging_Adjusted_Penalty>  (217) 
0.0104138

>  <i_epik_Tot_Q>  (217) 
1

>  <i_epik_Tot_abs_Q>  (217) 
1

>  <s_lp_Force_Field>  (217) 
OPLS3e

>  <r_lp_Energy>  (217) 
97.4887

>  <b_lp_Chiralities_Consistent>  (217) 
1

>  <s_lp_Variant>  (217) 
60:0-1

>  <s_i_glide_gridfile>  (217) 
pfpi4k_grid

>  <i_i_glide_lignum>  (217) 
45

>  <i_i_glide_rotatable_bonds>  (217) 
11

>  <r_i_docking_score>  (217) 
-3.35654

>  <r_i_glide_ligand_efficiency>  (217) 
-0.0932373

>  <r_i_glide_ligand_efficiency_sa>  (217) 
-0.307863

>  <r_i_glide_ligand_efficiency_ln>  (217) 
-0.732307

>  <r_i_glide_gscore>  (217) 
-3.35654

>  <r_i_glide_lipo>  (217) 
-0.462848

>  <r_i_glide_hbond>  (217) 
-0.180639

>  <r_i_glide_metal>  (217) 
-0

>  <r_i_glide_rewards>  (217) 
-0.060042

>  <r_i_glide_evdw>  (217) 
-23.0253

>  <r_i_glide_ecoul>  (217) 
-12.528

>  <r_i_glide_erotb>  (217) 
0.473104

>  <r_i_glide_esite>  (217) 
-0.0956565

>  <r_i_glide_emodel>  (217) 
-40.4471

>  <r_i_glide_energy>  (217) 
-35.5533

>  <r_i_glide_einternal>  (217) 
8.31284

>  <r_i_glide_intrahb_reward>  (217) 
-0

>  <i_i_glide_confnum>  (217) 
9

>  <i_i_glide_posenum>  (217) 
27

>  <r_i_glide_eff_state_penalty>  (217) 
0

>  <ligand_id>  (217) 
60

>  <original_smiles>  (217) 
COCCNC1C2CC3(O)C(OC)C4C(C)(O)C(O)CCC45OC1C25CC3N(C)C(=O)C1CCCC1

>  <smiles>  (217) 
[H]OC1([H])C([H])([H])C([H])([H])C23OC4([H])C25C([H])([H])C([H])(N(C(=O)C2([H])C([H])([H])C([H])([H])C([H])([H])C2([H])[H])C([H])([H])[H])C(O[H])(C([H])([H])C5([H])C4([H])[N+]([H])([H])C([H])([H])C([H])([H])OC([H])([H])[H])C([H])(OC([H])([H])[H])C3([H])C1(O[H])C([H])([H])[H]

$$$$
60:0:1
     RDKit          3D

 81 86  0  0  1  0  0  0  0  0999 V2000
   -4.1815    6.0805    1.5392 C   0  0  0  0  0  0  0  0  0  0  0  0
   -3.3833    5.2613    2.3841 O   0  0  0  0  0  0  0  0  0  0  0  0
   -3.8078    3.9045    2.4049 C   0  0  0  0  0  0  0  0  0  0  0  0
   -2.9400    3.1261    3.4124 C   0  0  0  0  0  0  0  0  0  0  0  0
   -1.5775    2.8006    2.8751 N   0  0  0  0  0  0  0  0  0  0  0  0
   -0.7739    1.8936    3.7693 C   0  0  2  0  0  0  0  0  0  0  0  0
    0.5780    1.4571    3.2009 C   0  0  1  0  0  0  0  0  0  0  0  0
    1.9526    1.8764    3.7001 C   0  0  0  0  0  0  0  0  0  0  0  0
    2.8000    0.6006    4.0934 C   0  0  1  0  0  0  0  0  0  0  0  0
    4.1773    0.9308    4.0521 O   0  0  0  0  0  0  0  0  0  0  0  0
    2.5331    0.2031    5.6078 C   0  0  1  0  0  0  0  0  0  0  0  0
    3.3741    0.9084    6.5265 O   0  0  0  0  0  0  0  0  0  0  0  0
    3.2818    2.3221    6.6463 C   0  0  0  0  0  0  0  0  0  0  0  0
    1.0283    0.2102    6.0714 C   0  0  2  0  0  0  0  0  0  0  0  0
    0.7331   -0.2855    7.5308 C   0  0  1  0  0  0  0  0  0  0  0  0
    1.5746    0.3705    8.6481 C   0  0  0  0  0  0  0  0  0  0  0  0
   -0.5845    0.1489    7.8232 O   0  0  0  0  0  0  0  0  0  0  0  0
    0.8018   -1.8297    7.6329 C   0  0  1  0  0  0  0  0  0  0  0  0
    0.4613   -2.2773    8.9294 O   0  0  0  0  0  0  0  0  0  0  0  0
   -0.1239   -2.5180    6.6315 C   0  0  0  0  0  0  0  0  0  0  0  0
    0.1739   -2.0610    5.2069 C   0  0  0  0  0  0  0  0  0  0  0  0
    0.1446   -0.5242    5.0245 C   0  0  1  0  0  0  0  0  0  0  0  0
   -1.2740   -0.1656    5.0471 O   0  0  0  0  0  0  0  0  0  0  0  0
   -1.1737    0.3969    3.7036 C   0  0  2  0  0  0  0  0  0  0  0  0
    0.2778   -0.0049    3.5731 C   0  0  1  0  0  0  0  0  0  0  0  0
    1.0889   -0.8923    2.6507 C   0  0  0  0  0  0  0  0  0  0  0  0
    2.5801   -0.6537    3.0943 C   0  0  1  0  0  0  0  0  0  0  0  0
    3.4870   -0.7119    1.9390 N   0  0  0  0  0  0  0  0  0  0  0  0
    3.4525    0.4570    1.0537 C   0  0  0  0  0  0  0  0  0  0  0  0
    4.2937   -1.7718    1.6033 C   0  0  0  0  0  0  0  0  0  0  0  0
    5.0948   -1.6609    0.6979 O   0  0  0  0  0  0  0  0  0  0  0  0
    4.1971   -3.1381    2.3350 C   0  0  0  0  0  0  0  0  0  0  0  0
    5.5835   -3.6095    2.8316 C   0  0  0  0  0  0  0  0  0  0  0  0
    5.5337   -5.1347    2.7958 C   0  0  0  0  0  0  0  0  0  0  0  0
    4.6952   -5.4499    1.5557 C   0  0  0  0  0  0  0  0  0  0  0  0
    3.7408   -4.2599    1.3673 C   0  0  0  0  0  0  0  0  0  0  0  0
   -3.7899    7.0972    1.5287 H   0  0  0  0  0  0  0  0  0  0  0  0
   -5.2138    6.1279    1.8856 H   0  0  0  0  0  0  0  0  0  0  0  0
   -4.1856    5.7240    0.5099 H   0  0  0  0  0  0  0  0  0  0  0  0
   -4.8403    3.8663    2.7410 H   0  0  0  0  0  0  0  0  0  0  0  0
   -3.7989    3.4384    1.4169 H   0  0  0  0  0  0  0  0  0  0  0  0
   -2.8378    3.6831    4.3410 H   0  0  0  0  0  0  0  0  0  0  0  0
   -3.4372    2.1984    3.6740 H   0  0  0  0  0  0  0  0  0  0  0  0
   -1.6673    2.3818    1.9509 H   0  0  0  0  0  0  0  0  0  0  0  0
   -0.7197    2.2709    4.7902 H   0  0  0  0  0  0  0  0  0  0  0  0
    0.5311    1.5406    2.1105 H   0  0  0  0  0  0  0  0  0  0  0  0
    2.4586    2.4469    2.9146 H   0  0  0  0  0  0  0  0  0  0  0  0
    1.8471    2.5689    4.5349 H   0  0  0  0  0  0  0  0  0  0  0  0
    4.3432    1.4501    3.2739 H   0  0  0  0  0  0  0  0  0  0  0  0
    2.8833   -0.8166    5.7444 H   0  0  0  0  0  0  0  0  0  0  0  0
    3.8921    2.6250    7.4939 H   0  0  0  0  0  0  0  0  0  0  0  0
    2.2647    2.6555    6.8411 H   0  0  0  0  0  0  0  0  0  0  0  0
    3.6651    2.8464    5.7717 H   0  0  0  0  0  0  0  0  0  0  0  0
    0.7287    1.2522    6.0712 H   0  0  0  0  0  0  0  0  0  0  0  0
    2.6173    0.0414    8.6325 H   0  0  0  0  0  0  0  0  0  0  0  0
    1.1951    0.1318    9.6422 H   0  0  0  0  0  0  0  0  0  0  0  0
    1.5610    1.4575    8.5842 H   0  0  0  0  0  0  0  0  0  0  0  0
   -0.5658    1.0882    7.8929 H   0  0  0  0  0  0  0  0  0  0  0  0
    1.8276   -2.1499    7.4311 H   0  0  0  0  0  0  0  0  0  0  0  0
    1.1529   -2.0082    9.5224 H   0  0  0  0  0  0  0  0  0  0  0  0
    0.0122   -3.5956    6.6978 H   0  0  0  0  0  0  0  0  0  0  0  0
   -1.1700   -2.3264    6.8813 H   0  0  0  0  0  0  0  0  0  0  0  0
    1.1552   -2.4491    4.9491 H   0  0  0  0  0  0  0  0  0  0  0  0
   -0.5292   -2.5470    4.5267 H   0  0  0  0  0  0  0  0  0  0  0  0
   -1.7844    0.0054    2.9082 H   0  0  0  0  0  0  0  0  0  0  0  0
    0.8249   -1.9452    2.7144 H   0  0  0  0  0  0  0  0  0  0  0  0
    0.9035   -0.6455    1.6048 H   0  0  0  0  0  0  0  0  0  0  0  0
    2.8359   -1.5109    3.6961 H   0  0  0  0  0  0  0  0  0  0  0  0
    4.0479    0.3450    0.1467 H   0  0  0  0  0  0  0  0  0  0  0  0
    3.8133    1.3479    1.5509 H   0  0  0  0  0  0  0  0  0  0  0  0
    2.4254    0.6624    0.7665 H   0  0  0  0  0  0  0  0  0  0  0  0
    3.5177   -3.1374    3.1789 H   0  0  0  0  0  0  0  0  0  0  0  0
    6.4038   -3.2891    2.1832 H   0  0  0  0  0  0  0  0  0  0  0  0
    5.7911   -3.2366    3.8327 H   0  0  0  0  0  0  0  0  0  0  0  0
    6.5287   -5.5889    2.7587 H   0  0  0  0  0  0  0  0  0  0  0  0
    5.0326   -5.5087    3.6897 H   0  0  0  0  0  0  0  0  0  0  0  0
    5.3502   -5.5228    0.6873 H   0  0  0  0  0  0  0  0  0  0  0  0
    4.1641   -6.3997    1.6477 H   0  0  0  0  0  0  0  0  0  0  0  0
    2.7217   -4.5417    1.6205 H   0  0  0  0  0  0  0  0  0  0  0  0
    3.7247   -3.9760    0.3106 H   0  0  0  0  0  0  0  0  0  0  0  0
   -1.0651    3.6686    2.7403 H   0  0  0  0  0  0  0  0  0  0  0  0
  1  2  1  0
  1 37  1  0
  1 38  1  0
  1 39  1  0
  2  3  1  0
  3  4  1  0
  3 40  1  0
  3 41  1  0
  4  5  1  0
  4 42  1  0
  4 43  1  0
  5  6  1  0
  5 44  1  0
  5 81  1  0
  6 24  1  0
  6  7  1  0
  6 45  1  1
  7 25  1  0
  7  8  1  0
  7 46  1  6
  8  9  1  0
  8 47  1  0
  8 48  1  0
  9 27  1  0
  9 10  1  1
  9 11  1  0
 10 49  1  0
 11 12  1  0
 11 14  1  0
 11 50  1  6
 12 13  1  0
 13 51  1  0
 13 52  1  0
 13 53  1  0
 14 22  1  0
 14 15  1  0
 14 54  1  1
 15 16  1  0
 15 17  1  1
 15 18  1  0
 16 55  1  0
 16 56  1  0
 16 57  1  0
 17 58  1  0
 18 19  1  0
 18 20  1  0
 18 59  1  6
 19 60  1  0
 20 21  1  0
 20 61  1  0
 20 62  1  0
 21 22  1  0
 21 63  1  0
 21 64  1  0
 22 25  1  0
 22 23  1  1
 23 24  1  0
 24 25  1  0
 24 65  1  6
 25 26  1  6
 26 27  1  0
 26 66  1  0
 26 67  1  0
 27 28  1  0
 27 68  1  1
 28 29  1  0
 28 30  1  0
 29 69  1  0
 29 70  1  0
 29 71  1  0
 30 31  2  0
 30 32  1  0
 32 36  1  0
 32 33  1  0
 32 72  1  0
 33 34  1  0
 33 73  1  0
 33 74  1  0
 34 35  1  0
 34 75  1  0
 34 76  1  0
 35 36  1  0
 35 77  1  0
 35 78  1  0
 36 79  1  0
 36 80  1  0
M  CHG  1   5   1
M  END
>  <i_m_ct_stereo_status>  (218) 
1

>  <s_m_source_file>  (218) 
/var/tmp/pbs.5076255.sched01/tmpguyree9i/45_f3p7e6s.sdf

>  <i_m_source_file_index>  (218) 
45

>  <i_lp_mmshare_version>  (218) 
48012

>  <i_f3d_flags>  (218) 
0

>  <s_epik_input>  (218) 
W0NIM11PW0NIMl1bQ0gyXVtOSF1bQ0BASF0oW0NAQEhdMU8yKVtDQEhdKFtDQEBdMTNbQ0BdMjQ1KVtDSDJdW0NAQF0oW09IXSkoW0NAQEhdKE9bQ0gzXSlbQ0BASF00W0NAQF0oW0NIM10pKFtPSF0pW0NAQEhdKFtPSF0pW0NIMl1bQ0gyXTUpW0NAQEhdKFtDSDJdMylOKFtDSDNdKUMoPU8pW0NIXTZbQ0gyXVtDSDJdW0NIMl1bQ0gyXTY=

>  <s_epik_cmdline>  (218) 
J2VwaWtfcHl0aG9uJywgJy1waHQnLCAnMi4wJywgJy1waCcsICc3LjAnLCAnLXRuJywgJzgnLCAnLW1hJywgJzIwMCcsICctaW1hZScsICc8aW5maWxlLm1hZT4nLCAnLW9tYWUnLCAnPG91dGZpbGUubWFlPic=

>  <r_epik_Ionization_Penalty>  (218) 
0.00599876

>  <r_epik_Ionization_Penalty_Charging>  (218) 
0.00599842

>  <r_epik_Ionization_Penalty_Neutral>  (218) 
3.32398e-07

>  <r_epik_State_Penalty>  (218) 
0.00441535

>  <r_epik_Charging_Adjusted_Penalty>  (218) 
0.0104138

>  <i_epik_Tot_Q>  (218) 
1

>  <i_epik_Tot_abs_Q>  (218) 
1

>  <s_lp_Force_Field>  (218) 
OPLS3e

>  <r_lp_Energy>  (218) 
97.4887

>  <b_lp_Chiralities_Consistent>  (218) 
1

>  <s_lp_Variant>  (218) 
60:0-1

>  <s_i_glide_gridfile>  (218) 
pfpi4k_grid

>  <i_i_glide_lignum>  (218) 
45

>  <i_i_glide_rotatable_bonds>  (218) 
11

>  <r_i_docking_score>  (218) 
-2.97684

>  <r_i_glide_ligand_efficiency>  (218) 
-0.0826901

>  <r_i_glide_ligand_efficiency_sa>  (218) 
-0.273037

>  <r_i_glide_ligand_efficiency_ln>  (218) 
-0.649467

>  <r_i_glide_gscore>  (218) 
-2.97684

>  <r_i_glide_lipo>  (218) 
-0.322016

>  <r_i_glide_hbond>  (218) 
-0.119514

>  <r_i_glide_metal>  (218) 
-0

>  <r_i_glide_rewards>  (218) 
-0.0068355

>  <r_i_glide_evdw>  (218) 
-21.1837

>  <r_i_glide_ecoul>  (218) 
-12.4754

>  <r_i_glide_erotb>  (218) 
0.473104

>  <r_i_glide_esite>  (218) 
-0.0710905

>  <r_i_glide_emodel>  (218) 
-37.9395

>  <r_i_glide_energy>  (218) 
-33.6591

>  <r_i_glide_einternal>  (218) 
8.13087

>  <r_i_glide_intrahb_reward>  (218) 
-0

>  <i_i_glide_confnum>  (218) 
9

>  <i_i_glide_posenum>  (218) 
4

>  <r_i_glide_eff_state_penalty>  (218) 
0

>  <ligand_id>  (218) 
60

>  <original_smiles>  (218) 
COCCNC1C2CC3(O)C(OC)C4C(C)(O)C(O)CCC45OC1C25CC3N(C)C(=O)C1CCCC1

>  <smiles>  (218) 
[H]OC1([H])C([H])([H])C([H])([H])C23OC4([H])C25C([H])([H])C([H])(N(C(=O)C2([H])C([H])([H])C([H])([H])C([H])([H])C2([H])[H])C([H])([H])[H])C(O[H])(C([H])([H])C5([H])C4([H])[N+]([H])([H])C([H])([H])C([H])([H])OC([H])([H])[H])C([H])(OC([H])([H])[H])C3([H])C1(O[H])C([H])([H])[H]

$$$$
60:0:2
     RDKit          3D

 81 86  0  0  1  0  0  0  0  0999 V2000
   -4.7059    4.8754    2.0651 C   0  0  0  0  0  0  0  0  0  0  0  0
   -3.4568    4.3737    2.5477 O   0  0  0  0  0  0  0  0  0  0  0  0
   -3.3992    2.9609    2.4897 C   0  0  0  0  0  0  0  0  0  0  0  0
   -1.9584    2.4927    2.6922 C   0  0  0  0  0  0  0  0  0  0  0  0
   -1.5345    2.6830    4.1304 N   0  0  0  0  0  0  0  0  0  0  0  0
   -0.6902    1.5940    4.7456 C   0  0  2  0  0  0  0  0  0  0  0  0
    0.5872    1.2409    4.0011 C   0  0  1  0  0  0  0  0  0  0  0  0
    2.0335    1.5415    4.4261 C   0  0  0  0  0  0  0  0  0  0  0  0
    2.8640    0.2151    4.5010 C   0  0  1  0  0  0  0  0  0  0  0  0
    4.2439    0.5087    4.3554 O   0  0  0  0  0  0  0  0  0  0  0  0
    2.7317   -0.4260    5.9577 C   0  0  1  0  0  0  0  0  0  0  0  0
    3.6944    0.1037    6.8795 O   0  0  0  0  0  0  0  0  0  0  0  0
    3.6672    1.4797    7.2411 C   0  0  0  0  0  0  0  0  0  0  0  0
    1.2849   -0.4585    6.5695 C   0  0  2  0  0  0  0  0  0  0  0  0
    1.1204   -1.1840    7.9595 C   0  0  1  0  0  0  0  0  0  0  0  0
    2.0958   -0.7344    9.0715 C   0  0  0  0  0  0  0  0  0  0  0  0
   -0.1374   -0.7848    8.4729 O   0  0  0  0  0  0  0  0  0  0  0  0
    1.1382   -2.7229    7.8019 C   0  0  1  0  0  0  0  0  0  0  0  0
    0.9333   -3.3887    9.0288 O   0  0  0  0  0  0  0  0  0  0  0  0
    0.0823   -3.2148    6.8074 C   0  0  0  0  0  0  0  0  0  0  0  0
    0.2530   -2.5345    5.4494 C   0  0  0  0  0  0  0  0  0  0  0  0
    0.2714   -0.9904    5.5238 C   0  0  1  0  0  0  0  0  0  0  0  0
   -1.1142   -0.5918    5.7843 O   0  0  0  0  0  0  0  0  0  0  0  0
   -1.1709    0.1462    4.5126 C   0  0  2  0  0  0  0  0  0  0  0  0
    0.2601   -0.2526    4.1573 C   0  0  1  0  0  0  0  0  0  0  0  0
    0.9466   -0.9824    3.0266 C   0  0  0  0  0  0  0  0  0  0  0  0
    2.4828   -0.8436    3.3435 C   0  0  1  0  0  0  0  0  0  0  0  0
    3.2704   -0.7424    2.0957 N   0  0  0  0  0  0  0  0  0  0  0  0
    3.1970    0.5681    1.4392 C   0  0  0  0  0  0  0  0  0  0  0  0
    3.9964   -1.7441    1.5153 C   0  0  0  0  0  0  0  0  0  0  0  0
    4.6634   -1.5357    0.5113 O   0  0  0  0  0  0  0  0  0  0  0  0
    4.0145   -3.1885    2.0786 C   0  0  0  0  0  0  0  0  0  0  0  0
    5.4507   -3.6392    2.4230 C   0  0  0  0  0  0  0  0  0  0  0  0
    5.4527   -5.1534    2.2241 C   0  0  0  0  0  0  0  0  0  0  0  0
    4.5297   -5.3746    1.0243 C   0  0  0  0  0  0  0  0  0  0  0  0
    3.5150   -4.2213    1.0405 C   0  0  0  0  0  0  0  0  0  0  0  0
   -4.6940    5.9642    2.0882 H   0  0  0  0  0  0  0  0  0  0  0  0
   -5.5358    4.5330    2.6852 H   0  0  0  0  0  0  0  0  0  0  0  0
   -4.9104    4.5756    1.0361 H   0  0  0  0  0  0  0  0  0  0  0  0
   -4.0704    2.5468    3.2430 H   0  0  0  0  0  0  0  0  0  0  0  0
   -3.7419    2.5905    1.5217 H   0  0  0  0  0  0  0  0  0  0  0  0
   -1.8833    1.4627    2.3774 H   0  0  0  0  0  0  0  0  0  0  0  0
   -1.2628    3.0589    2.0829 H   0  0  0  0  0  0  0  0  0  0  0  0
   -1.0264    3.5471    4.1680 H   0  0  0  0  0  0  0  0  0  0  0  0
   -0.5274    1.8262    5.7912 H   0  0  0  0  0  0  0  0  0  0  0  0
    0.4815    1.5008    2.9493 H   0  0  0  0  0  0  0  0  0  0  0  0
    2.4723    2.2275    3.6947 H   0  0  0  0  0  0  0  0  0  0  0  0
    2.0314    2.0957    5.3579 H   0  0  0  0  0  0  0  0  0  0  0  0
    4.3576    1.0137    3.5550 H   0  0  0  0  0  0  0  0  0  0  0  0
    3.0587   -1.4615    5.8860 H   0  0  0  0  0  0  0  0  0  0  0  0
    4.3708    1.6267    8.0574 H   0  0  0  0  0  0  0  0  0  0  0  0
    2.6888    1.7991    7.5941 H   0  0  0  0  0  0  0  0  0  0  0  0
    3.9803    2.1325    6.4267 H   0  0  0  0  0  0  0  0  0  0  0  0
    1.0287    0.5782    6.7693 H   0  0  0  0  0  0  0  0  0  0  0  0
    3.1107   -1.0830    8.8880 H   0  0  0  0  0  0  0  0  0  0  0  0
    1.8051   -1.1260   10.0465 H   0  0  0  0  0  0  0  0  0  0  0  0
    2.1158    0.3476    9.1812 H   0  0  0  0  0  0  0  0  0  0  0  0
   -0.0631    0.1279    8.7411 H   0  0  0  0  0  0  0  0  0  0  0  0
    2.1210   -3.0226    7.4364 H   0  0  0  0  0  0  0  0  0  0  0  0
    1.6685   -3.1854    9.6028 H   0  0  0  0  0  0  0  0  0  0  0  0
    0.1809   -4.2920    6.6784 H   0  0  0  0  0  0  0  0  0  0  0  0
   -0.9240   -3.0430    7.1976 H   0  0  0  0  0  0  0  0  0  0  0  0
    1.1876   -2.8941    5.0320 H   0  0  0  0  0  0  0  0  0  0  0  0
   -0.5298   -2.8825    4.7786 H   0  0  0  0  0  0  0  0  0  0  0  0
   -1.9623   -0.1313    3.8321 H   0  0  0  0  0  0  0  0  0  0  0  0
    0.6589   -2.0300    2.9386 H   0  0  0  0  0  0  0  0  0  0  0  0
    0.6833   -0.5584    2.0606 H   0  0  0  0  0  0  0  0  0  0  0  0
    2.7592   -1.7859    3.7939 H   0  0  0  0  0  0  0  0  0  0  0  0
    3.7089    0.6034    0.4752 H   0  0  0  0  0  0  0  0  0  0  0  0
    3.6744    1.3384    2.0290 H   0  0  0  0  0  0  0  0  0  0  0  0
    2.1670    0.8641    1.2668 H   0  0  0  0  0  0  0  0  0  0  0  0
    3.4028   -3.3292    2.9645 H   0  0  0  0  0  0  0  0  0  0  0  0
    6.1946   -3.2066    1.7625 H   0  0  0  0  0  0  0  0  0  0  0  0
    5.7246   -3.3630    3.4418 H   0  0  0  0  0  0  0  0  0  0  0  0
    6.4612   -5.5472    2.0518 H   0  0  0  0  0  0  0  0  0  0  0  0
    5.0510   -5.6474    3.1058 H   0  0  0  0  0  0  0  0  0  0  0  0
    5.1124   -5.3209    0.1059 H   0  0  0  0  0  0  0  0  0  0  0  0
    4.0474   -6.3537    1.0499 H   0  0  0  0  0  0  0  0  0  0  0  0
    2.5298   -4.5819    1.3420 H   0  0  0  0  0  0  0  0  0  0  0  0
    3.3992   -3.8245    0.0359 H   0  0  0  0  0  0  0  0  0  0  0  0
   -2.3692    2.7655    4.6761 H   0  0  0  0  0  0  0  0  0  0  0  0
  1  2  1  0
  1 37  1  0
  1 38  1  0
  1 39  1  0
  2  3  1  0
  3  4  1  0
  3 40  1  0
  3 41  1  0
  4  5  1  0
  4 42  1  0
  4 43  1  0
  5  6  1  0
  5 44  1  0
  5 81  1  0
  6 24  1  0
  6  7  1  0
  6 45  1  1
  7 25  1  0
  7  8  1  0
  7 46  1  6
  8  9  1  0
  8 47  1  0
  8 48  1  0
  9 27  1  0
  9 10  1  6
  9 11  1  0
 10 49  1  0
 11 12  1  0
 11 14  1  0
 11 50  1  6
 12 13  1  0
 13 51  1  0
 13 52  1  0
 13 53  1  0
 14 22  1  0
 14 15  1  0
 14 54  1  1
 15 16  1  0
 15 17  1  1
 15 18  1  0
 16 55  1  0
 16 56  1  0
 16 57  1  0
 17 58  1  0
 18 19  1  0
 18 20  1  0
 18 59  1  6
 19 60  1  0
 20 21  1  0
 20 61  1  0
 20 62  1  0
 21 22  1  0
 21 63  1  0
 21 64  1  0
 22 25  1  0
 22 23  1  1
 23 24  1  0
 24 25  1  0
 24 65  1  6
 25 26  1  6
 26 27  1  0
 26 66  1  0
 26 67  1  0
 27 28  1  0
 27 68  1  1
 28 29  1  0
 28 30  1  0
 29 69  1  0
 29 70  1  0
 29 71  1  0
 30 31  2  0
 30 32  1  0
 32 36  1  0
 32 33  1  0
 32 72  1  0
 33 34  1  0
 33 73  1  0
 33 74  1  0
 34 35  1  0
 34 75  1  0
 34 76  1  0
 35 36  1  0
 35 77  1  0
 35 78  1  0
 36 79  1  0
 36 80  1  0
M  CHG  1   5   1
M  END
>  <i_m_ct_stereo_status>  (219) 
1

>  <s_m_source_file>  (219) 
/var/tmp/pbs.5076255.sched01/tmpguyree9i/45_f3p7e6s.sdf

>  <i_m_source_file_index>  (219) 
45

>  <i_lp_mmshare_version>  (219) 
48012

>  <i_f3d_flags>  (219) 
0

>  <s_epik_input>  (219) 
W0NIM11PW0NIMl1bQ0gyXVtOSF1bQ0BASF0oW0NAQEhdMU8yKVtDQEhdKFtDQEBdMTNbQ0BdMjQ1KVtDSDJdW0NAQF0oW09IXSkoW0NAQEhdKE9bQ0gzXSlbQ0BASF00W0NAQF0oW0NIM10pKFtPSF0pW0NAQEhdKFtPSF0pW0NIMl1bQ0gyXTUpW0NAQEhdKFtDSDJdMylOKFtDSDNdKUMoPU8pW0NIXTZbQ0gyXVtDSDJdW0NIMl1bQ0gyXTY=

>  <s_epik_cmdline>  (219) 
J2VwaWtfcHl0aG9uJywgJy1waHQnLCAnMi4wJywgJy1waCcsICc3LjAnLCAnLXRuJywgJzgnLCAnLW1hJywgJzIwMCcsICctaW1hZScsICc8aW5maWxlLm1hZT4nLCAnLW9tYWUnLCAnPG91dGZpbGUubWFlPic=

>  <r_epik_Ionization_Penalty>  (219) 
0.00599876

>  <r_epik_Ionization_Penalty_Charging>  (219) 
0.00599842

>  <r_epik_Ionization_Penalty_Neutral>  (219) 
3.32398e-07

>  <r_epik_State_Penalty>  (219) 
0.00441535

>  <r_epik_Charging_Adjusted_Penalty>  (219) 
0.0104138

>  <i_epik_Tot_Q>  (219) 
1

>  <i_epik_Tot_abs_Q>  (219) 
1

>  <s_lp_Force_Field>  (219) 
OPLS3e

>  <r_lp_Energy>  (219) 
97.4887

>  <b_lp_Chiralities_Consistent>  (219) 
1

>  <s_lp_Variant>  (219) 
60:0-1

>  <s_i_glide_gridfile>  (219) 
pfpi4k_grid

>  <i_i_glide_lignum>  (219) 
45

>  <i_i_glide_rotatable_bonds>  (219) 
11

>  <r_i_docking_score>  (219) 
-2.48113

>  <r_i_glide_ligand_efficiency>  (219) 
-0.0689204

>  <r_i_glide_ligand_efficiency_sa>  (219) 
-0.22757

>  <r_i_glide_ligand_efficiency_ln>  (219) 
-0.541316

>  <r_i_glide_gscore>  (219) 
-2.48113

>  <r_i_glide_lipo>  (219) 
-0.263636

>  <r_i_glide_hbond>  (219) 
0

>  <r_i_glide_metal>  (219) 
-0

>  <r_i_glide_rewards>  (219) 
0

>  <r_i_glide_evdw>  (219) 
-22.3134

>  <r_i_glide_ecoul>  (219) 
-10.1997

>  <r_i_glide_erotb>  (219) 
0.473104

>  <r_i_glide_esite>  (219) 
-0.0449762

>  <r_i_glide_emodel>  (219) 
-32.5406

>  <r_i_glide_energy>  (219) 
-32.5131

>  <r_i_glide_einternal>  (219) 
13.7313

>  <r_i_glide_intrahb_reward>  (219) 
-0

>  <i_i_glide_confnum>  (219) 
9

>  <i_i_glide_posenum>  (219) 
12

>  <r_i_glide_eff_state_penalty>  (219) 
0

>  <ligand_id>  (219) 
60

>  <original_smiles>  (219) 
COCCNC1C2CC3(O)C(OC)C4C(C)(O)C(O)CCC45OC1C25CC3N(C)C(=O)C1CCCC1

>  <smiles>  (219) 
[H]OC1([H])C([H])([H])C([H])([H])C23OC4([H])C25C([H])([H])C([H])(N(C(=O)C2([H])C([H])([H])C([H])([H])C([H])([H])C2([H])[H])C([H])([H])[H])C(O[H])(C([H])([H])C5([H])C4([H])[N+]([H])([H])C([H])([H])C([H])([H])OC([H])([H])[H])C([H])(OC([H])([H])[H])C3([H])C1(O[H])C([H])([H])[H]

$$$$
61:0:0
     RDKit          3D

  8  8  0  0  1  0  0  0  0  0999 V2000
   -5.7337   -6.9391   -5.2210 C   0  0  0  0  0  0  0  0  0  0  0  0
   -7.0157   -6.6461   -5.6195 C   0  0  0  0  0  0  0  0  0  0  0  0
   -7.4141   -4.9653   -5.3646 S   0  0  0  0  0  0  0  0  0  0  0  0
   -5.7964   -4.7309   -4.7273 C   0  0  0  0  0  0  0  0  0  0  0  0
   -5.0420   -5.8318   -4.7258 N   0  0  0  0  0  0  0  0  0  0  0  0
   -5.2304   -7.8938   -5.2588 H   0  0  0  0  0  0  0  0  0  0  0  0
   -7.7534   -7.3129   -6.0398 H   0  0  0  0  0  0  0  0  0  0  0  0
   -5.4021   -3.7925   -4.3645 H   0  0  0  0  0  0  0  0  0  0  0  0
  1  5  1  0
  1  2  2  0
  1  6  1  0
  2  3  1  0
  2  7  1  0
  3  4  1  0
  4  5  2  0
  4  8  1  0
M  END
>  <i_m_ct_stereo_status>  (220) 
1

>  <s_m_source_file>  (220) 
/var/tmp/pbs.5076255.sched01/tmprcd7yfff/907v12ihtf.sdf

>  <i_m_source_file_index>  (220) 
1

>  <i_lp_mmshare_version>  (220) 
48012

>  <i_f3d_flags>  (220) 
0

>  <s_epik_input>  (220) 
W2NIXTFbY0hdc1tjSF1uMQ==

>  <s_epik_cmdline>  (220) 
J2VwaWtfcHl0aG9uJywgJy1waHQnLCAnMi4wJywgJy1waCcsICc3LjAnLCAnLXRuJywgJzgnLCAnLW1hJywgJzIwMCcsICctaW1hZScsICc8aW5maWxlLm1hZT4nLCAnLW9tYWUnLCAnPG91dGZpbGUubWFlPic=

>  <r_lp_tautomer_probability>  (220) 
1

>  <r_epik_Ionization_Penalty>  (220) 
3.73821e-05

>  <r_epik_Ionization_Penalty_Charging>  (220) 
0

>  <r_epik_Ionization_Penalty_Neutral>  (220) 
3.73821e-05

>  <r_epik_State_Penalty>  (220) 
-0

>  <r_epik_Charging_Adjusted_Penalty>  (220) 
0

>  <i_epik_Tot_Q>  (220) 
0

>  <i_epik_Tot_abs_Q>  (220) 
0

>  <s_lp_Force_Field>  (220) 
OPLS3e

>  <r_lp_Energy>  (220) 
1.5388

>  <b_lp_Chiralities_Consistent>  (220) 
1

>  <s_lp_Variant>  (220) 
61:0-1

>  <s_i_glide_gridfile>  (220) 
pfpi4k_grid

>  <i_i_glide_lignum>  (220) 
1

>  <i_i_glide_rotatable_bonds>  (220) 
0

>  <r_i_docking_score>  (220) 
-6.1232

>  <r_i_glide_ligand_efficiency>  (220) 
-1.22464

>  <r_i_glide_ligand_efficiency_sa>  (220) 
-2.0941

>  <r_i_glide_ligand_efficiency_ln>  (220) 
-2.34656

>  <r_i_glide_gscore>  (220) 
-6.1232

>  <r_i_glide_lipo>  (220) 
-1.25198

>  <r_i_glide_hbond>  (220) 
-0.32

>  <r_i_glide_metal>  (220) 
-0

>  <r_i_glide_rewards>  (220) 
-3.4

>  <r_i_glide_evdw>  (220) 
-13.1357

>  <r_i_glide_ecoul>  (220) 
-3.2962

>  <r_i_glide_erotb>  (220) 
0

>  <r_i_glide_esite>  (220) 
0

>  <r_i_glide_emodel>  (220) 
-22.5384

>  <r_i_glide_energy>  (220) 
-16.4319

>  <r_i_glide_einternal>  (220) 
0

>  <r_i_glide_intrahb_reward>  (220) 
-0

>  <i_i_glide_confnum>  (220) 
1

>  <i_i_glide_posenum>  (220) 
32

>  <r_i_glide_eff_state_penalty>  (220) 
0

>  <ligand_id>  (220) 
61

>  <original_smiles>  (220) 
c1cscn1

>  <smiles>  (220) 
[H]c1nc([H])c([H])s1

$$$$
61:0:1
     RDKit          3D

  8  8  0  0  1  0  0  0  0  0999 V2000
   -7.7076   -4.4624   -5.1050 C   0  0  0  0  0  0  0  0  0  0  0  0
   -6.5924   -4.6508   -4.3246 C   0  0  0  0  0  0  0  0  0  0  0  0
   -5.7735   -6.1426   -4.7118 S   0  0  0  0  0  0  0  0  0  0  0  0
   -7.0034   -6.4518   -5.9185 C   0  0  0  0  0  0  0  0  0  0  0  0
   -7.9299   -5.4989   -6.0155 N   0  0  0  0  0  0  0  0  0  0  0  0
   -8.3952   -3.6297   -5.0817 H   0  0  0  0  0  0  0  0  0  0  0  0
   -6.2053   -4.0015   -3.5521 H   0  0  0  0  0  0  0  0  0  0  0  0
   -7.0401   -7.3247   -6.5523 H   0  0  0  0  0  0  0  0  0  0  0  0
  1  5  1  0
  1  2  2  0
  1  6  1  0
  2  3  1  0
  2  7  1  0
  3  4  1  0
  4  5  2  0
  4  8  1  0
M  END
>  <i_m_ct_stereo_status>  (221) 
1

>  <s_m_source_file>  (221) 
/var/tmp/pbs.5076255.sched01/tmprcd7yfff/907v12ihtf.sdf

>  <i_m_source_file_index>  (221) 
1

>  <i_lp_mmshare_version>  (221) 
48012

>  <i_f3d_flags>  (221) 
0

>  <s_epik_input>  (221) 
W2NIXTFbY0hdc1tjSF1uMQ==

>  <s_epik_cmdline>  (221) 
J2VwaWtfcHl0aG9uJywgJy1waHQnLCAnMi4wJywgJy1waCcsICc3LjAnLCAnLXRuJywgJzgnLCAnLW1hJywgJzIwMCcsICctaW1hZScsICc8aW5maWxlLm1hZT4nLCAnLW9tYWUnLCAnPG91dGZpbGUubWFlPic=

>  <r_lp_tautomer_probability>  (221) 
1

>  <r_epik_Ionization_Penalty>  (221) 
3.73821e-05

>  <r_epik_Ionization_Penalty_Charging>  (221) 
0

>  <r_epik_Ionization_Penalty_Neutral>  (221) 
3.73821e-05

>  <r_epik_State_Penalty>  (221) 
-0

>  <r_epik_Charging_Adjusted_Penalty>  (221) 
0

>  <i_epik_Tot_Q>  (221) 
0

>  <i_epik_Tot_abs_Q>  (221) 
0

>  <s_lp_Force_Field>  (221) 
OPLS3e

>  <r_lp_Energy>  (221) 
1.5388

>  <b_lp_Chiralities_Consistent>  (221) 
1

>  <s_lp_Variant>  (221) 
61:0-1

>  <s_i_glide_gridfile>  (221) 
pfpi4k_grid

>  <i_i_glide_lignum>  (221) 
1

>  <i_i_glide_rotatable_bonds>  (221) 
0

>  <r_i_docking_score>  (221) 
-4.50316

>  <r_i_glide_ligand_efficiency>  (221) 
-0.900631

>  <r_i_glide_ligand_efficiency_sa>  (221) 
-1.54006

>  <r_i_glide_ligand_efficiency_ln>  (221) 
-1.72572

>  <r_i_glide_gscore>  (221) 
-4.50316

>  <r_i_glide_lipo>  (221) 
-1.24838

>  <r_i_glide_hbond>  (221) 
0

>  <r_i_glide_metal>  (221) 
-0

>  <r_i_glide_rewards>  (221) 
-2.44167

>  <r_i_glide_evdw>  (221) 
-14.4112

>  <r_i_glide_ecoul>  (221) 
-0.616979

>  <r_i_glide_erotb>  (221) 
0

>  <r_i_glide_esite>  (221) 
0

>  <r_i_glide_emodel>  (221) 
-19.5191

>  <r_i_glide_energy>  (221) 
-15.0282

>  <r_i_glide_einternal>  (221) 
0

>  <r_i_glide_intrahb_reward>  (221) 
-0

>  <i_i_glide_confnum>  (221) 
2

>  <i_i_glide_posenum>  (221) 
36

>  <r_i_glide_eff_state_penalty>  (221) 
0

>  <ligand_id>  (221) 
61

>  <original_smiles>  (221) 
c1cscn1

>  <smiles>  (221) 
[H]c1nc([H])c([H])s1

$$$$
61:0:2
     RDKit          3D

  8  8  0  0  1  0  0  0  0  0999 V2000
   -6.1634   -5.8486   -4.4829 C   0  0  0  0  0  0  0  0  0  0  0  0
   -6.8371   -4.6622   -4.3249 C   0  0  0  0  0  0  0  0  0  0  0  0
   -8.1043   -4.4735   -5.5086 S   0  0  0  0  0  0  0  0  0  0  0  0
   -7.6458   -6.0304   -6.1761 C   0  0  0  0  0  0  0  0  0  0  0  0
   -6.6314   -6.6226   -5.5458 N   0  0  0  0  0  0  0  0  0  0  0  0
   -5.3406   -6.2249   -3.8946 H   0  0  0  0  0  0  0  0  0  0  0  0
   -6.6720   -3.8918   -3.5839 H   0  0  0  0  0  0  0  0  0  0  0  0
   -8.1203   -6.5074   -7.0199 H   0  0  0  0  0  0  0  0  0  0  0  0
  1  5  1  0
  1  2  2  0
  1  6  1  0
  2  3  1  0
  2  7  1  0
  3  4  1  0
  4  5  2  0
  4  8  1  0
M  END
>  <i_m_ct_stereo_status>  (222) 
1

>  <s_m_source_file>  (222) 
/var/tmp/pbs.5076255.sched01/tmprcd7yfff/907v12ihtf.sdf

>  <i_m_source_file_index>  (222) 
1

>  <i_lp_mmshare_version>  (222) 
48012

>  <i_f3d_flags>  (222) 
0

>  <s_epik_input>  (222) 
W2NIXTFbY0hdc1tjSF1uMQ==

>  <s_epik_cmdline>  (222) 
J2VwaWtfcHl0aG9uJywgJy1waHQnLCAnMi4wJywgJy1waCcsICc3LjAnLCAnLXRuJywgJzgnLCAnLW1hJywgJzIwMCcsICctaW1hZScsICc8aW5maWxlLm1hZT4nLCAnLW9tYWUnLCAnPG91dGZpbGUubWFlPic=

>  <r_lp_tautomer_probability>  (222) 
1

>  <r_epik_Ionization_Penalty>  (222) 
3.73821e-05

>  <r_epik_Ionization_Penalty_Charging>  (222) 
0

>  <r_epik_Ionization_Penalty_Neutral>  (222) 
3.73821e-05

>  <r_epik_State_Penalty>  (222) 
-0

>  <r_epik_Charging_Adjusted_Penalty>  (222) 
0

>  <i_epik_Tot_Q>  (222) 
0

>  <i_epik_Tot_abs_Q>  (222) 
0

>  <s_lp_Force_Field>  (222) 
OPLS3e

>  <r_lp_Energy>  (222) 
1.5388

>  <b_lp_Chiralities_Consistent>  (222) 
1

>  <s_lp_Variant>  (222) 
61:0-1

>  <s_i_glide_gridfile>  (222) 
pfpi4k_grid

>  <i_i_glide_lignum>  (222) 
1

>  <i_i_glide_rotatable_bonds>  (222) 
0

>  <r_i_docking_score>  (222) 
-4.4125

>  <r_i_glide_ligand_efficiency>  (222) 
-0.8825

>  <r_i_glide_ligand_efficiency_sa>  (222) 
-1.50905

>  <r_i_glide_ligand_efficiency_ln>  (222) 
-1.69098

>  <r_i_glide_gscore>  (222) 
-4.4125

>  <r_i_glide_lipo>  (222) 
-1.24746

>  <r_i_glide_hbond>  (222) 
0

>  <r_i_glide_metal>  (222) 
-0

>  <r_i_glide_rewards>  (222) 
-2.425

>  <r_i_glide_evdw>  (222) 
-13.984

>  <r_i_glide_ecoul>  (222) 
-0.272262

>  <r_i_glide_erotb>  (222) 
0

>  <r_i_glide_esite>  (222) 
0

>  <r_i_glide_emodel>  (222) 
-18.6568

>  <r_i_glide_energy>  (222) 
-14.2563

>  <r_i_glide_einternal>  (222) 
0

>  <r_i_glide_intrahb_reward>  (222) 
-0

>  <i_i_glide_confnum>  (222) 
1

>  <i_i_glide_posenum>  (222) 
24

>  <r_i_glide_eff_state_penalty>  (222) 
0

>  <ligand_id>  (222) 
61

>  <original_smiles>  (222) 
c1cscn1

>  <smiles>  (222) 
[H]c1nc([H])c([H])s1

$$$$
62:0:0
     RDKit          3D

 67 73  0  0  1  0  0  0  0  0999 V2000
    3.4681   -4.4699    3.3737 C   0  0  0  0  0  0  0  0  0  0  0  0
    2.1555   -3.9884    3.9710 C   0  0  0  0  0  0  0  0  0  0  0  0
    1.5747   -2.7776    3.9605 C   0  0  0  0  0  0  0  0  0  0  0  0
    0.3403   -2.7106    4.7915 C   0  0  1  0  0  0  0  0  0  0  0  0
    0.4543   -3.9654    5.6683 C   0  0  0  0  0  0  0  0  0  0  0  0
    1.3356   -4.9411    4.8331 C   0  0  1  0  0  0  0  0  0  0  0  0
    0.5043   -5.9359    4.0423 C   0  0  0  0  0  0  0  0  0  0  0  0
   -0.5819   -6.7211    4.5277 C   0  0  0  0  0  0  0  0  0  0  0  0
   -1.0347   -7.4725    3.4785 C   0  0  0  0  0  0  0  0  0  0  0  0
   -0.3172   -7.2024    2.3580 O   0  0  0  0  0  0  0  0  0  0  0  0
    0.6252   -6.2958    2.7254 C   0  0  0  0  0  0  0  0  0  0  0  0
    0.3338   -1.4200    5.4031 O   0  0  0  0  0  0  0  0  0  0  0  0
    1.5450   -0.7715    4.9810 C   0  0  1  0  0  0  0  0  0  0  0  0
    1.9091   -1.3521    3.5801 C   0  0  2  0  0  0  0  0  0  0  0  0
    0.8953   -0.9602    2.4672 C   0  0  0  0  0  0  0  0  0  0  0  0
    3.3816   -0.9310    3.2503 C   0  0  1  0  0  0  0  0  0  0  0  0
    3.8079   -1.1518    1.7769 C   0  0  0  0  0  0  0  0  0  0  0  0
    5.3367   -1.0994    1.5679 C   0  0  0  0  0  0  0  0  0  0  0  0
    5.7690   -1.6520    0.2344 C   0  0  0  0  0  0  0  0  0  0  0  0
    5.0204   -1.6918   -0.9779 C   0  0  0  0  0  0  0  0  0  0  0  0
    5.8074   -2.3058   -1.9064 C   0  0  0  0  0  0  0  0  0  0  0  0
    7.0154   -2.6325   -1.3747 O   0  0  0  0  0  0  0  0  0  0  0  0
    6.9694   -2.2399   -0.0733 C   0  0  0  0  0  0  0  0  0  0  0  0
    3.6543    0.5510    3.6968 C   0  0  1  0  0  0  0  0  0  0  0  0
    2.3359    1.3598    3.9430 C   0  0  0  0  0  0  0  0  0  0  0  0
    1.6879    0.7618    5.1867 C   0  0  0  0  0  0  0  0  0  0  0  0
    2.6099    1.4596    6.2278 C   0  0  2  0  0  0  0  0  0  0  0  0
    3.9041    0.6698    6.3560 C   0  0  0  0  0  0  0  0  0  0  0  0
    4.5657    0.5759    4.9582 C   0  0  0  0  0  0  0  0  0  0  0  0
    5.7890    0.4811    4.8464 O   0  0  0  0  0  0  0  0  0  0  0  0
    1.1570    1.2889    6.5158 C   0  0  0  0  0  0  0  0  0  0  0  0
    0.2221    2.4848    6.4672 C   0  0  0  0  0  0  0  0  0  0  0  0
    0.8078    0.4000    7.6999 C   0  0  0  0  0  0  0  0  0  0  0  0
    3.2857   -5.2587    2.6443 H   0  0  0  0  0  0  0  0  0  0  0  0
    4.0909   -4.9040    4.1537 H   0  0  0  0  0  0  0  0  0  0  0  0
    4.0377   -3.6883    2.8797 H   0  0  0  0  0  0  0  0  0  0  0  0
   -0.5170   -2.7831    4.1231 H   0  0  0  0  0  0  0  0  0  0  0  0
    0.9946   -3.6961    6.5766 H   0  0  0  0  0  0  0  0  0  0  0  0
   -0.5090   -4.3656    5.9799 H   0  0  0  0  0  0  0  0  0  0  0  0
    1.9948   -5.4977    5.4965 H   0  0  0  0  0  0  0  0  0  0  0  0
   -0.9843   -6.7395    5.5286 H   0  0  0  0  0  0  0  0  0  0  0  0
   -1.8114   -8.2133    3.3662 H   0  0  0  0  0  0  0  0  0  0  0  0
    1.2920   -6.0121    1.9256 H   0  0  0  0  0  0  0  0  0  0  0  0
    2.2683   -1.2127    5.6597 H   0  0  0  0  0  0  0  0  0  0  0  0
    1.2202   -0.1668    1.7950 H   0  0  0  0  0  0  0  0  0  0  0  0
   -0.0590   -0.6519    2.8992 H   0  0  0  0  0  0  0  0  0  0  0  0
    0.6984   -1.8163    1.8211 H   0  0  0  0  0  0  0  0  0  0  0  0
    4.0176   -1.5849    3.8508 H   0  0  0  0  0  0  0  0  0  0  0  0
    3.4336   -2.1188    1.4476 H   0  0  0  0  0  0  0  0  0  0  0  0
    3.3372   -0.4199    1.1202 H   0  0  0  0  0  0  0  0  0  0  0  0
    5.6975   -0.0728    1.6384 H   0  0  0  0  0  0  0  0  0  0  0  0
    5.8450   -1.6627    2.3512 H   0  0  0  0  0  0  0  0  0  0  0  0
    4.0150   -1.3311   -1.1459 H   0  0  0  0  0  0  0  0  0  0  0  0
    5.6691   -2.5779   -2.9416 H   0  0  0  0  0  0  0  0  0  0  0  0
    7.8685   -2.4541    0.4888 H   0  0  0  0  0  0  0  0  0  0  0  0
    4.2050    1.0549    2.9059 H   0  0  0  0  0  0  0  0  0  0  0  0
    2.5614    2.4204    4.0608 H   0  0  0  0  0  0  0  0  0  0  0  0
    1.6442    1.3619    3.1111 H   0  0  0  0  0  0  0  0  0  0  0  0
    2.8443    2.5211    6.1558 H   0  0  0  0  0  0  0  0  0  0  0  0
    4.5705    1.1979    7.0418 H   0  0  0  0  0  0  0  0  0  0  0  0
    3.7306   -0.3181    6.7794 H   0  0  0  0  0  0  0  0  0  0  0  0
    0.2648    3.0481    7.3976 H   0  0  0  0  0  0  0  0  0  0  0  0
   -0.8019    2.1574    6.3009 H   0  0  0  0  0  0  0  0  0  0  0  0
    0.5033    3.1487    5.6529 H   0  0  0  0  0  0  0  0  0  0  0  0
    0.8626    0.9666    8.6316 H   0  0  0  0  0  0  0  0  0  0  0  0
    1.5155   -0.4283    7.7735 H   0  0  0  0  0  0  0  0  0  0  0  0
   -0.1968   -0.0086    7.5896 H   0  0  0  0  0  0  0  0  0  0  0  0
  1  2  1  0
  1 34  1  0
  1 35  1  0
  1 36  1  0
  2  6  1  0
  2  3  2  0
  3 14  1  0
  3  4  1  0
  4  5  1  0
  4 12  1  0
  4 37  1  6
  5  6  1  0
  5 38  1  0
  5 39  1  0
  6  7  1  0
  6 40  1  1
  7 11  2  0
  7  8  1  0
  8  9  2  0
  8 41  1  0
  9 10  1  0
  9 42  1  0
 10 11  1  0
 11 43  1  0
 12 13  1  0
 13 26  1  0
 13 14  1  0
 13 44  1  1
 14 15  1  6
 14 16  1  0
 15 45  1  0
 15 46  1  0
 15 47  1  0
 16 17  1  0
 16 24  1  0
 16 48  1  1
 17 18  1  0
 17 49  1  0
 17 50  1  0
 18 19  1  0
 18 51  1  0
 18 52  1  0
 19 23  2  0
 19 20  1  0
 20 21  2  0
 20 53  1  0
 21 22  1  0
 21 54  1  0
 22 23  1  0
 23 55  1  0
 24 29  1  0
 24 25  1  0
 24 56  1  6
 25 26  1  0
 25 57  1  0
 25 58  1  0
 26 31  1  0
 26 27  1  0
 27 28  1  0
 27 31  1  0
 27 59  1  6
 28 29  1  0
 28 60  1  0
 28 61  1  0
 29 30  2  0
 31 32  1  0
 31 33  1  0
 32 62  1  0
 32 63  1  0
 32 64  1  0
 33 65  1  0
 33 66  1  0
 33 67  1  0
M  END
>  <i_m_ct_stereo_status>  (223) 
1

>  <s_m_source_file>  (223) 
/var/tmp/pbs.5076255.sched01/tmprcd7yfff/907v12ihtf.sdf

>  <i_m_source_file_index>  (223) 
2

>  <i_lp_mmshare_version>  (223) 
48012

>  <i_f3d_flags>  (223) 
0

>  <s_epik_input>  (223) 
W2NIXTFvW2NIXVtjSF1jMVtDQEBIXShDPTJbQ0gzXSlbQ0gyXVtDQEBIXShPMylDMltDQF0oW0NASF0zQzQ1NikoW0NIM10pW0NASF0oW0NAQEhdKFtDSDJdNClDKD1PKVtDSDJdW0NAQEhdNUM2KFtDSDNdKVtDSDNdKVtDSDJdW0NIMl1jN1tjSF1bY0hdb1tjSF03

>  <s_epik_cmdline>  (223) 
J2VwaWtfcHl0aG9uJywgJy1waHQnLCAnMi4wJywgJy1waCcsICc3LjAnLCAnLXRuJywgJzgnLCAnLW1hJywgJzIwMCcsICctaW1hZScsICc8aW5maWxlLm1hZT4nLCAnLW9tYWUnLCAnPG91dGZpbGUubWFlPic=

>  <r_lp_tautomer_probability>  (223) 
1

>  <r_epik_Ionization_Penalty>  (223) 
8.345e-12

>  <r_epik_Ionization_Penalty_Charging>  (223) 
0

>  <r_epik_Ionization_Penalty_Neutral>  (223) 
8.345e-12

>  <r_epik_State_Penalty>  (223) 
-0

>  <r_epik_Charging_Adjusted_Penalty>  (223) 
0

>  <i_epik_Tot_Q>  (223) 
0

>  <i_epik_Tot_abs_Q>  (223) 
0

>  <s_lp_Force_Field>  (223) 
OPLS3e

>  <r_lp_Energy>  (223) 
67.6218

>  <b_lp_Chiralities_Consistent>  (223) 
1

>  <s_lp_Variant>  (223) 
62:0-1

>  <s_i_glide_gridfile>  (223) 
pfpi4k_grid

>  <i_i_glide_lignum>  (223) 
2

>  <i_i_glide_rotatable_bonds>  (223) 
4

>  <r_i_docking_score>  (223) 
-2.01863

>  <r_i_glide_ligand_efficiency>  (223) 
-0.0611707

>  <r_i_glide_ligand_efficiency_sa>  (223) 
-0.196207

>  <r_i_glide_ligand_efficiency_ln>  (223) 
-0.448933

>  <r_i_glide_gscore>  (223) 
-2.01863

>  <r_i_glide_lipo>  (223) 
-0.208086

>  <r_i_glide_hbond>  (223) 
-0.148607

>  <r_i_glide_metal>  (223) 
-0

>  <r_i_glide_rewards>  (223) 
-0.411395

>  <r_i_glide_evdw>  (223) 
-26.4599

>  <r_i_glide_ecoul>  (223) 
-2.19362

>  <r_i_glide_erotb>  (223) 
0.401492

>  <r_i_glide_esite>  (223) 
0

>  <r_i_glide_emodel>  (223) 
-31.6381

>  <r_i_glide_energy>  (223) 
-28.6535

>  <r_i_glide_einternal>  (223) 
1.07031

>  <r_i_glide_intrahb_reward>  (223) 
-0

>  <i_i_glide_confnum>  (223) 
2

>  <i_i_glide_posenum>  (223) 
3

>  <r_i_glide_eff_state_penalty>  (223) 
0

>  <ligand_id>  (223) 
62

>  <original_smiles>  (223) 
CC1=C2C(CC1c1ccoc1)OC1C2(C)C(CCc2ccoc2)C2CC13C(CC2=O)C3(C)C

>  <smiles>  (223) 
[H]c1oc([H])c(C([H])([H])C([H])([H])C2([H])C3([H])C(=O)C([H])([H])C4([H])C(C([H])([H])[H])(C([H])([H])[H])C4(C3([H])[H])C3([H])OC4([H])C(=C(C([H])([H])[H])C([H])(c5c([H])oc([H])c5[H])C4([H])[H])C32C([H])([H])[H])c1[H]

$$$$
62:0:1
     RDKit          3D

 67 73  0  0  1  0  0  0  0  0999 V2000
    0.1049   -2.0091    7.0552 C   0  0  0  0  0  0  0  0  0  0  0  0
    0.7176   -0.8546    6.2845 C   0  0  0  0  0  0  0  0  0  0  0  0
    1.3058   -0.8173    5.0830 C   0  0  0  0  0  0  0  0  0  0  0  0
    1.8953    0.5109    4.7536 C   0  0  1  0  0  0  0  0  0  0  0  0
    1.9492    1.2014    6.1230 C   0  0  0  0  0  0  0  0  0  0  0  0
    0.8284    0.5087    6.9485 C   0  0  1  0  0  0  0  0  0  0  0  0
   -0.4658    1.2930    6.9462 C   0  0  0  0  0  0  0  0  0  0  0  0
   -1.1282    1.8560    8.0773 C   0  0  0  0  0  0  0  0  0  0  0  0
   -2.2413    2.4926    7.6055 C   0  0  0  0  0  0  0  0  0  0  0  0
   -2.3229    2.3781    6.2546 O   0  0  0  0  0  0  0  0  0  0  0  0
   -1.2441    1.6441    5.8735 C   0  0  0  0  0  0  0  0  0  0  0  0
    3.1031    0.2465    4.0430 O   0  0  0  0  0  0  0  0  0  0  0  0
    3.2348   -1.1814    3.9897 C   0  0  1  0  0  0  0  0  0  0  0  0
    1.7997   -1.7753    4.0297 C   0  0  2  0  0  0  0  0  0  0  0  0
    0.9798   -1.4340    2.7614 C   0  0  0  0  0  0  0  0  0  0  0  0
    1.9187   -3.3145    4.3273 C   0  0  1  0  0  0  0  0  0  0  0  0
    0.6297   -4.1317    4.0804 C   0  0  0  0  0  0  0  0  0  0  0  0
    0.6885   -5.5785    4.6236 C   0  0  0  0  0  0  0  0  0  0  0  0
   -0.1051   -6.5531    3.7899 C   0  0  0  0  0  0  0  0  0  0  0  0
   -1.3744   -7.1210    4.0933 C   0  0  0  0  0  0  0  0  0  0  0  0
   -1.6922   -7.9540    3.0596 C   0  0  0  0  0  0  0  0  0  0  0  0
   -0.7218   -7.9300    2.1097 O   0  0  0  0  0  0  0  0  0  0  0  0
    0.2417   -7.0923    2.5774 C   0  0  0  0  0  0  0  0  0  0  0  0
    3.1166   -3.9422    3.5193 C   0  0  1  0  0  0  0  0  0  0  0  0
    3.6082   -3.0267    2.3462 C   0  0  0  0  0  0  0  0  0  0  0  0
    4.2443   -1.7992    2.9898 C   0  0  0  0  0  0  0  0  0  0  0  0
    5.5843   -2.4778    3.3710 C   0  0  2  0  0  0  0  0  0  0  0  0
    5.4113   -3.2367    4.6796 C   0  0  0  0  0  0  0  0  0  0  0  0
    4.2822   -4.2739    4.4920 C   0  0  0  0  0  0  0  0  0  0  0  0
    4.2843   -5.3232    5.1387 O   0  0  0  0  0  0  0  0  0  0  0  0
    5.5823   -1.0690    2.8862 C   0  0  0  0  0  0  0  0  0  0  0  0
    6.0784   -0.7496    1.4886 C   0  0  0  0  0  0  0  0  0  0  0  0
    6.0378    0.0022    3.8738 C   0  0  0  0  0  0  0  0  0  0  0  0
   -0.9506   -1.8060    7.2159 H   0  0  0  0  0  0  0  0  0  0  0  0
    0.5841   -2.0922    8.0293 H   0  0  0  0  0  0  0  0  0  0  0  0
    0.1908   -2.9703    6.5557 H   0  0  0  0  0  0  0  0  0  0  0  0
    1.2049    1.0285    4.0868 H   0  0  0  0  0  0  0  0  0  0  0  0
    2.9119    0.9676    6.5765 H   0  0  0  0  0  0  0  0  0  0  0  0
    1.8685    2.2856    6.0741 H   0  0  0  0  0  0  0  0  0  0  0  0
    1.1587    0.3833    7.9756 H   0  0  0  0  0  0  0  0  0  0  0  0
   -0.8280    1.8191    9.1145 H   0  0  0  0  0  0  0  0  0  0  0  0
   -3.0336    3.0591    8.0695 H   0  0  0  0  0  0  0  0  0  0  0  0
   -1.1745    1.4819    4.8073 H   0  0  0  0  0  0  0  0  0  0  0  0
    3.6409   -1.3958    4.9716 H   0  0  0  0  0  0  0  0  0  0  0  0
    0.9091   -2.2524    2.0612 H   0  0  0  0  0  0  0  0  0  0  0  0
    1.3982   -0.5895    2.2126 H   0  0  0  0  0  0  0  0  0  0  0  0
   -0.0420   -1.1627    3.0324 H   0  0  0  0  0  0  0  0  0  0  0  0
    2.1416   -3.4105    5.3943 H   0  0  0  0  0  0  0  0  0  0  0  0
   -0.2479   -3.6209    4.4757 H   0  0  0  0  0  0  0  0  0  0  0  0
    0.4986   -4.1757    3.0050 H   0  0  0  0  0  0  0  0  0  0  0  0
    1.7085   -5.9607    4.6562 H   0  0  0  0  0  0  0  0  0  0  0  0
    0.3242   -5.6018    5.6501 H   0  0  0  0  0  0  0  0  0  0  0  0
   -1.9826   -6.9518    4.9675 H   0  0  0  0  0  0  0  0  0  0  0  0
   -2.5282   -8.6014    2.8511 H   0  0  0  0  0  0  0  0  0  0  0  0
    1.1018   -7.0002    1.9285 H   0  0  0  0  0  0  0  0  0  0  0  0
    2.8082   -4.8889    3.0734 H   0  0  0  0  0  0  0  0  0  0  0  0
    4.3096   -3.5749    1.7145 H   0  0  0  0  0  0  0  0  0  0  0  0
    2.8447   -2.7360    1.6375 H   0  0  0  0  0  0  0  0  0  0  0  0
    6.1231   -3.1042    2.6601 H   0  0  0  0  0  0  0  0  0  0  0  0
    6.3295   -3.7704    4.9167 H   0  0  0  0  0  0  0  0  0  0  0  0
    5.2103   -2.5656    5.5135 H   0  0  0  0  0  0  0  0  0  0  0  0
    7.1616   -0.6696    1.4767 H   0  0  0  0  0  0  0  0  0  0  0  0
    5.6476    0.1856    1.1410 H   0  0  0  0  0  0  0  0  0  0  0  0
    5.7902   -1.5346    0.7938 H   0  0  0  0  0  0  0  0  0  0  0  0
    7.1204    0.1511    3.8416 H   0  0  0  0  0  0  0  0  0  0  0  0
    5.7620   -0.2930    4.8900 H   0  0  0  0  0  0  0  0  0  0  0  0
    5.5575    0.9488    3.6531 H   0  0  0  0  0  0  0  0  0  0  0  0
  1  2  1  0
  1 34  1  0
  1 35  1  0
  1 36  1  0
  2  6  1  0
  2  3  2  0
  3 14  1  0
  3  4  1  0
  4  5  1  0
  4 12  1  0
  4 37  1  6
  5  6  1  0
  5 38  1  0
  5 39  1  0
  6  7  1  0
  6 40  1  1
  7 11  2  0
  7  8  1  0
  8  9  2  0
  8 41  1  0
  9 10  1  0
  9 42  1  0
 10 11  1  0
 11 43  1  0
 12 13  1  0
 13 26  1  0
 13 14  1  0
 13 44  1  1
 14 15  1  6
 14 16  1  0
 15 45  1  0
 15 46  1  0
 15 47  1  0
 16 17  1  0
 16 24  1  0
 16 48  1  1
 17 18  1  0
 17 49  1  0
 17 50  1  0
 18 19  1  0
 18 51  1  0
 18 52  1  0
 19 23  2  0
 19 20  1  0
 20 21  2  0
 20 53  1  0
 21 22  1  0
 21 54  1  0
 22 23  1  0
 23 55  1  0
 24 29  1  0
 24 25  1  0
 24 56  1  6
 25 26  1  0
 25 57  1  0
 25 58  1  0
 26 31  1  0
 26 27  1  0
 27 28  1  0
 27 31  1  0
 27 59  1  6
 28 29  1  0
 28 60  1  0
 28 61  1  0
 29 30  2  0
 31 32  1  0
 31 33  1  0
 32 62  1  0
 32 63  1  0
 32 64  1  0
 33 65  1  0
 33 66  1  0
 33 67  1  0
M  END
>  <i_m_ct_stereo_status>  (224) 
1

>  <s_m_source_file>  (224) 
/var/tmp/pbs.5076255.sched01/tmprcd7yfff/907v12ihtf.sdf

>  <i_m_source_file_index>  (224) 
2

>  <i_lp_mmshare_version>  (224) 
48012

>  <i_f3d_flags>  (224) 
0

>  <s_epik_input>  (224) 
W2NIXTFvW2NIXVtjSF1jMVtDQEBIXShDPTJbQ0gzXSlbQ0gyXVtDQEBIXShPMylDMltDQF0oW0NASF0zQzQ1NikoW0NIM10pW0NASF0oW0NAQEhdKFtDSDJdNClDKD1PKVtDSDJdW0NAQEhdNUM2KFtDSDNdKVtDSDNdKVtDSDJdW0NIMl1jN1tjSF1bY0hdb1tjSF03

>  <s_epik_cmdline>  (224) 
J2VwaWtfcHl0aG9uJywgJy1waHQnLCAnMi4wJywgJy1waCcsICc3LjAnLCAnLXRuJywgJzgnLCAnLW1hJywgJzIwMCcsICctaW1hZScsICc8aW5maWxlLm1hZT4nLCAnLW9tYWUnLCAnPG91dGZpbGUubWFlPic=

>  <r_lp_tautomer_probability>  (224) 
1

>  <r_epik_Ionization_Penalty>  (224) 
8.345e-12

>  <r_epik_Ionization_Penalty_Charging>  (224) 
0

>  <r_epik_Ionization_Penalty_Neutral>  (224) 
8.345e-12

>  <r_epik_State_Penalty>  (224) 
-0

>  <r_epik_Charging_Adjusted_Penalty>  (224) 
0

>  <i_epik_Tot_Q>  (224) 
0

>  <i_epik_Tot_abs_Q>  (224) 
0

>  <s_lp_Force_Field>  (224) 
OPLS3e

>  <r_lp_Energy>  (224) 
67.6218

>  <b_lp_Chiralities_Consistent>  (224) 
1

>  <s_lp_Variant>  (224) 
62:0-1

>  <s_i_glide_gridfile>  (224) 
pfpi4k_grid

>  <i_i_glide_lignum>  (224) 
2

>  <i_i_glide_rotatable_bonds>  (224) 
4

>  <r_i_docking_score>  (224) 
-1.59878

>  <r_i_glide_ligand_efficiency>  (224) 
-0.0484479

>  <r_i_glide_ligand_efficiency_sa>  (224) 
-0.155398

>  <r_i_glide_ligand_efficiency_ln>  (224) 
-0.355561

>  <r_i_glide_gscore>  (224) 
-1.59878

>  <r_i_glide_lipo>  (224) 
-0.36496

>  <r_i_glide_hbond>  (224) 
0

>  <r_i_glide_metal>  (224) 
-0

>  <r_i_glide_rewards>  (224) 
-0.365081

>  <r_i_glide_evdw>  (224) 
-21.7429

>  <r_i_glide_ecoul>  (224) 
-1.22059

>  <r_i_glide_erotb>  (224) 
0.401492

>  <r_i_glide_esite>  (224) 
0

>  <r_i_glide_emodel>  (224) 
-24.4094

>  <r_i_glide_energy>  (224) 
-22.9634

>  <r_i_glide_einternal>  (224) 
2.37323

>  <r_i_glide_intrahb_reward>  (224) 
-0

>  <i_i_glide_confnum>  (224) 
2

>  <i_i_glide_posenum>  (224) 
20

>  <r_i_glide_eff_state_penalty>  (224) 
0

>  <ligand_id>  (224) 
62

>  <original_smiles>  (224) 
CC1=C2C(CC1c1ccoc1)OC1C2(C)C(CCc2ccoc2)C2CC13C(CC2=O)C3(C)C

>  <smiles>  (224) 
[H]c1oc([H])c(C([H])([H])C([H])([H])C2([H])C3([H])C(=O)C([H])([H])C4([H])C(C([H])([H])[H])(C([H])([H])[H])C4(C3([H])[H])C3([H])OC4([H])C(=C(C([H])([H])[H])C([H])(c5c([H])oc([H])c5[H])C4([H])[H])C32C([H])([H])[H])c1[H]

$$$$
62:0:2
     RDKit          3D

 67 73  0  0  1  0  0  0  0  0999 V2000
    3.7490   -3.6043    3.4510 C   0  0  0  0  0  0  0  0  0  0  0  0
    3.6122   -4.8435    2.5835 C   0  0  0  0  0  0  0  0  0  0  0  0
    2.7464   -5.8670    2.6356 C   0  0  0  0  0  0  0  0  0  0  0  0
    3.0526   -6.9421    1.6507 C   0  0  1  0  0  0  0  0  0  0  0  0
    4.4997   -6.6304    1.2440 C   0  0  0  0  0  0  0  0  0  0  0  0
    4.6481   -5.1045    1.4991 C   0  0  1  0  0  0  0  0  0  0  0  0
    4.4390   -4.2911    0.2380 C   0  0  0  0  0  0  0  0  0  0  0  0
    5.4277   -3.9544   -0.7303 C   0  0  0  0  0  0  0  0  0  0  0  0
    4.8024   -3.2197   -1.6997 C   0  0  0  0  0  0  0  0  0  0  0  0
    3.4864   -3.0656   -1.4058 O   0  0  0  0  0  0  0  0  0  0  0  0
    3.2848   -3.7201   -0.2319 C   0  0  0  0  0  0  0  0  0  0  0  0
    2.7420   -8.1756    2.2984 O   0  0  0  0  0  0  0  0  0  0  0  0
    2.3217   -7.8393    3.6306 C   0  0  1  0  0  0  0  0  0  0  0  0
    1.6789   -6.4217    3.5535 C   0  0  2  0  0  0  0  0  0  0  0  0
    0.3558   -6.3844    2.7337 C   0  0  0  0  0  0  0  0  0  0  0  0
    1.5192   -5.8854    5.0170 C   0  0  1  0  0  0  0  0  0  0  0  0
    0.6220   -4.6300    5.1511 C   0  0  0  0  0  0  0  0  0  0  0  0
    0.8297   -3.8710    6.4769 C   0  0  0  0  0  0  0  0  0  0  0  0
    0.2019   -2.5003    6.4770 C   0  0  0  0  0  0  0  0  0  0  0  0
    0.7183   -1.3157    7.0781 C   0  0  0  0  0  0  0  0  0  0  0  0
   -0.1698   -0.3148    6.8045 C   0  0  0  0  0  0  0  0  0  0  0  0
   -1.2190   -0.7893    6.0787 O   0  0  0  0  0  0  0  0  0  0  0  0
   -0.9731   -2.1121    5.8899 C   0  0  0  0  0  0  0  0  0  0  0  0
    1.0399   -7.0282    5.9896 C   0  0  1  0  0  0  0  0  0  0  0  0
    0.4374   -8.2550    5.2235 C   0  0  0  0  0  0  0  0  0  0  0  0
    1.5972   -8.9157    4.4863 C   0  0  0  0  0  0  0  0  0  0  0  0
    2.1972   -9.6597    5.7150 C   0  0  2  0  0  0  0  0  0  0  0  0
    3.0707   -8.6945    6.5010 C   0  0  0  0  0  0  0  0  0  0  0  0
    2.2103   -7.4744    6.9148 C   0  0  0  0  0  0  0  0  0  0  0  0
    2.4734   -6.8343    7.9337 O   0  0  0  0  0  0  0  0  0  0  0  0
    2.1754  -10.3219    4.3794 C   0  0  0  0  0  0  0  0  0  0  0  0
    1.2015  -11.4555    4.1083 C   0  0  0  0  0  0  0  0  0  0  0  0
    3.5333  -10.6352    3.7665 C   0  0  0  0  0  0  0  0  0  0  0  0
    3.6153   -2.7124    2.8374 H   0  0  0  0  0  0  0  0  0  0  0  0
    4.7524   -3.5562    3.8718 H   0  0  0  0  0  0  0  0  0  0  0  0
    3.0372   -3.5650    4.2708 H   0  0  0  0  0  0  0  0  0  0  0  0
    2.3838   -6.8087    0.8014 H   0  0  0  0  0  0  0  0  0  0  0  0
    5.1642   -7.1668    1.9221 H   0  0  0  0  0  0  0  0  0  0  0  0
    4.7481   -6.9433    0.2310 H   0  0  0  0  0  0  0  0  0  0  0  0
    5.6443   -4.8929    1.8821 H   0  0  0  0  0  0  0  0  0  0  0  0
    6.4733   -4.2221   -0.7250 H   0  0  0  0  0  0  0  0  0  0  0  0
    5.1274   -2.7544   -2.6169 H   0  0  0  0  0  0  0  0  0  0  0  0
    2.2674   -3.6810    0.1247 H   0  0  0  0  0  0  0  0  0  0  0  0
    3.2782   -7.6881    4.1229 H   0  0  0  0  0  0  0  0  0  0  0  0
   -0.5488   -6.3513    3.3379 H   0  0  0  0  0  0  0  0  0  0  0  0
    0.2768   -7.2497    2.0715 H   0  0  0  0  0  0  0  0  0  0  0  0
    0.3359   -5.4969    2.1005 H   0  0  0  0  0  0  0  0  0  0  0  0
    2.5220   -5.5800    5.3265 H   0  0  0  0  0  0  0  0  0  0  0  0
    0.8295   -3.9582    4.3202 H   0  0  0  0  0  0  0  0  0  0  0  0
   -0.4287   -4.9029    5.0617 H   0  0  0  0  0  0  0  0  0  0  0  0
    0.4219   -4.4402    7.3137 H   0  0  0  0  0  0  0  0  0  0  0  0
    1.8949   -3.7468    6.6719 H   0  0  0  0  0  0  0  0  0  0  0  0
    1.6381   -1.1991    7.6343 H   0  0  0  0  0  0  0  0  0  0  0  0
   -0.2044    0.7388    7.0336 H   0  0  0  0  0  0  0  0  0  0  0  0
   -1.7214   -2.6307    5.3133 H   0  0  0  0  0  0  0  0  0  0  0  0
    0.2636   -6.6356    6.6467 H   0  0  0  0  0  0  0  0  0  0  0  0
   -0.0507   -8.9374    5.9216 H   0  0  0  0  0  0  0  0  0  0  0  0
   -0.3646   -8.0127    4.5391 H   0  0  0  0  0  0  0  0  0  0  0  0
    1.5667  -10.2190    6.4070 H   0  0  0  0  0  0  0  0  0  0  0  0
    3.4391   -9.2036    7.3945 H   0  0  0  0  0  0  0  0  0  0  0  0
    3.9442   -8.3878    5.9278 H   0  0  0  0  0  0  0  0  0  0  0  0
    1.5894  -12.3938    4.4992 H   0  0  0  0  0  0  0  0  0  0  0  0
    1.0311  -11.5626    3.0388 H   0  0  0  0  0  0  0  0  0  0  0  0
    0.2457  -11.2607    4.5907 H   0  0  0  0  0  0  0  0  0  0  0  0
    3.9217  -11.5758    4.1613 H   0  0  0  0  0  0  0  0  0  0  0  0
    4.2524   -9.8516    4.0115 H   0  0  0  0  0  0  0  0  0  0  0  0
    3.4593  -10.7129    2.6805 H   0  0  0  0  0  0  0  0  0  0  0  0
  1  2  1  0
  1 34  1  0
  1 35  1  0
  1 36  1  0
  2  6  1  0
  2  3  2  0
  3 14  1  0
  3  4  1  0
  4  5  1  0
  4 12  1  0
  4 37  1  6
  5  6  1  0
  5 38  1  0
  5 39  1  0
  6  7  1  0
  6 40  1  1
  7 11  2  0
  7  8  1  0
  8  9  2  0
  8 41  1  0
  9 10  1  0
  9 42  1  0
 10 11  1  0
 11 43  1  0
 12 13  1  0
 13 26  1  0
 13 14  1  0
 13 44  1  1
 14 15  1  6
 14 16  1  0
 15 45  1  0
 15 46  1  0
 15 47  1  0
 16 17  1  0
 16 24  1  0
 16 48  1  1
 17 18  1  0
 17 49  1  0
 17 50  1  0
 18 19  1  0
 18 51  1  0
 18 52  1  0
 19 23  2  0
 19 20  1  0
 20 21  2  0
 20 53  1  0
 21 22  1  0
 21 54  1  0
 22 23  1  0
 23 55  1  0
 24 29  1  0
 24 25  1  0
 24 56  1  1
 25 26  1  0
 25 57  1  0
 25 58  1  0
 26 31  1  0
 26 27  1  0
 27 28  1  0
 27 31  1  0
 27 59  1  1
 28 29  1  0
 28 60  1  0
 28 61  1  0
 29 30  2  0
 31 32  1  0
 31 33  1  0
 32 62  1  0
 32 63  1  0
 32 64  1  0
 33 65  1  0
 33 66  1  0
 33 67  1  0
M  END
>  <i_m_ct_stereo_status>  (225) 
1

>  <s_m_source_file>  (225) 
/var/tmp/pbs.5076255.sched01/tmprcd7yfff/907v12ihtf.sdf

>  <i_m_source_file_index>  (225) 
2

>  <i_lp_mmshare_version>  (225) 
48012

>  <i_f3d_flags>  (225) 
0

>  <s_epik_input>  (225) 
W2NIXTFvW2NIXVtjSF1jMVtDQEBIXShDPTJbQ0gzXSlbQ0gyXVtDQEBIXShPMylDMltDQF0oW0NASF0zQzQ1NikoW0NIM10pW0NASF0oW0NAQEhdKFtDSDJdNClDKD1PKVtDSDJdW0NAQEhdNUM2KFtDSDNdKVtDSDNdKVtDSDJdW0NIMl1jN1tjSF1bY0hdb1tjSF03

>  <s_epik_cmdline>  (225) 
J2VwaWtfcHl0aG9uJywgJy1waHQnLCAnMi4wJywgJy1waCcsICc3LjAnLCAnLXRuJywgJzgnLCAnLW1hJywgJzIwMCcsICctaW1hZScsICc8aW5maWxlLm1hZT4nLCAnLW9tYWUnLCAnPG91dGZpbGUubWFlPic=

>  <r_lp_tautomer_probability>  (225) 
1

>  <r_epik_Ionization_Penalty>  (225) 
8.345e-12

>  <r_epik_Ionization_Penalty_Charging>  (225) 
0

>  <r_epik_Ionization_Penalty_Neutral>  (225) 
8.345e-12

>  <r_epik_State_Penalty>  (225) 
-0

>  <r_epik_Charging_Adjusted_Penalty>  (225) 
0

>  <i_epik_Tot_Q>  (225) 
0

>  <i_epik_Tot_abs_Q>  (225) 
0

>  <s_lp_Force_Field>  (225) 
OPLS3e

>  <r_lp_Energy>  (225) 
67.6218

>  <b_lp_Chiralities_Consistent>  (225) 
1

>  <s_lp_Variant>  (225) 
62:0-1

>  <s_i_glide_gridfile>  (225) 
pfpi4k_grid

>  <i_i_glide_lignum>  (225) 
2

>  <i_i_glide_rotatable_bonds>  (225) 
4

>  <r_i_docking_score>  (225) 
-1.54914

>  <r_i_glide_ligand_efficiency>  (225) 
-0.0469436

>  <r_i_glide_ligand_efficiency_sa>  (225) 
-0.150573

>  <r_i_glide_ligand_efficiency_ln>  (225) 
-0.344521

>  <r_i_glide_gscore>  (225) 
-1.54914

>  <r_i_glide_lipo>  (225) 
-0.407768

>  <r_i_glide_hbond>  (225) 
-0.049187

>  <r_i_glide_metal>  (225) 
-0

>  <r_i_glide_rewards>  (225) 
-0.364242

>  <r_i_glide_evdw>  (225) 
-23.6746

>  <r_i_glide_ecoul>  (225) 
0.374569

>  <r_i_glide_erotb>  (225) 
0.401492

>  <r_i_glide_esite>  (225) 
-0.00189068

>  <r_i_glide_emodel>  (225) 
-25.6805

>  <r_i_glide_energy>  (225) 
-23.3

>  <r_i_glide_einternal>  (225) 
0.70423

>  <r_i_glide_intrahb_reward>  (225) 
-0

>  <i_i_glide_confnum>  (225) 
2

>  <i_i_glide_posenum>  (225) 
35

>  <r_i_glide_eff_state_penalty>  (225) 
0

>  <ligand_id>  (225) 
62

>  <original_smiles>  (225) 
CC1=C2C(CC1c1ccoc1)OC1C2(C)C(CCc2ccoc2)C2CC13C(CC2=O)C3(C)C

>  <smiles>  (225) 
[H]c1oc([H])c(C([H])([H])C([H])([H])C2([H])C3([H])C(=O)C([H])([H])C4([H])C(C([H])([H])[H])(C([H])([H])[H])C4(C3([H])[H])C3([H])OC4([H])C(=C(C([H])([H])[H])C([H])(c5c([H])oc([H])c5[H])C4([H])[H])C32C([H])([H])[H])c1[H]

$$$$
63:0:0
     RDKit          3D

 63 69  0  0  1  0  0  0  0  0999 V2000
    2.2810   -1.9271    6.4563 C   0  0  0  0  0  0  0  0  0  0  0  0
    2.5785   -1.2100    5.1273 C   0  0  2  0  0  0  0  0  0  0  0  0
    1.2439   -0.9273    4.3840 C   0  0  0  0  0  0  0  0  0  0  0  0
    1.3247   -0.3465    2.9490 C   0  0  1  0  0  0  0  0  0  0  0  0
    1.0770    1.0455    3.0484 O   0  0  0  0  0  0  0  0  0  0  0  0
    2.6412   -0.5906    2.1265 C   0  0  1  0  0  0  0  0  0  0  0  0
    2.4449    0.0984    0.8950 O   0  0  0  0  0  0  0  0  0  0  0  0
    3.8350    0.0370    2.8197 C   0  0  0  0  0  0  0  0  0  0  0  0
    4.5648   -1.1977    3.2941 C   0  0  1  0  0  0  0  0  0  0  0  0
    5.7516   -0.7505    3.9086 O   0  0  0  0  0  0  0  0  0  0  0  0
    3.6033   -2.0162    4.2718 C   0  0  2  0  0  0  0  0  0  0  0  0
    2.9392   -2.8826    3.2224 C   0  0  2  0  0  0  0  0  0  0  0  0
    2.0206   -3.9685    3.2147 O   0  0  0  0  0  0  0  0  0  0  0  0
    3.3894   -4.3466    3.4389 C   0  0  1  0  0  0  0  0  0  0  0  0
    4.6365   -4.5022    2.5620 C   0  0  2  0  0  0  0  0  0  0  0  0
    5.3324   -3.2675    2.5776 O   0  0  0  0  0  0  0  0  0  0  0  0
    4.6838   -2.1255    2.0005 C   0  0  2  0  0  0  0  0  0  0  0  0
    5.5445   -1.8952    0.6668 C   0  0  2  0  0  0  0  0  0  0  0  0
    6.9996   -1.5910    1.0796 C   0  0  0  0  0  0  0  0  0  0  0  0
    5.1074   -0.6881   -0.1412 C   0  0  0  0  0  0  0  0  0  0  0  0
    4.6085   -0.6581   -1.3943 C   0  0  0  0  0  0  0  0  0  0  0  0
    4.3680   -1.8672   -2.1694 C   0  0  0  0  0  0  0  0  0  0  0  0
    3.9635   -1.7877   -3.3326 O   0  0  0  0  0  0  0  0  0  0  0  0
    4.6137   -3.2215   -1.5092 C   0  0  1  0  0  0  0  0  0  0  0  0
    5.0172   -4.2179   -2.6128 C   0  0  0  0  0  0  0  0  0  0  0  0
    5.6320   -3.1599   -0.3231 C   0  0  2  0  0  0  0  0  0  0  0  0
    5.8484   -4.5562    0.3361 C   0  0  0  0  0  0  0  0  0  0  0  0
    4.6813   -5.1553    1.1577 C   0  0  1  0  0  0  0  0  0  0  0  0
    4.9642   -6.5301    1.3240 O   0  0  0  0  0  0  0  0  0  0  0  0
    3.1298   -2.1067    1.9386 C   0  0  2  0  0  0  0  0  0  0  0  0
    2.3421   -2.7026    0.7925 C   0  0  0  0  0  0  0  0  0  0  0  0
    1.8252   -2.9032    6.2883 H   0  0  0  0  0  0  0  0  0  0  0  0
    1.5970   -1.3434    7.0707 H   0  0  0  0  0  0  0  0  0  0  0  0
    3.1886   -2.0774    7.0415 H   0  0  0  0  0  0  0  0  0  0  0  0
    3.0388   -0.2647    5.4184 H   0  0  0  0  0  0  0  0  0  0  0  0
    0.6874   -1.8620    4.3253 H   0  0  0  0  0  0  0  0  0  0  0  0
    0.6284   -0.2796    5.0097 H   0  0  0  0  0  0  0  0  0  0  0  0
    0.4722   -0.7382    2.3957 H   0  0  0  0  0  0  0  0  0  0  0  0
    1.0128    1.4025    2.1711 H   0  0  0  0  0  0  0  0  0  0  0  0
    1.7613   -0.3409    0.3808 H   0  0  0  0  0  0  0  0  0  0  0  0
    4.4630    0.5731    2.1329 H   0  0  0  0  0  0  0  0  0  0  0  0
    3.5947    0.7432    3.6109 H   0  0  0  0  0  0  0  0  0  0  0  0
    6.3357   -0.4669    3.2228 H   0  0  0  0  0  0  0  0  0  0  0  0
    4.2359   -2.6127    4.9285 H   0  0  0  0  0  0  0  0  0  0  0  0
    3.5580   -4.6887    4.4539 H   0  0  0  0  0  0  0  0  0  0  0  0
    5.3266   -5.1017    3.1626 H   0  0  0  0  0  0  0  0  0  0  0  0
    7.4182   -2.4316    1.6309 H   0  0  0  0  0  0  0  0  0  0  0  0
    7.0276   -0.7027    1.6974 H   0  0  0  0  0  0  0  0  0  0  0  0
    7.6437   -1.4205    0.2201 H   0  0  0  0  0  0  0  0  0  0  0  0
    5.2892    0.2676    0.3314 H   0  0  0  0  0  0  0  0  0  0  0  0
    4.3627    0.2573   -1.8887 H   0  0  0  0  0  0  0  0  0  0  0  0
    3.6633   -3.5823   -1.1389 H   0  0  0  0  0  0  0  0  0  0  0  0
    4.2789   -4.2382   -3.4129 H   0  0  0  0  0  0  0  0  0  0  0  0
    5.0159   -5.2381   -2.2372 H   0  0  0  0  0  0  0  0  0  0  0  0
    5.9913   -3.9773   -3.0597 H   0  0  0  0  0  0  0  0  0  0  0  0
    6.5668   -3.0072   -0.8682 H   0  0  0  0  0  0  0  0  0  0  0  0
    6.1128   -5.2784   -0.4271 H   0  0  0  0  0  0  0  0  0  0  0  0
    6.7492   -4.5381    0.9538 H   0  0  0  0  0  0  0  0  0  0  0  0
    3.7650   -5.1126    0.6003 H   0  0  0  0  0  0  0  0  0  0  0  0
    4.4080   -6.8780    2.0058 H   0  0  0  0  0  0  0  0  0  0  0  0
    2.2816   -3.7827    0.7261 H   0  0  0  0  0  0  0  0  0  0  0  0
    2.5267   -2.2433   -0.1738 H   0  0  0  0  0  0  0  0  0  0  0  0
    1.3444   -2.3800    1.0660 H   0  0  0  0  0  0  0  0  0  0  0  0
  1  2  1  0
  1 32  1  0
  1 33  1  0
  1 34  1  0
  2 11  1  0
  2  3  1  0
  2 35  1  1
  3  4  1  0
  3 36  1  0
  3 37  1  0
  4  5  1  0
  4  6  1  0
  4 38  1  6
  5 39  1  0
  6 30  1  0
  6  7  1  6
  6  8  1  0
  7 40  1  0
  8  9  1  0
  8 41  1  0
  8 42  1  0
  9 17  1  0
  9 10  1  1
  9 11  1  0
 10 43  1  0
 11 12  1  0
 11 44  1  1
 12 14  1  0
 12 30  1  0
 12 13  1  1
 13 14  1  0
 14 15  1  0
 14 45  1  1
 15 28  1  0
 15 16  1  0
 15 46  1  1
 17 16  1  1
 17 18  1  0
 17 30  1  0
 18 26  1  0
 18 19  1  1
 18 20  1  0
 19 47  1  0
 19 48  1  0
 19 49  1  0
 20 21  2  0
 20 50  1  0
 21 22  1  0
 21 51  1  0
 22 23  2  0
 22 24  1  0
 24 25  1  0
 24 26  1  0
 24 52  1  1
 25 53  1  0
 25 54  1  0
 25 55  1  0
 26 27  1  0
 26 56  1  6
 27 28  1  0
 27 57  1  0
 27 58  1  0
 28 29  1  0
 28 59  1  6
 29 60  1  0
 30 31  1  6
 31 61  1  0
 31 62  1  0
 31 63  1  0
M  END
>  <i_m_ct_stereo_status>  (226) 
1

>  <s_m_source_file>  (226) 
/var/tmp/pbs.5076255.sched01/tmprcd7yfff/907v12ihtf.sdf

>  <i_m_source_file_index>  (226) 
3

>  <i_lp_mmshare_version>  (226) 
48012

>  <i_f3d_flags>  (226) 
0

>  <s_epik_input>  (226) 
W0NIM11bQ0BASF0xW0NIMl1bQ0BASF0oW09IXSlbQ0BAXShbT0hdKShbQ0gyXTIpW0NAQF0zKFtDSDNdKVtDQF00KFtDQF0yKFtPSF0pW0NAQEhdMVtDQF0zNTYpW0NAQF03KFtDSDNdKVtDQEhdKFtDQEhdKFtDSDNdKUMoPU8pW0NIXT1bQ0hdNylbQ0gyXVtDQEBIXShbT0hdKVtDQEBIXShPNClbQ0BASF02TzU=

>  <s_epik_cmdline>  (226) 
J2VwaWtfcHl0aG9uJywgJy1waHQnLCAnMi4wJywgJy1waCcsICc3LjAnLCAnLXRuJywgJzgnLCAnLW1hJywgJzIwMCcsICctaW1hZScsICc8aW5maWxlLm1hZT4nLCAnLW9tYWUnLCAnPG91dGZpbGUubWFlPic=

>  <r_lp_tautomer_probability>  (226) 
1

>  <r_epik_Ionization_Penalty>  (226) 
3.72703e-07

>  <r_epik_Ionization_Penalty_Charging>  (226) 
0

>  <r_epik_Ionization_Penalty_Neutral>  (226) 
3.72703e-07

>  <r_epik_State_Penalty>  (226) 
-0

>  <r_epik_Charging_Adjusted_Penalty>  (226) 
0

>  <i_epik_Tot_Q>  (226) 
0

>  <i_epik_Tot_abs_Q>  (226) 
0

>  <s_lp_Force_Field>  (226) 
OPLS3e

>  <r_lp_Energy>  (226) 
133.382

>  <b_lp_Chiralities_Consistent>  (226) 
1

>  <s_lp_Variant>  (226) 
63:0-1

>  <s_i_glide_gridfile>  (226) 
pfpi4k_grid

>  <i_i_glide_lignum>  (226) 
3

>  <i_i_glide_rotatable_bonds>  (226) 
4

>  <r_i_docking_score>  (226) 
-2.65507

>  <r_i_glide_ligand_efficiency>  (226) 
-0.0856475

>  <r_i_glide_ligand_efficiency_sa>  (226) 
-0.269052

>  <r_i_glide_ligand_efficiency_ln>  (226) 
-0.598801

>  <r_i_glide_gscore>  (226) 
-2.65507

>  <r_i_glide_lipo>  (226) 
-0.367831

>  <r_i_glide_hbond>  (226) 
0

>  <r_i_glide_metal>  (226) 
-0

>  <r_i_glide_rewards>  (226) 
-0.460182

>  <r_i_glide_evdw>  (226) 
-13.7639

>  <r_i_glide_ecoul>  (226) 
-7.48535

>  <r_i_glide_erotb>  (226) 
0

>  <r_i_glide_esite>  (226) 
-0.0160627

>  <r_i_glide_emodel>  (226) 
-20.9737

>  <r_i_glide_energy>  (226) 
-21.2493

>  <r_i_glide_einternal>  (226) 
1.10685

>  <r_i_glide_intrahb_reward>  (226) 
-0

>  <i_i_glide_confnum>  (226) 
1

>  <i_i_glide_posenum>  (226) 
16

>  <r_i_glide_eff_state_penalty>  (226) 
0

>  <ligand_id>  (226) 
63

>  <original_smiles>  (226) 
CC1CC(O)C2(O)CC3(O)C1C14OC1C1OC3(C3(C)C=CC(=O)C(C)C3CC1O)C24C

>  <smiles>  (226) 
[H]OC1([H])C([H])([H])C2([H])C([H])(C([H])([H])[H])C(=O)C([H])=C([H])C2(C([H])([H])[H])C23OC1([H])C1([H])OC14C1([H])C([H])(C([H])([H])[H])C([H])([H])C([H])(O[H])C(O[H])(C([H])([H])C12O[H])C43C([H])([H])[H]

$$$$
63:0:1
     RDKit          3D

 63 69  0  0  1  0  0  0  0  0999 V2000
    2.8005   -2.7701    5.9972 C   0  0  0  0  0  0  0  0  0  0  0  0
    3.0038   -1.8756    4.7661 C   0  0  2  0  0  0  0  0  0  0  0  0
    1.6165   -1.4357    4.2272 C   0  0  0  0  0  0  0  0  0  0  0  0
    1.5857   -0.6449    2.8950 C   0  0  1  0  0  0  0  0  0  0  0  0
    1.4013    0.7200    3.2295 O   0  0  0  0  0  0  0  0  0  0  0  0
    2.7921   -0.8179    1.9136 C   0  0  1  0  0  0  0  0  0  0  0  0
    2.5279    0.0899    0.8754 O   0  0  0  0  0  0  0  0  0  0  0  0
    4.0631   -0.3286    2.5471 C   0  0  0  0  0  0  0  0  0  0  0  0
    4.7325   -1.6536    2.7467 C   0  0  1  0  0  0  0  0  0  0  0  0
    5.8954   -1.2236    3.2839 O   0  0  0  0  0  0  0  0  0  0  0  0
    3.8755   -2.5762    3.6912 C   0  0  2  0  0  0  0  0  0  0  0  0
    3.0764   -3.2732    2.6058 C   0  0  2  0  0  0  0  0  0  0  0  0
    2.1074   -4.2990    2.5634 O   0  0  0  0  0  0  0  0  0  0  0  0
    3.4730   -4.7650    2.5822 C   0  0  1  0  0  0  0  0  0  0  0  0
    4.6324   -4.8246    1.5805 C   0  0  2  0  0  0  0  0  0  0  0  0
    5.3816   -3.6301    1.7204 O   0  0  0  0  0  0  0  0  0  0  0  0
    4.7276   -2.4001    1.3478 C   0  0  2  0  0  0  0  0  0  0  0  0
    5.5059   -2.0112   -0.0016 C   0  0  2  0  0  0  0  0  0  0  0  0
    7.0197   -1.8205    0.3150 C   0  0  0  0  0  0  0  0  0  0  0  0
    5.0579   -0.6956   -0.5954 C   0  0  0  0  0  0  0  0  0  0  0  0
    4.4657   -0.4714   -1.7857 C   0  0  0  0  0  0  0  0  0  0  0  0
    4.0814   -1.5168   -2.7026 C   0  0  0  0  0  0  0  0  0  0  0  0
    3.5720   -1.2589   -3.7917 O   0  0  0  0  0  0  0  0  0  0  0  0
    4.3083   -2.9661   -2.2687 C   0  0  1  0  0  0  0  0  0  0  0  0
    4.5422   -3.7927   -3.5645 C   0  0  0  0  0  0  0  0  0  0  0  0
    5.4240   -3.0903   -1.1674 C   0  0  2  0  0  0  0  0  0  0  0  0
    5.6006   -4.5470   -0.7232 C   0  0  0  0  0  0  0  0  0  0  0  0
    4.4868   -5.2193    0.1038 C   0  0  1  0  0  0  0  0  0  0  0  0
    4.6525   -6.6163    0.0441 O   0  0  0  0  0  0  0  0  0  0  0  0
    3.1810   -2.3095    1.4403 C   0  0  2  0  0  0  0  0  0  0  0  0
    2.2121   -2.7301    0.3337 C   0  0  0  0  0  0  0  0  0  0  0  0
    2.2776   -3.6901    5.7363 H   0  0  0  0  0  0  0  0  0  0  0  0
    2.2096   -2.2583    6.7571 H   0  0  0  0  0  0  0  0  0  0  0  0
    3.7494   -3.0405    6.4581 H   0  0  0  0  0  0  0  0  0  0  0  0
    3.5430   -1.0057    5.1391 H   0  0  0  0  0  0  0  0  0  0  0  0
    1.0091   -2.3335    4.0780 H   0  0  0  0  0  0  0  0  0  0  0  0
    1.1014   -0.8573    5.0023 H   0  0  0  0  0  0  0  0  0  0  0  0
    0.6734   -0.9317    2.3763 H   0  0  0  0  0  0  0  0  0  0  0  0
    1.2130    1.1809    2.4214 H   0  0  0  0  0  0  0  0  0  0  0  0
    1.8369   -0.2863    0.3634 H   0  0  0  0  0  0  0  0  0  0  0  0
    4.6491    0.3160    1.8975 H   0  0  0  0  0  0  0  0  0  0  0  0
    3.9614    0.2497    3.4726 H   0  0  0  0  0  0  0  0  0  0  0  0
    6.3697   -0.7936    2.6116 H   0  0  0  0  0  0  0  0  0  0  0  0
    4.5627   -3.2682    4.1699 H   0  0  0  0  0  0  0  0  0  0  0  0
    3.7323   -5.2557    3.5230 H   0  0  0  0  0  0  0  0  0  0  0  0
    5.3447   -5.5441    2.0005 H   0  0  0  0  0  0  0  0  0  0  0  0
    7.4790   -2.7186    0.7290 H   0  0  0  0  0  0  0  0  0  0  0  0
    7.1827   -1.0075    1.0213 H   0  0  0  0  0  0  0  0  0  0  0  0
    7.5944   -1.5639   -0.5737 H   0  0  0  0  0  0  0  0  0  0  0  0
    5.3303    0.1438    0.0194 H   0  0  0  0  0  0  0  0  0  0  0  0
    4.2296    0.5414   -2.1000 H   0  0  0  0  0  0  0  0  0  0  0  0
    3.3678   -3.3328   -1.8714 H   0  0  0  0  0  0  0  0  0  0  0  0
    3.7140   -3.6469   -4.2683 H   0  0  0  0  0  0  0  0  0  0  0  0
    4.6074   -4.8624   -3.3866 H   0  0  0  0  0  0  0  0  0  0  0  0
    5.4750   -3.5171   -4.0522 H   0  0  0  0  0  0  0  0  0  0  0  0
    6.3138   -2.9120   -1.7698 H   0  0  0  0  0  0  0  0  0  0  0  0
    5.6433   -5.0502   -1.6636 H   0  0  0  0  0  0  0  0  0  0  0  0
    6.5677   -4.6827   -0.2268 H   0  0  0  0  0  0  0  0  0  0  0  0
    3.5301   -5.0761   -0.3629 H   0  0  0  0  0  0  0  0  0  0  0  0
    4.6882   -6.8645   -0.8700 H   0  0  0  0  0  0  0  0  0  0  0  0
    2.1380   -3.8075    0.1189 H   0  0  0  0  0  0  0  0  0  0  0  0
    2.5112   -2.1960   -0.5657 H   0  0  0  0  0  0  0  0  0  0  0  0
    1.2939   -2.3308    0.7604 H   0  0  0  0  0  0  0  0  0  0  0  0
  1  2  1  0
  1 32  1  0
  1 33  1  0
  1 34  1  0
  2 11  1  0
  2  3  1  0
  2 35  1  1
  3  4  1  0
  3 36  1  0
  3 37  1  0
  4  5  1  0
  4  6  1  0
  4 38  1  6
  5 39  1  0
  6 30  1  0
  6  7  1  6
  6  8  1  0
  7 40  1  0
  8  9  1  0
  8 41  1  0
  8 42  1  0
  9 17  1  0
  9 10  1  1
  9 11  1  0
 10 43  1  0
 11 12  1  0
 11 44  1  1
 12 14  1  0
 12 30  1  0
 12 13  1  1
 13 14  1  0
 14 15  1  0
 14 45  1  1
 15 28  1  0
 15 16  1  0
 15 46  1  1
 17 16  1  1
 17 18  1  0
 17 30  1  0
 18 26  1  0
 18 19  1  1
 18 20  1  0
 19 47  1  0
 19 48  1  0
 19 49  1  0
 20 21  2  0
 20 50  1  0
 21 22  1  0
 21 51  1  0
 22 23  2  0
 22 24  1  0
 24 25  1  0
 24 26  1  0
 24 52  1  1
 25 53  1  0
 25 54  1  0
 25 55  1  0
 26 27  1  0
 26 56  1  6
 27 28  1  0
 27 57  1  0
 27 58  1  0
 28 29  1  0
 28 59  1  6
 29 60  1  0
 30 31  1  6
 31 61  1  0
 31 62  1  0
 31 63  1  0
M  END
>  <i_m_ct_stereo_status>  (227) 
1

>  <s_m_source_file>  (227) 
/var/tmp/pbs.5076255.sched01/tmprcd7yfff/907v12ihtf.sdf

>  <i_m_source_file_index>  (227) 
3

>  <i_lp_mmshare_version>  (227) 
48012

>  <i_f3d_flags>  (227) 
0

>  <s_epik_input>  (227) 
W0NIM11bQ0BASF0xW0NIMl1bQ0BASF0oW09IXSlbQ0BAXShbT0hdKShbQ0gyXTIpW0NAQF0zKFtDSDNdKVtDQF00KFtDQF0yKFtPSF0pW0NAQEhdMVtDQF0zNTYpW0NAQF03KFtDSDNdKVtDQEhdKFtDQEhdKFtDSDNdKUMoPU8pW0NIXT1bQ0hdNylbQ0gyXVtDQEBIXShbT0hdKVtDQEBIXShPNClbQ0BASF02TzU=

>  <s_epik_cmdline>  (227) 
J2VwaWtfcHl0aG9uJywgJy1waHQnLCAnMi4wJywgJy1waCcsICc3LjAnLCAnLXRuJywgJzgnLCAnLW1hJywgJzIwMCcsICctaW1hZScsICc8aW5maWxlLm1hZT4nLCAnLW9tYWUnLCAnPG91dGZpbGUubWFlPic=

>  <r_lp_tautomer_probability>  (227) 
1

>  <r_epik_Ionization_Penalty>  (227) 
3.72703e-07

>  <r_epik_Ionization_Penalty_Charging>  (227) 
0

>  <r_epik_Ionization_Penalty_Neutral>  (227) 
3.72703e-07

>  <r_epik_State_Penalty>  (227) 
-0

>  <r_epik_Charging_Adjusted_Penalty>  (227) 
0

>  <i_epik_Tot_Q>  (227) 
0

>  <i_epik_Tot_abs_Q>  (227) 
0

>  <s_lp_Force_Field>  (227) 
OPLS3e

>  <r_lp_Energy>  (227) 
133.382

>  <b_lp_Chiralities_Consistent>  (227) 
1

>  <s_lp_Variant>  (227) 
63:0-1

>  <s_i_glide_gridfile>  (227) 
pfpi4k_grid

>  <i_i_glide_lignum>  (227) 
3

>  <i_i_glide_rotatable_bonds>  (227) 
4

>  <r_i_docking_score>  (227) 
-2.18921

>  <r_i_glide_ligand_efficiency>  (227) 
-0.0706198

>  <r_i_glide_ligand_efficiency_sa>  (227) 
-0.221844

>  <r_i_glide_ligand_efficiency_ln>  (227) 
-0.493735

>  <r_i_glide_gscore>  (227) 
-2.18921

>  <r_i_glide_lipo>  (227) 
-0.257214

>  <r_i_glide_hbond>  (227) 
0

>  <r_i_glide_metal>  (227) 
-0

>  <r_i_glide_rewards>  (227) 
-0.460182

>  <r_i_glide_evdw>  (227) 
-5.16954

>  <r_i_glide_ecoul>  (227) 
-7.93845

>  <r_i_glide_erotb>  (227) 
0

>  <r_i_glide_esite>  (227) 
-0.0225743

>  <r_i_glide_emodel>  (227) 
-10.6179

>  <r_i_glide_energy>  (227) 
-13.108

>  <r_i_glide_einternal>  (227) 
1.00421

>  <r_i_glide_intrahb_reward>  (227) 
-0

>  <i_i_glide_confnum>  (227) 
1

>  <i_i_glide_posenum>  (227) 
1

>  <r_i_glide_eff_state_penalty>  (227) 
0

>  <ligand_id>  (227) 
63

>  <original_smiles>  (227) 
CC1CC(O)C2(O)CC3(O)C1C14OC1C1OC3(C3(C)C=CC(=O)C(C)C3CC1O)C24C

>  <smiles>  (227) 
[H]OC1([H])C([H])([H])C2([H])C([H])(C([H])([H])[H])C(=O)C([H])=C([H])C2(C([H])([H])[H])C23OC1([H])C1([H])OC14C1([H])C([H])(C([H])([H])[H])C([H])([H])C([H])(O[H])C(O[H])(C([H])([H])C12O[H])C43C([H])([H])[H]

$$$$
63:0:2
     RDKit          3D

 63 69  0  0  1  0  0  0  0  0999 V2000
    5.0069   -0.9695   -1.8740 C   0  0  0  0  0  0  0  0  0  0  0  0
    5.6514   -1.6460   -0.6598 C   0  0  2  0  0  0  0  0  0  0  0  0
    6.8310   -2.5514   -1.1496 C   0  0  0  0  0  0  0  0  0  0  0  0
    7.5170   -3.4430   -0.0885 C   0  0  1  0  0  0  0  0  0  0  0  0
    8.7022   -2.7639    0.3169 O   0  0  0  0  0  0  0  0  0  0  0  0
    6.6512   -3.8468    1.1742 C   0  0  1  0  0  0  0  0  0  0  0  0
    7.4829   -4.7001    1.9300 O   0  0  0  0  0  0  0  0  0  0  0  0
    6.1855   -2.6105    1.9714 C   0  0  0  0  0  0  0  0  0  0  0  0
    4.7288   -2.5844    1.6936 C   0  0  1  0  0  0  0  0  0  0  0  0
    4.1012   -1.5448    2.4148 O   0  0  0  0  0  0  0  0  0  0  0  0
    4.5590   -2.4006    0.1422 C   0  0  2  0  0  0  0  0  0  0  0  0
    4.5705   -3.8499   -0.1937 C   0  0  2  0  0  0  0  0  0  0  0  0
    4.4913   -4.5096   -1.4140 O   0  0  0  0  0  0  0  0  0  0  0  0
    3.1952   -4.2570   -0.7326 C   0  0  1  0  0  0  0  0  0  0  0  0
    2.4669   -4.7381    0.5391 C   0  0  2  0  0  0  0  0  0  0  0  0
    2.8670   -3.9541    1.6319 O   0  0  0  0  0  0  0  0  0  0  0  0
    4.2479   -4.0785    2.0031 C   0  0  2  0  0  0  0  0  0  0  0  0
    4.1498   -4.8271    3.4172 C   0  0  2  0  0  0  0  0  0  0  0  0
    3.3867   -3.9001    4.3912 C   0  0  0  0  0  0  0  0  0  0  0  0
    5.4976   -5.0565    4.0924 C   0  0  0  0  0  0  0  0  0  0  0  0
    6.0912   -6.2350    4.3673 C   0  0  0  0  0  0  0  0  0  0  0  0
    5.4833   -7.5156    3.9986 C   0  0  0  0  0  0  0  0  0  0  0  0
    6.0304   -8.5825    4.2900 O   0  0  0  0  0  0  0  0  0  0  0  0
    4.1673   -7.5318    3.2015 C   0  0  1  0  0  0  0  0  0  0  0  0
    3.3780   -8.8283    3.5271 C   0  0  0  0  0  0  0  0  0  0  0  0
    3.3432   -6.2108    3.3830 C   0  0  2  0  0  0  0  0  0  0  0  0
    2.0236   -6.2444    2.5509 C   0  0  0  0  0  0  0  0  0  0  0  0
    2.1646   -6.1836    0.9988 C   0  0  1  0  0  0  0  0  0  0  0  0
    0.9028   -6.5614    0.4838 O   0  0  0  0  0  0  0  0  0  0  0  0
    5.2715   -4.5686    0.9096 C   0  0  2  0  0  0  0  0  0  0  0  0
    5.5539   -6.0526    0.5718 C   0  0  0  0  0  0  0  0  0  0  0  0
    4.6228   -1.6813   -2.6054 H   0  0  0  0  0  0  0  0  0  0  0  0
    5.7597   -0.3484   -2.3369 H   0  0  0  0  0  0  0  0  0  0  0  0
    4.2012   -0.2932   -1.5910 H   0  0  0  0  0  0  0  0  0  0  0  0
    6.0345   -0.8195   -0.0595 H   0  0  0  0  0  0  0  0  0  0  0  0
    6.4678   -3.2037   -1.9493 H   0  0  0  0  0  0  0  0  0  0  0  0
    7.6037   -1.9660   -1.6417 H   0  0  0  0  0  0  0  0  0  0  0  0
    7.8768   -4.3302   -0.6062 H   0  0  0  0  0  0  0  0  0  0  0  0
    9.2783   -2.6434   -0.4273 H   0  0  0  0  0  0  0  0  0  0  0  0
    7.6485   -5.4770    1.4203 H   0  0  0  0  0  0  0  0  0  0  0  0
    6.1595   -2.7269    3.0463 H   0  0  0  0  0  0  0  0  0  0  0  0
    6.7287   -1.6887    1.7231 H   0  0  0  0  0  0  0  0  0  0  0  0
    3.2030   -1.5214    2.1205 H   0  0  0  0  0  0  0  0  0  0  0  0
    3.5739   -1.9495   -0.0531 H   0  0  0  0  0  0  0  0  0  0  0  0
    2.6178   -3.5342   -1.2669 H   0  0  0  0  0  0  0  0  0  0  0  0
    1.4638   -4.3604    0.3628 H   0  0  0  0  0  0  0  0  0  0  0  0
    2.3876   -3.6538    4.0376 H   0  0  0  0  0  0  0  0  0  0  0  0
    3.9267   -2.9721    4.5404 H   0  0  0  0  0  0  0  0  0  0  0  0
    3.2822   -4.3580    5.3764 H   0  0  0  0  0  0  0  0  0  0  0  0
    5.9993   -4.1626    4.4355 H   0  0  0  0  0  0  0  0  0  0  0  0
    7.0499   -6.2580    4.8717 H   0  0  0  0  0  0  0  0  0  0  0  0
    4.4417   -7.6443    2.1613 H   0  0  0  0  0  0  0  0  0  0  0  0
    4.0040   -9.7177    3.4258 H   0  0  0  0  0  0  0  0  0  0  0  0
    2.5467   -9.0012    2.8426 H   0  0  0  0  0  0  0  0  0  0  0  0
    2.9878   -8.8266    4.5444 H   0  0  0  0  0  0  0  0  0  0  0  0
    2.9739   -6.3359    4.4039 H   0  0  0  0  0  0  0  0  0  0  0  0
    1.4725   -7.1470    2.8052 H   0  0  0  0  0  0  0  0  0  0  0  0
    1.3600   -5.4544    2.8875 H   0  0  0  0  0  0  0  0  0  0  0  0
    2.8689   -6.9180    0.6516 H   0  0  0  0  0  0  0  0  0  0  0  0
    0.8171   -7.5033    0.5419 H   0  0  0  0  0  0  0  0  0  0  0  0
    4.7380   -6.6231    0.1571 H   0  0  0  0  0  0  0  0  0  0  0  0
    5.9996   -6.5991    1.3972 H   0  0  0  0  0  0  0  0  0  0  0  0
    6.3021   -6.0766   -0.2201 H   0  0  0  0  0  0  0  0  0  0  0  0
  1  2  1  0
  1 32  1  0
  1 33  1  0
  1 34  1  0
  2 11  1  0
  2  3  1  0
  2 35  1  1
  3  4  1  0
  3 36  1  0
  3 37  1  0
  4  5  1  0
  4  6  1  0
  4 38  1  6
  5 39  1  0
  6 30  1  0
  6  7  1  1
  6  8  1  0
  7 40  1  0
  8  9  1  0
  8 41  1  0
  8 42  1  0
  9 17  1  0
  9 10  1  1
  9 11  1  0
 10 43  1  0
 11 12  1  0
 11 44  1  1
 12 14  1  0
 12 30  1  0
 12 13  1  6
 13 14  1  0
 14 15  1  0
 14 45  1  6
 15 28  1  0
 15 16  1  0
 15 46  1  6
 17 16  1  6
 17 18  1  0
 17 30  1  0
 18 26  1  0
 18 19  1  1
 18 20  1  0
 19 47  1  0
 19 48  1  0
 19 49  1  0
 20 21  2  0
 20 50  1  0
 21 22  1  0
 21 51  1  0
 22 23  2  0
 22 24  1  0
 24 25  1  0
 24 26  1  0
 24 52  1  6
 25 53  1  0
 25 54  1  0
 25 55  1  0
 26 27  1  0
 26 56  1  1
 27 28  1  0
 27 57  1  0
 27 58  1  0
 28 29  1  0
 28 59  1  6
 29 60  1  0
 30 31  1  6
 31 61  1  0
 31 62  1  0
 31 63  1  0
M  END
>  <i_m_ct_stereo_status>  (228) 
1

>  <s_m_source_file>  (228) 
/var/tmp/pbs.5076255.sched01/tmprcd7yfff/907v12ihtf.sdf

>  <i_m_source_file_index>  (228) 
3

>  <i_lp_mmshare_version>  (228) 
48012

>  <i_f3d_flags>  (228) 
0

>  <s_epik_input>  (228) 
W0NIM11bQ0BASF0xW0NIMl1bQ0BASF0oW09IXSlbQ0BAXShbT0hdKShbQ0gyXTIpW0NAQF0zKFtDSDNdKVtDQF00KFtDQF0yKFtPSF0pW0NAQEhdMVtDQF0zNTYpW0NAQF03KFtDSDNdKVtDQEhdKFtDQEhdKFtDSDNdKUMoPU8pW0NIXT1bQ0hdNylbQ0gyXVtDQEBIXShbT0hdKVtDQEBIXShPNClbQ0BASF02TzU=

>  <s_epik_cmdline>  (228) 
J2VwaWtfcHl0aG9uJywgJy1waHQnLCAnMi4wJywgJy1waCcsICc3LjAnLCAnLXRuJywgJzgnLCAnLW1hJywgJzIwMCcsICctaW1hZScsICc8aW5maWxlLm1hZT4nLCAnLW9tYWUnLCAnPG91dGZpbGUubWFlPic=

>  <r_lp_tautomer_probability>  (228) 
1

>  <r_epik_Ionization_Penalty>  (228) 
3.72703e-07

>  <r_epik_Ionization_Penalty_Charging>  (228) 
0

>  <r_epik_Ionization_Penalty_Neutral>  (228) 
3.72703e-07

>  <r_epik_State_Penalty>  (228) 
-0

>  <r_epik_Charging_Adjusted_Penalty>  (228) 
0

>  <i_epik_Tot_Q>  (228) 
0

>  <i_epik_Tot_abs_Q>  (228) 
0

>  <s_lp_Force_Field>  (228) 
OPLS3e

>  <r_lp_Energy>  (228) 
133.382

>  <b_lp_Chiralities_Consistent>  (228) 
1

>  <s_lp_Variant>  (228) 
63:0-1

>  <s_i_glide_gridfile>  (228) 
pfpi4k_grid

>  <i_i_glide_lignum>  (228) 
3

>  <i_i_glide_rotatable_bonds>  (228) 
4

>  <r_i_docking_score>  (228) 
-2.18472

>  <r_i_glide_ligand_efficiency>  (228) 
-0.0704747

>  <r_i_glide_ligand_efficiency_sa>  (228) 
-0.221388

>  <r_i_glide_ligand_efficiency_ln>  (228) 
-0.49272

>  <r_i_glide_gscore>  (228) 
-2.18472

>  <r_i_glide_lipo>  (228) 
-0.525654

>  <r_i_glide_hbond>  (228) 
0

>  <r_i_glide_metal>  (228) 
-0

>  <r_i_glide_rewards>  (228) 
-0.460182

>  <r_i_glide_evdw>  (228) 
-13.8665

>  <r_i_glide_ecoul>  (228) 
-3.37037

>  <r_i_glide_erotb>  (228) 
0

>  <r_i_glide_esite>  (228) 
0

>  <r_i_glide_emodel>  (228) 
-16.4443

>  <r_i_glide_energy>  (228) 
-17.2369

>  <r_i_glide_einternal>  (228) 
1.10989

>  <r_i_glide_intrahb_reward>  (228) 
-0

>  <i_i_glide_confnum>  (228) 
2

>  <i_i_glide_posenum>  (228) 
33

>  <r_i_glide_eff_state_penalty>  (228) 
0

>  <ligand_id>  (228) 
63

>  <original_smiles>  (228) 
CC1CC(O)C2(O)CC3(O)C1C14OC1C1OC3(C3(C)C=CC(=O)C(C)C3CC1O)C24C

>  <smiles>  (228) 
[H]OC1([H])C([H])([H])C2([H])C([H])(C([H])([H])[H])C(=O)C([H])=C([H])C2(C([H])([H])[H])C23OC1([H])C1([H])OC14C1([H])C([H])(C([H])([H])[H])C([H])([H])C([H])(O[H])C(O[H])(C([H])([H])C12O[H])C43C([H])([H])[H]

$$$$
64:0:0
     RDKit          3D

 69 73  0  0  1  0  0  0  0  0999 V2000
    3.4203   -2.2073   -0.7564 C   0  0  0  0  0  0  0  0  0  0  0  0
    4.4895   -3.2430   -0.3348 C   0  0  0  0  0  0  0  0  0  0  0  0
    5.0750   -3.8532   -1.6245 C   0  0  0  0  0  0  0  0  0  0  0  0
    5.5716   -2.4053    0.3676 C   0  0  0  0  0  0  0  0  0  0  0  0
    6.6251   -3.2624    1.0435 C   0  0  0  0  0  0  0  0  0  0  0  0
    6.0070   -4.2111    2.0765 C   0  0  0  0  0  0  0  0  0  0  0  0
    4.9254   -5.1858    1.5133 C   0  0  1  0  0  0  0  0  0  0  0  0
    5.6506   -6.2504    0.6543 C   0  0  0  0  0  0  0  0  0  0  0  0
    4.1646   -6.0043    2.6163 C   0  0  0  0  0  0  0  0  0  0  0  0
    2.8131   -6.1853    2.6115 C   0  0  0  0  0  0  0  0  0  0  0  0
    1.9429   -5.5936    1.5082 C   0  0  0  0  0  0  0  0  0  0  0  0
    2.7299   -5.1975    0.2571 C   0  0  1  0  0  0  0  0  0  0  0  0
    1.8190   -4.6564   -0.6685 O   0  0  0  0  0  0  0  0  0  0  0  0
    3.9026   -4.2936    0.6982 C   0  0  2  0  0  0  0  0  0  0  0  0
    1.9982   -6.8788    3.7338 C   0  0  1  0  0  0  0  0  0  0  0  0
    0.9617   -7.9889    3.3086 C   0  0  2  0  0  0  0  0  0  0  0  0
   -0.1564   -7.9446    4.3902 C   0  0  1  0  0  0  0  0  0  0  0  0
   -1.3860   -8.5190    3.9722 O   0  0  0  0  0  0  0  0  0  0  0  0
    0.5438   -8.6052    5.6028 C   0  0  1  0  0  0  0  0  0  0  0  0
   -0.1815   -9.6403    6.2457 O   0  0  0  0  0  0  0  0  0  0  0  0
    1.9860   -8.9359    5.0468 C   0  0  1  0  0  0  0  0  0  0  0  0
    2.6720  -10.0542    5.8712 C   0  0  0  0  0  0  0  0  0  0  0  0
    1.6809   -9.3317    3.5624 C   0  0  0  0  0  0  0  0  0  0  0  0
    0.8126  -10.6088    3.3655 C   0  0  0  0  0  0  0  0  0  0  0  0
    2.8790   -9.5875    2.6018 C   0  0  0  0  0  0  0  0  0  0  0  0
    2.7772   -7.5478    4.9175 C   0  0  2  0  0  0  0  0  0  0  0  0
    2.7358   -6.6663    6.1980 C   0  0  0  0  0  0  0  0  0  0  0  0
    4.2891   -7.6896    4.6104 C   0  0  0  0  0  0  0  0  0  0  0  0
    4.9907   -8.5359    5.1555 O   0  0  0  0  0  0  0  0  0  0  0  0
    4.9582   -6.6286    3.7207 C   0  0  0  0  0  0  0  0  0  0  0  0
    6.1432   -6.3885    3.9582 O   0  0  0  0  0  0  0  0  0  0  0  0
    3.8786   -1.2928   -1.1393 H   0  0  0  0  0  0  0  0  0  0  0  0
    2.8011   -1.9180    0.0938 H   0  0  0  0  0  0  0  0  0  0  0  0
    2.7628   -2.5701   -1.5440 H   0  0  0  0  0  0  0  0  0  0  0  0
    6.0992   -4.1837   -1.5068 H   0  0  0  0  0  0  0  0  0  0  0  0
    5.0707   -3.1465   -2.4570 H   0  0  0  0  0  0  0  0  0  0  0  0
    4.5107   -4.7192   -1.9241 H   0  0  0  0  0  0  0  0  0  0  0  0
    6.0554   -1.7348   -0.3407 H   0  0  0  0  0  0  0  0  0  0  0  0
    5.1108   -1.7690    1.1252 H   0  0  0  0  0  0  0  0  0  0  0  0
    7.2285   -3.8096    0.3215 H   0  0  0  0  0  0  0  0  0  0  0  0
    7.3200   -2.5976    1.5419 H   0  0  0  0  0  0  0  0  0  0  0  0
    6.8628   -4.7522    2.4713 H   0  0  0  0  0  0  0  0  0  0  0  0
    5.5868   -3.6281    2.8980 H   0  0  0  0  0  0  0  0  0  0  0  0
    6.2146   -5.8224   -0.1644 H   0  0  0  0  0  0  0  0  0  0  0  0
    4.9728   -6.9908    0.2317 H   0  0  0  0  0  0  0  0  0  0  0  0
    6.3752   -6.8098    1.2465 H   0  0  0  0  0  0  0  0  0  0  0  0
    1.1677   -6.2862    1.1998 H   0  0  0  0  0  0  0  0  0  0  0  0
    1.4488   -4.7213    1.9382 H   0  0  0  0  0  0  0  0  0  0  0  0
    3.1026   -6.1002   -0.2192 H   0  0  0  0  0  0  0  0  0  0  0  0
    2.1839   -4.8146   -1.5326 H   0  0  0  0  0  0  0  0  0  0  0  0
    3.4699   -3.6341    1.4542 H   0  0  0  0  0  0  0  0  0  0  0  0
    1.4434   -6.0299    4.1342 H   0  0  0  0  0  0  0  0  0  0  0  0
    0.5535   -7.9062    2.3036 H   0  0  0  0  0  0  0  0  0  0  0  0
   -0.4210   -6.9171    4.6320 H   0  0  0  0  0  0  0  0  0  0  0  0
   -1.4611   -9.4119    4.2851 H   0  0  0  0  0  0  0  0  0  0  0  0
    0.5950   -7.9026    6.4247 H   0  0  0  0  0  0  0  0  0  0  0  0
   -0.6811  -10.1831    5.6328 H   0  0  0  0  0  0  0  0  0  0  0  0
    3.5509  -10.4673    5.3813 H   0  0  0  0  0  0  0  0  0  0  0  0
    2.0131  -10.9086    6.0122 H   0  0  0  0  0  0  0  0  0  0  0  0
    2.9653   -9.7047    6.8603 H   0  0  0  0  0  0  0  0  0  0  0  0
    1.3998  -11.5086    3.5566 H   0  0  0  0  0  0  0  0  0  0  0  0
    0.4588  -10.6729    2.3362 H   0  0  0  0  0  0  0  0  0  0  0  0
   -0.0679  -10.6919    3.9901 H   0  0  0  0  0  0  0  0  0  0  0  0
    3.5570  -10.3396    3.0099 H   0  0  0  0  0  0  0  0  0  0  0  0
    3.4674   -8.7153    2.3467 H   0  0  0  0  0  0  0  0  0  0  0  0
    2.5316   -9.9625    1.6385 H   0  0  0  0  0  0  0  0  0  0  0  0
    1.7748   -6.1783    6.3574 H   0  0  0  0  0  0  0  0  0  0  0  0
    3.4637   -5.8529    6.1697 H   0  0  0  0  0  0  0  0  0  0  0  0
    2.9561   -7.2534    7.0916 H   0  0  0  0  0  0  0  0  0  0  0  0
  1  2  1  0
  1 32  1  0
  1 33  1  0
  1 34  1  0
  2 14  1  0
  2  3  1  0
  2  4  1  0
  3 35  1  0
  3 36  1  0
  3 37  1  0
  4  5  1  0
  4 38  1  0
  4 39  1  0
  5  6  1  0
  5 40  1  0
  5 41  1  0
  6  7  1  0
  6 42  1  0
  6 43  1  0
  7 14  1  0
  7  8  1  6
  7  9  1  0
  8 44  1  0
  8 45  1  0
  8 46  1  0
  9 30  1  0
  9 10  2  0
 10 11  1  0
 10 15  1  0
 11 12  1  0
 11 47  1  0
 11 48  1  0
 12 13  1  0
 12 14  1  0
 12 49  1  6
 13 50  1  0
 14 51  1  1
 15 26  1  0
 15 16  1  0
 15 52  1  1
 16 23  1  0
 16 17  1  0
 16 53  1  6
 17 18  1  0
 17 19  1  0
 17 54  1  1
 18 55  1  0
 19 20  1  0
 19 21  1  0
 19 56  1  1
 20 57  1  0
 21 22  1  1
 21 23  1  0
 21 26  1  0
 22 58  1  0
 22 59  1  0
 22 60  1  0
 23 24  1  0
 23 25  1  0
 24 61  1  0
 24 62  1  0
 24 63  1  0
 25 64  1  0
 25 65  1  0
 25 66  1  0
 26 27  1  1
 26 28  1  0
 27 67  1  0
 27 68  1  0
 27 69  1  0
 28 29  2  0
 28 30  1  0
 30 31  2  0
M  END
>  <i_m_ct_stereo_status>  (229) 
1

>  <s_m_source_file>  (229) 
/var/tmp/pbs.5076255.sched01/tmprcd7yfff/907v12ihtf.sdf

>  <i_m_source_file_index>  (229) 
4

>  <i_lp_mmshare_version>  (229) 
48012

>  <i_f3d_flags>  (229) 
0

>  <s_epik_input>  (229) 
W0NIMl0xW0NIMl1bQ0gyXUMoW0NIM10pKFtDSDNdKVtDQEhdMltDQEhdKFtPSF0pW0NIMl1DKD1DM1tDQF0xMltDSDNdKVtDQEhdNFtDQEBIXTVbQ0BASF0oW09IXSlbQ0BASF0oW09IXSlbQ0BAXShbQ0gzXSkoQzUoW0NIM10pW0NIM10pW0NAQF00KFtDSDNdKUMoPU8pQzM9Tw==

>  <s_epik_cmdline>  (229) 
J2VwaWtfcHl0aG9uJywgJy1waHQnLCAnMi4wJywgJy1waCcsICc3LjAnLCAnLXRuJywgJzgnLCAnLW1hJywgJzIwMCcsICctaW1hZScsICc8aW5maWxlLm1hZT4nLCAnLW9tYWUnLCAnPG91dGZpbGUubWFlPic=

>  <r_lp_tautomer_probability>  (229) 
1

>  <r_epik_Ionization_Penalty>  (229) 
1.56087e-07

>  <r_epik_Ionization_Penalty_Charging>  (229) 
0

>  <r_epik_Ionization_Penalty_Neutral>  (229) 
1.56087e-07

>  <r_epik_State_Penalty>  (229) 
-0

>  <r_epik_Charging_Adjusted_Penalty>  (229) 
0

>  <i_epik_Tot_Q>  (229) 
0

>  <i_epik_Tot_abs_Q>  (229) 
0

>  <s_lp_Force_Field>  (229) 
OPLS3e

>  <r_lp_Energy>  (229) 
106.26

>  <b_lp_Chiralities_Consistent>  (229) 
1

>  <s_lp_Variant>  (229) 
64:0-1

>  <s_i_glide_gridfile>  (229) 
pfpi4k_grid

>  <i_i_glide_lignum>  (229) 
4

>  <i_i_glide_rotatable_bonds>  (229) 
3

>  <r_i_docking_score>  (229) 
-3.87039

>  <r_i_glide_ligand_efficiency>  (229) 
-0.124851

>  <r_i_glide_ligand_efficiency_sa>  (229) 
-0.392206

>  <r_i_glide_ligand_efficiency_ln>  (229) 
-0.872892

>  <r_i_glide_gscore>  (229) 
-3.87039

>  <r_i_glide_lipo>  (229) 
-0.407584

>  <r_i_glide_hbond>  (229) 
-0.257849

>  <r_i_glide_metal>  (229) 
-0

>  <r_i_glide_rewards>  (229) 
-0.473339

>  <r_i_glide_evdw>  (229) 
-24.6041

>  <r_i_glide_ecoul>  (229) 
-10.0094

>  <r_i_glide_erotb>  (229) 
0

>  <r_i_glide_esite>  (229) 
0

>  <r_i_glide_emodel>  (229) 
-41.3428

>  <r_i_glide_energy>  (229) 
-34.6135

>  <r_i_glide_einternal>  (229) 
2.68467

>  <r_i_glide_intrahb_reward>  (229) 
-0

>  <i_i_glide_confnum>  (229) 
2

>  <i_i_glide_posenum>  (229) 
7

>  <r_i_glide_eff_state_penalty>  (229) 
0

>  <ligand_id>  (229) 
64

>  <original_smiles>  (229) 
CC1(C)CCCC2(C)C3=C(CC(O)C12)C1C2C(O)C(O)C(C)(C2(C)C)C1(C)C(=O)C3=O

>  <smiles>  (229) 
[H]OC1([H])C([H])([H])C2=C(C(=O)C(=O)C3(C([H])([H])[H])C2([H])C2([H])C([H])(O[H])C([H])(O[H])C3(C([H])([H])[H])C2(C([H])([H])[H])C([H])([H])[H])C2(C([H])([H])[H])C([H])([H])C([H])([H])C([H])([H])C(C([H])([H])[H])(C([H])([H])[H])C12[H]

$$$$
64:0:1
     RDKit          3D

 69 73  0  0  1  0  0  0  0  0999 V2000
    0.0267    2.3485    3.9659 C   0  0  0  0  0  0  0  0  0  0  0  0
    1.5083    2.0354    4.3039 C   0  0  0  0  0  0  0  0  0  0  0  0
    2.3855    3.0894    3.5871 C   0  0  0  0  0  0  0  0  0  0  0  0
    1.5884    2.2190    5.8370 C   0  0  0  0  0  0  0  0  0  0  0  0
    2.9063    1.7539    6.4399 C   0  0  0  0  0  0  0  0  0  0  0  0
    3.1816    0.2812    6.1076 C   0  0  0  0  0  0  0  0  0  0  0  0
    3.2065   -0.0587    4.5784 C   0  0  1  0  0  0  0  0  0  0  0  0
    4.5067    0.5386    3.9793 C   0  0  0  0  0  0  0  0  0  0  0  0
    3.2877   -1.5990    4.2717 C   0  0  0  0  0  0  0  0  0  0  0  0
    2.5240   -2.2141    3.3251 C   0  0  0  0  0  0  0  0  0  0  0  0
    1.5281   -1.4274    2.4783 C   0  0  0  0  0  0  0  0  0  0  0  0
    1.7756    0.0799    2.4702 C   0  0  1  0  0  0  0  0  0  0  0  0
    0.7151    0.6145    1.7056 O   0  0  0  0  0  0  0  0  0  0  0  0
    1.8778    0.5371    3.9502 C   0  0  2  0  0  0  0  0  0  0  0  0
    2.4737   -3.7389    3.0726 C   0  0  1  0  0  0  0  0  0  0  0  0
    2.6290   -4.2337    1.5899 C   0  0  2  0  0  0  0  0  0  0  0  0
    1.8259   -5.5550    1.5229 C   0  0  1  0  0  0  0  0  0  0  0  0
    1.4557   -5.8533    0.1878 O   0  0  0  0  0  0  0  0  0  0  0  0
    2.7586   -6.5438    2.2659 C   0  0  1  0  0  0  0  0  0  0  0  0
    3.0743   -7.6979    1.5113 O   0  0  0  0  0  0  0  0  0  0  0  0
    3.9739   -5.6293    2.6791 C   0  0  1  0  0  0  0  0  0  0  0  0
    5.2489   -6.4716    2.9580 C   0  0  0  0  0  0  0  0  0  0  0  0
    4.1013   -4.6757    1.4439 C   0  0  0  0  0  0  0  0  0  0  0  0
    4.4814   -5.3561    0.0915 C   0  0  0  0  0  0  0  0  0  0  0  0
    5.1086   -3.4935    1.5176 C   0  0  0  0  0  0  0  0  0  0  0  0
    3.4668   -4.6676    3.8568 C   0  0  2  0  0  0  0  0  0  0  0  0
    2.7502   -5.4052    5.0198 C   0  0  0  0  0  0  0  0  0  0  0  0
    4.5805   -3.8593    4.5590 C   0  0  0  0  0  0  0  0  0  0  0  0
    5.6682   -4.3514    4.8503 O   0  0  0  0  0  0  0  0  0  0  0  0
    4.2568   -2.4377    5.0477 C   0  0  0  0  0  0  0  0  0  0  0  0
    4.8770   -2.0602    6.0408 O   0  0  0  0  0  0  0  0  0  0  0  0
   -0.3405    3.2068    4.5316 H   0  0  0  0  0  0  0  0  0  0  0  0
   -0.6236    1.5056    4.2069 H   0  0  0  0  0  0  0  0  0  0  0  0
   -0.1181    2.5972    2.9148 H   0  0  0  0  0  0  0  0  0  0  0  0
    3.3174    3.2923    4.1097 H   0  0  0  0  0  0  0  0  0  0  0  0
    1.8736    4.0505    3.5213 H   0  0  0  0  0  0  0  0  0  0  0  0
    2.6340    2.7838    2.5708 H   0  0  0  0  0  0  0  0  0  0  0  0
    1.4236    3.2612    6.1078 H   0  0  0  0  0  0  0  0  0  0  0  0
    0.7858    1.6562    6.3168 H   0  0  0  0  0  0  0  0  0  0  0  0
    3.7292    2.3849    6.1094 H   0  0  0  0  0  0  0  0  0  0  0  0
    2.8665    1.8707    7.5225 H   0  0  0  0  0  0  0  0  0  0  0  0
    4.1408    0.0854    6.5816 H   0  0  0  0  0  0  0  0  0  0  0  0
    2.4453   -0.3454    6.6119 H   0  0  0  0  0  0  0  0  0  0  0  0
    4.5885    1.6139    4.1045 H   0  0  0  0  0  0  0  0  0  0  0  0
    4.6123    0.3255    2.9171 H   0  0  0  0  0  0  0  0  0  0  0  0
    5.3942    0.1215    4.4551 H   0  0  0  0  0  0  0  0  0  0  0  0
    1.5255   -1.7623    1.4477 H   0  0  0  0  0  0  0  0  0  0  0  0
    0.5357   -1.6350    2.8798 H   0  0  0  0  0  0  0  0  0  0  0  0
    2.6970    0.2999    1.9316 H   0  0  0  0  0  0  0  0  0  0  0  0
    0.7714    0.2998    0.8065 H   0  0  0  0  0  0  0  0  0  0  0  0
    1.0824   -0.0071    4.4600 H   0  0  0  0  0  0  0  0  0  0  0  0
    1.4593   -3.9684    3.4012 H   0  0  0  0  0  0  0  0  0  0  0  0
    2.3149   -3.5361    0.8152 H   0  0  0  0  0  0  0  0  0  0  0  0
    0.8834   -5.4959    2.0626 H   0  0  0  0  0  0  0  0  0  0  0  0
    2.2438   -5.8888   -0.3422 H   0  0  0  0  0  0  0  0  0  0  0  0
    2.2531   -6.9711    3.1286 H   0  0  0  0  0  0  0  0  0  0  0  0
    2.3079   -8.2534    1.4750 H   0  0  0  0  0  0  0  0  0  0  0  0
    6.1491   -5.8638    3.0101 H   0  0  0  0  0  0  0  0  0  0  0  0
    5.4460   -7.1883    2.1613 H   0  0  0  0  0  0  0  0  0  0  0  0
    5.1624   -7.0315    3.8878 H   0  0  0  0  0  0  0  0  0  0  0  0
    5.5380   -5.6245    0.0823 H   0  0  0  0  0  0  0  0  0  0  0  0
    4.3148   -4.6744   -0.7421 H   0  0  0  0  0  0  0  0  0  0  0  0
    3.9501   -6.2631   -0.1648 H   0  0  0  0  0  0  0  0  0  0  0  0
    6.1116   -3.8444    1.7647 H   0  0  0  0  0  0  0  0  0  0  0  0
    4.8503   -2.7056    2.2146 H   0  0  0  0  0  0  0  0  0  0  0  0
    5.1720   -2.9825    0.5566 H   0  0  0  0  0  0  0  0  0  0  0  0
    1.7446   -5.7384    4.7701 H   0  0  0  0  0  0  0  0  0  0  0  0
    2.6287   -4.7702    5.9001 H   0  0  0  0  0  0  0  0  0  0  0  0
    3.3173   -6.2809    5.3385 H   0  0  0  0  0  0  0  0  0  0  0  0
  1  2  1  0
  1 32  1  0
  1 33  1  0
  1 34  1  0
  2 14  1  0
  2  3  1  0
  2  4  1  0
  3 35  1  0
  3 36  1  0
  3 37  1  0
  4  5  1  0
  4 38  1  0
  4 39  1  0
  5  6  1  0
  5 40  1  0
  5 41  1  0
  6  7  1  0
  6 42  1  0
  6 43  1  0
  7 14  1  0
  7  8  1  6
  7  9  1  0
  8 44  1  0
  8 45  1  0
  8 46  1  0
  9 30  1  0
  9 10  2  0
 10 11  1  0
 10 15  1  0
 11 12  1  0
 11 47  1  0
 11 48  1  0
 12 13  1  0
 12 14  1  0
 12 49  1  6
 13 50  1  0
 14 51  1  1
 15 26  1  0
 15 16  1  0
 15 52  1  1
 16 23  1  0
 16 17  1  0
 16 53  1  6
 17 18  1  0
 17 19  1  0
 17 54  1  1
 18 55  1  0
 19 20  1  0
 19 21  1  0
 19 56  1  1
 20 57  1  0
 21 22  1  1
 21 23  1  0
 21 26  1  0
 22 58  1  0
 22 59  1  0
 22 60  1  0
 23 24  1  0
 23 25  1  0
 24 61  1  0
 24 62  1  0
 24 63  1  0
 25 64  1  0
 25 65  1  0
 25 66  1  0
 26 27  1  1
 26 28  1  0
 27 67  1  0
 27 68  1  0
 27 69  1  0
 28 29  2  0
 28 30  1  0
 30 31  2  0
M  END
>  <i_m_ct_stereo_status>  (230) 
1

>  <s_m_source_file>  (230) 
/var/tmp/pbs.5076255.sched01/tmprcd7yfff/907v12ihtf.sdf

>  <i_m_source_file_index>  (230) 
4

>  <i_lp_mmshare_version>  (230) 
48012

>  <i_f3d_flags>  (230) 
0

>  <s_epik_input>  (230) 
W0NIMl0xW0NIMl1bQ0gyXUMoW0NIM10pKFtDSDNdKVtDQEhdMltDQEhdKFtPSF0pW0NIMl1DKD1DM1tDQF0xMltDSDNdKVtDQEhdNFtDQEBIXTVbQ0BASF0oW09IXSlbQ0BASF0oW09IXSlbQ0BAXShbQ0gzXSkoQzUoW0NIM10pW0NIM10pW0NAQF00KFtDSDNdKUMoPU8pQzM9Tw==

>  <s_epik_cmdline>  (230) 
J2VwaWtfcHl0aG9uJywgJy1waHQnLCAnMi4wJywgJy1waCcsICc3LjAnLCAnLXRuJywgJzgnLCAnLW1hJywgJzIwMCcsICctaW1hZScsICc8aW5maWxlLm1hZT4nLCAnLW9tYWUnLCAnPG91dGZpbGUubWFlPic=

>  <r_lp_tautomer_probability>  (230) 
1

>  <r_epik_Ionization_Penalty>  (230) 
1.56087e-07

>  <r_epik_Ionization_Penalty_Charging>  (230) 
0

>  <r_epik_Ionization_Penalty_Neutral>  (230) 
1.56087e-07

>  <r_epik_State_Penalty>  (230) 
-0

>  <r_epik_Charging_Adjusted_Penalty>  (230) 
0

>  <i_epik_Tot_Q>  (230) 
0

>  <i_epik_Tot_abs_Q>  (230) 
0

>  <s_lp_Force_Field>  (230) 
OPLS3e

>  <r_lp_Energy>  (230) 
106.26

>  <b_lp_Chiralities_Consistent>  (230) 
1

>  <s_lp_Variant>  (230) 
64:0-1

>  <s_i_glide_gridfile>  (230) 
pfpi4k_grid

>  <i_i_glide_lignum>  (230) 
4

>  <i_i_glide_rotatable_bonds>  (230) 
3

>  <r_i_docking_score>  (230) 
-2.96634

>  <r_i_glide_ligand_efficiency>  (230) 
-0.0956883

>  <r_i_glide_ligand_efficiency_sa>  (230) 
-0.300593

>  <r_i_glide_ligand_efficiency_ln>  (230) 
-0.669

>  <r_i_glide_gscore>  (230) 
-2.96634

>  <r_i_glide_lipo>  (230) 
-0.0778678

>  <r_i_glide_hbond>  (230) 
-0.16

>  <r_i_glide_metal>  (230) 
-0

>  <r_i_glide_rewards>  (230) 
-0.491325

>  <r_i_glide_evdw>  (230) 
-23.7164

>  <r_i_glide_ecoul>  (230) 
-7.00884

>  <r_i_glide_erotb>  (230) 
0

>  <r_i_glide_esite>  (230) 
0

>  <r_i_glide_emodel>  (230) 
-37.0704

>  <r_i_glide_energy>  (230) 
-30.7252

>  <r_i_glide_einternal>  (230) 
0.821365

>  <r_i_glide_intrahb_reward>  (230) 
-0

>  <i_i_glide_confnum>  (230) 
2

>  <i_i_glide_posenum>  (230) 
15

>  <r_i_glide_eff_state_penalty>  (230) 
0

>  <ligand_id>  (230) 
64

>  <original_smiles>  (230) 
CC1(C)CCCC2(C)C3=C(CC(O)C12)C1C2C(O)C(O)C(C)(C2(C)C)C1(C)C(=O)C3=O

>  <smiles>  (230) 
[H]OC1([H])C([H])([H])C2=C(C(=O)C(=O)C3(C([H])([H])[H])C2([H])C2([H])C([H])(O[H])C([H])(O[H])C3(C([H])([H])[H])C2(C([H])([H])[H])C([H])([H])[H])C2(C([H])([H])[H])C([H])([H])C([H])([H])C([H])([H])C(C([H])([H])[H])(C([H])([H])[H])C12[H]

$$$$
64:0:2
     RDKit          3D

 69 73  0  0  1  0  0  0  0  0999 V2000
    0.0313    2.3599    3.9700 C   0  0  0  0  0  0  0  0  0  0  0  0
    1.5096    2.0410    4.3167 C   0  0  0  0  0  0  0  0  0  0  0  0
    2.3925    3.0971    3.6087 C   0  0  0  0  0  0  0  0  0  0  0  0
    1.5803    2.2187    5.8503 C   0  0  0  0  0  0  0  0  0  0  0  0
    2.8939    1.7486    6.4597 C   0  0  0  0  0  0  0  0  0  0  0  0
    3.1684    0.2760    6.1240 C   0  0  0  0  0  0  0  0  0  0  0  0
    3.2038   -0.0574    4.5942 C   0  0  1  0  0  0  0  0  0  0  0  0
    4.5084    0.5419    4.0069 C   0  0  0  0  0  0  0  0  0  0  0  0
    3.2819   -1.5959    4.2829 C   0  0  0  0  0  0  0  0  0  0  0  0
    2.5240   -2.2020    3.3302 C   0  0  0  0  0  0  0  0  0  0  0  0
    1.5368   -1.4145    2.4794 C   0  0  0  0  0  0  0  0  0  0  0  0
    1.7881    0.0931    2.4781 C   0  0  1  0  0  0  0  0  0  0  0  0
    0.7295    0.6290    1.7110 O   0  0  0  0  0  0  0  0  0  0  0  0
    1.8805    0.5432    3.9611 C   0  0  2  0  0  0  0  0  0  0  0  0
    2.4716   -3.7290    3.0683 C   0  0  1  0  0  0  0  0  0  0  0  0
    2.6372   -4.2163    1.5836 C   0  0  2  0  0  0  0  0  0  0  0  0
    1.8373   -5.5423    1.5033 C   0  0  1  0  0  0  0  0  0  0  0  0
    1.4740   -5.8633    0.1724 O   0  0  0  0  0  0  0  0  0  0  0  0
    2.7581   -6.5290    2.2554 C   0  0  1  0  0  0  0  0  0  0  0  0
    3.0844   -7.6804    1.4984 O   0  0  0  0  0  0  0  0  0  0  0  0
    3.9720   -5.6199    2.6799 C   0  0  1  0  0  0  0  0  0  0  0  0
    5.2428   -6.4669    2.9632 C   0  0  0  0  0  0  0  0  0  0  0  0
    4.1101   -4.6629    1.4490 C   0  0  0  0  0  0  0  0  0  0  0  0
    4.4949   -5.3406    0.0964 C   0  0  0  0  0  0  0  0  0  0  0  0
    5.1178   -3.4840    1.5313 C   0  0  0  0  0  0  0  0  0  0  0  0
    3.4556   -4.6623    3.8568 C   0  0  2  0  0  0  0  0  0  0  0  0
    2.7303   -5.4034    5.0103 C   0  0  0  0  0  0  0  0  0  0  0  0
    4.5674   -3.8585    4.5698 C   0  0  0  0  0  0  0  0  0  0  0  0
    5.6527   -4.3581    4.8619 O   0  0  0  0  0  0  0  0  0  0  0  0
    4.2472   -2.4387    5.0613 C   0  0  0  0  0  0  0  0  0  0  0  0
    4.8555   -2.0681    6.0623 O   0  0  0  0  0  0  0  0  0  0  0  0
   -0.3368    3.2162    4.5353 H   0  0  0  0  0  0  0  0  0  0  0  0
   -0.6213    1.5176    4.2051 H   0  0  0  0  0  0  0  0  0  0  0  0
   -0.1050    2.6104    2.9200 H   0  0  0  0  0  0  0  0  0  0  0  0
    3.3211    3.2946    4.1406 H   0  0  0  0  0  0  0  0  0  0  0  0
    1.8850    4.0594    3.5427 H   0  0  0  0  0  0  0  0  0  0  0  0
    2.6471    2.7917    2.5945 H   0  0  0  0  0  0  0  0  0  0  0  0
    1.4156    3.2613    6.1234 H   0  0  0  0  0  0  0  0  0  0  0  0
    0.7727    1.6562    6.3235 H   0  0  0  0  0  0  0  0  0  0  0  0
    3.7189    2.3808    6.1389 H   0  0  0  0  0  0  0  0  0  0  0  0
    2.8451    1.8610    7.5420 H   0  0  0  0  0  0  0  0  0  0  0  0
    4.1237    0.0778    6.6033 H   0  0  0  0  0  0  0  0  0  0  0  0
    2.4278   -0.3511    6.6208 H   0  0  0  0  0  0  0  0  0  0  0  0
    4.5908    1.6165    4.1343 H   0  0  0  0  0  0  0  0  0  0  0  0
    4.6197    0.3318    2.9450 H   0  0  0  0  0  0  0  0  0  0  0  0
    5.3915    0.1214    4.4871 H   0  0  0  0  0  0  0  0  0  0  0  0
    1.5412   -1.7432    1.4466 H   0  0  0  0  0  0  0  0  0  0  0  0
    0.5402   -1.6208    2.8748 H   0  0  0  0  0  0  0  0  0  0  0  0
    2.7130    0.3133    1.9463 H   0  0  0  0  0  0  0  0  0  0  0  0
    0.7872    0.3207    0.8116 H   0  0  0  0  0  0  0  0  0  0  0  0
    1.0788   -0.0021    4.4623 H   0  0  0  0  0  0  0  0  0  0  0  0
    1.4532   -3.9586    3.3882 H   0  0  0  0  0  0  0  0  0  0  0  0
    2.3287   -3.5156    0.8112 H   0  0  0  0  0  0  0  0  0  0  0  0
    0.8912   -5.4821    2.0352 H   0  0  0  0  0  0  0  0  0  0  0  0
    2.2648   -5.9038   -0.3537 H   0  0  0  0  0  0  0  0  0  0  0  0
    2.2360   -6.9571    3.1070 H   0  0  0  0  0  0  0  0  0  0  0  0
    3.5238   -8.2952    2.0697 H   0  0  0  0  0  0  0  0  0  0  0  0
    6.1436   -5.8585    3.0246 H   0  0  0  0  0  0  0  0  0  0  0  0
    5.4518   -7.1782    2.1633 H   0  0  0  0  0  0  0  0  0  0  0  0
    5.1515   -7.0324    3.8904 H   0  0  0  0  0  0  0  0  0  0  0  0
    5.5501   -5.6114    0.0898 H   0  0  0  0  0  0  0  0  0  0  0  0
    4.3332   -4.6567   -0.7368 H   0  0  0  0  0  0  0  0  0  0  0  0
    3.9637   -6.2455   -0.1683 H   0  0  0  0  0  0  0  0  0  0  0  0
    6.1178   -3.8387    1.7837 H   0  0  0  0  0  0  0  0  0  0  0  0
    4.8555   -2.6984    2.2293 H   0  0  0  0  0  0  0  0  0  0  0  0
    5.1871   -2.9714    0.5717 H   0  0  0  0  0  0  0  0  0  0  0  0
    1.7259   -5.7342    4.7527 H   0  0  0  0  0  0  0  0  0  0  0  0
    2.6031   -4.7695    5.8912 H   0  0  0  0  0  0  0  0  0  0  0  0
    3.2951   -6.2796    5.3338 H   0  0  0  0  0  0  0  0  0  0  0  0
  1  2  1  0
  1 32  1  0
  1 33  1  0
  1 34  1  0
  2 14  1  0
  2  3  1  0
  2  4  1  0
  3 35  1  0
  3 36  1  0
  3 37  1  0
  4  5  1  0
  4 38  1  0
  4 39  1  0
  5  6  1  0
  5 40  1  0
  5 41  1  0
  6  7  1  0
  6 42  1  0
  6 43  1  0
  7 14  1  0
  7  8  1  6
  7  9  1  0
  8 44  1  0
  8 45  1  0
  8 46  1  0
  9 30  1  0
  9 10  2  0
 10 11  1  0
 10 15  1  0
 11 12  1  0
 11 47  1  0
 11 48  1  0
 12 13  1  0
 12 14  1  0
 12 49  1  6
 13 50  1  0
 14 51  1  1
 15 26  1  0
 15 16  1  0
 15 52  1  1
 16 23  1  0
 16 17  1  0
 16 53  1  6
 17 18  1  0
 17 19  1  0
 17 54  1  1
 18 55  1  0
 19 20  1  0
 19 21  1  0
 19 56  1  1
 20 57  1  0
 21 22  1  1
 21 23  1  0
 21 26  1  0
 22 58  1  0
 22 59  1  0
 22 60  1  0
 23 24  1  0
 23 25  1  0
 24 61  1  0
 24 62  1  0
 24 63  1  0
 25 64  1  0
 25 65  1  0
 25 66  1  0
 26 27  1  1
 26 28  1  0
 27 67  1  0
 27 68  1  0
 27 69  1  0
 28 29  2  0
 28 30  1  0
 30 31  2  0
M  END
>  <i_m_ct_stereo_status>  (231) 
1

>  <s_m_source_file>  (231) 
/var/tmp/pbs.5076255.sched01/tmprcd7yfff/907v12ihtf.sdf

>  <i_m_source_file_index>  (231) 
4

>  <i_lp_mmshare_version>  (231) 
48012

>  <i_f3d_flags>  (231) 
0

>  <s_epik_input>  (231) 
W0NIMl0xW0NIMl1bQ0gyXUMoW0NIM10pKFtDSDNdKVtDQEhdMltDQEhdKFtPSF0pW0NIMl1DKD1DM1tDQF0xMltDSDNdKVtDQEhdNFtDQEBIXTVbQ0BASF0oW09IXSlbQ0BASF0oW09IXSlbQ0BAXShbQ0gzXSkoQzUoW0NIM10pW0NIM10pW0NAQF00KFtDSDNdKUMoPU8pQzM9Tw==

>  <s_epik_cmdline>  (231) 
J2VwaWtfcHl0aG9uJywgJy1waHQnLCAnMi4wJywgJy1waCcsICc3LjAnLCAnLXRuJywgJzgnLCAnLW1hJywgJzIwMCcsICctaW1hZScsICc8aW5maWxlLm1hZT4nLCAnLW9tYWUnLCAnPG91dGZpbGUubWFlPic=

>  <r_lp_tautomer_probability>  (231) 
1

>  <r_epik_Ionization_Penalty>  (231) 
1.56087e-07

>  <r_epik_Ionization_Penalty_Charging>  (231) 
0

>  <r_epik_Ionization_Penalty_Neutral>  (231) 
1.56087e-07

>  <r_epik_State_Penalty>  (231) 
-0

>  <r_epik_Charging_Adjusted_Penalty>  (231) 
0

>  <i_epik_Tot_Q>  (231) 
0

>  <i_epik_Tot_abs_Q>  (231) 
0

>  <s_lp_Force_Field>  (231) 
OPLS3e

>  <r_lp_Energy>  (231) 
106.26

>  <b_lp_Chiralities_Consistent>  (231) 
1

>  <s_lp_Variant>  (231) 
64:0-1

>  <s_i_glide_gridfile>  (231) 
pfpi4k_grid

>  <i_i_glide_lignum>  (231) 
4

>  <i_i_glide_rotatable_bonds>  (231) 
3

>  <r_i_docking_score>  (231) 
-2.93119

>  <r_i_glide_ligand_efficiency>  (231) 
-0.0945545

>  <r_i_glide_ligand_efficiency_sa>  (231) 
-0.297032

>  <r_i_glide_ligand_efficiency_ln>  (231) 
-0.661073

>  <r_i_glide_gscore>  (231) 
-2.93119

>  <r_i_glide_lipo>  (231) 
-0.079906

>  <r_i_glide_hbond>  (231) 
-0.16

>  <r_i_glide_metal>  (231) 
-0

>  <r_i_glide_rewards>  (231) 
-0.490442

>  <r_i_glide_evdw>  (231) 
-23.7222

>  <r_i_glide_ecoul>  (231) 
-6.76489

>  <r_i_glide_erotb>  (231) 
0

>  <r_i_glide_esite>  (231) 
0

>  <r_i_glide_emodel>  (231) 
-36.7936

>  <r_i_glide_energy>  (231) 
-30.487

>  <r_i_glide_einternal>  (231) 
0.735092

>  <r_i_glide_intrahb_reward>  (231) 
-0

>  <i_i_glide_confnum>  (231) 
1

>  <i_i_glide_posenum>  (231) 
1

>  <r_i_glide_eff_state_penalty>  (231) 
0

>  <ligand_id>  (231) 
64

>  <original_smiles>  (231) 
CC1(C)CCCC2(C)C3=C(CC(O)C12)C1C2C(O)C(O)C(C)(C2(C)C)C1(C)C(=O)C3=O

>  <smiles>  (231) 
[H]OC1([H])C([H])([H])C2=C(C(=O)C(=O)C3(C([H])([H])[H])C2([H])C2([H])C([H])(O[H])C([H])(O[H])C3(C([H])([H])[H])C2(C([H])([H])[H])C([H])([H])[H])C2(C([H])([H])[H])C([H])([H])C([H])([H])C([H])([H])C(C([H])([H])[H])(C([H])([H])[H])C12[H]

$$$$
65:1:0
     RDKit          3D

 31 34  0  0  1  0  0  0  0  0999 V2000
   -7.2535   -8.4933   -6.7627 C   0  0  0  0  0  0  0  0  0  0  0  0
   -7.8527   -7.2101   -7.3761 C   0  0  1  0  0  0  0  0  0  0  0  0
   -7.5315   -5.9448   -6.5200 C   0  0  0  0  0  0  0  0  0  0  0  0
   -8.2834   -4.8776   -6.2021 C   0  0  0  0  0  0  0  0  0  0  0  0
   -7.5297   -4.0365   -5.2146 C   0  0  1  0  0  0  0  0  0  0  0  0
   -7.4670   -4.7699   -3.8931 C   0  0  0  0  0  0  0  0  0  0  0  0
   -6.5488   -5.9948   -4.2103 C   0  0  0  0  0  0  0  0  0  0  0  0
   -6.2408   -5.7867   -5.6959 C   0  0  2  0  0  0  0  0  0  0  0  0
   -6.0991   -4.2466   -5.7013 C   0  0  0  0  0  0  0  0  0  0  0  0
   -7.3822   -7.0755   -8.7780 N   0  0  0  0  0  0  0  0  0  0  0  0
   -8.7285   -7.1859   -9.1613 C   0  0  0  0  0  0  0  0  0  0  0  0
   -9.5124   -6.2022   -9.7557 C   0  0  0  0  0  0  0  0  0  0  0  0
  -10.5434   -5.8563   -8.8830 C   0  0  0  0  0  0  0  0  0  0  0  0
  -10.2690   -6.5703   -7.7625 N   0  0  0  0  0  0  0  0  0  0  0  0
   -9.1801   -7.3533   -7.9268 N   0  0  0  0  0  0  0  0  0  0  0  0
   -7.3797   -9.3733   -7.3918 H   0  0  0  0  0  0  0  0  0  0  0  0
   -7.6407   -8.7083   -5.7730 H   0  0  0  0  0  0  0  0  0  0  0  0
   -6.1801   -8.3920   -6.6329 H   0  0  0  0  0  0  0  0  0  0  0  0
   -9.2791   -4.5839   -6.4987 H   0  0  0  0  0  0  0  0  0  0  0  0
   -7.9439   -3.0490   -5.1381 H   0  0  0  0  0  0  0  0  0  0  0  0
   -7.0269   -4.1338   -3.1196 H   0  0  0  0  0  0  0  0  0  0  0  0
   -8.4862   -5.0022   -3.6108 H   0  0  0  0  0  0  0  0  0  0  0  0
   -5.6621   -5.9277   -3.5750 H   0  0  0  0  0  0  0  0  0  0  0  0
   -6.9710   -6.9878   -4.0622 H   0  0  0  0  0  0  0  0  0  0  0  0
   -5.3635   -6.3435   -6.0035 H   0  0  0  0  0  0  0  0  0  0  0  0
   -5.9413   -3.7995   -6.6906 H   0  0  0  0  0  0  0  0  0  0  0  0
   -5.3459   -3.8640   -4.9953 H   0  0  0  0  0  0  0  0  0  0  0  0
   -6.9741   -6.1971   -8.9941 H   0  0  0  0  0  0  0  0  0  0  0  0
   -9.2575   -5.6861  -10.6639 H   0  0  0  0  0  0  0  0  0  0  0  0
  -11.3201   -5.0976   -8.8698 H   0  0  0  0  0  0  0  0  0  0  0  0
  -10.6329   -6.4124   -6.8340 H   0  0  0  0  0  0  0  0  0  0  0  0
  2  1  1  1
  1 16  1  0
  1 17  1  0
  1 18  1  0
  2 15  1  0
  2  3  1  0
  2 10  1  0
  3  8  1  0
  3  4  2  0
  4  5  1  0
  4 19  1  0
  5  9  1  0
  5  6  1  0
  5 20  1  1
  6  7  1  0
  6 21  1  0
  6 22  1  0
  7  8  1  0
  7 23  1  0
  7 24  1  0
  8  9  1  0
  8 25  1  6
  9 26  1  0
  9 27  1  0
 10 11  1  0
 10 28  1  0
 11 15  1  0
 11 12  2  0
 12 13  1  0
 12 29  1  0
 13 14  2  0
 13 30  1  0
 14 15  1  0
 14 31  1  0
M  CHG  1  14   1
M  END
>  <i_m_ct_stereo_status>  (232) 
1

>  <s_m_source_file>  (232) 
/var/tmp/pbs.5076255.sched01/tmprcd7yfff/907v12ihtf.sdf

>  <i_m_source_file_index>  (232) 
6

>  <i_lp_mmshare_version>  (232) 
48012

>  <i_f3d_flags>  (232) 
0

>  <s_epik_input>  (232) 
W2NIXTFbY0hdbm4oYzEyKVtDQEBdKFtDSDNdKShbTkhdMilDKD1bQ0hdW0NAQEhdMzQpW0NAQEhdKFtDSDJdNClbQ0gyXVtDSDJdMw==

>  <s_epik_cmdline>  (232) 
J2VwaWtfcHl0aG9uJywgJy1waHQnLCAnMi4wJywgJy1waCcsICc3LjAnLCAnLXRuJywgJzgnLCAnLW1hJywgJzIwMCcsICctaW1hZScsICc8aW5maWxlLm1hZT4nLCAnLW9tYWUnLCAnPG91dGZpbGUubWFlPic=

>  <r_epik_Ionization_Penalty>  (232) 
2.05814

>  <r_epik_Ionization_Penalty_Charging>  (232) 
2.05763

>  <r_epik_Ionization_Penalty_Neutral>  (232) 
0.000508052

>  <r_epik_State_Penalty>  (232) 
2.1906

>  <r_epik_Charging_Adjusted_Penalty>  (232) 
4.24824

>  <i_epik_Tot_Q>  (232) 
1

>  <i_epik_Tot_abs_Q>  (232) 
1

>  <s_lp_Force_Field>  (232) 
OPLS3e

>  <r_lp_Energy>  (232) 
83.3177

>  <b_lp_Chiralities_Consistent>  (232) 
1

>  <s_lp_Variant>  (232) 
65:0-2

>  <s_i_glide_gridfile>  (232) 
pfpi4k_grid

>  <i_i_glide_lignum>  (232) 
6

>  <i_i_glide_rotatable_bonds>  (232) 
1

>  <r_i_docking_score>  (232) 
-5.02404

>  <r_i_glide_ligand_efficiency>  (232) 
-0.334936

>  <r_i_glide_ligand_efficiency_sa>  (232) 
-0.826024

>  <r_i_glide_ligand_efficiency_ln>  (232) 
-1.3549

>  <r_i_glide_gscore>  (232) 
-5.02404

>  <r_i_glide_lipo>  (232) 
-2.1092

>  <r_i_glide_hbond>  (232) 
0

>  <r_i_glide_metal>  (232) 
-0

>  <r_i_glide_rewards>  (232) 
-3.02147

>  <r_i_glide_evdw>  (232) 
-11.2702

>  <r_i_glide_ecoul>  (232) 
1.92255

>  <r_i_glide_erotb>  (232) 
0.4007

>  <r_i_glide_esite>  (232) 
-0.0189448

>  <r_i_glide_emodel>  (232) 
-6.93223

>  <r_i_glide_energy>  (232) 
-9.3477

>  <r_i_glide_einternal>  (232) 
4.11725

>  <r_i_glide_intrahb_reward>  (232) 
-0

>  <i_i_glide_confnum>  (232) 
2

>  <i_i_glide_posenum>  (232) 
1

>  <r_i_glide_eff_state_penalty>  (232) 
0

>  <ligand_id>  (232) 
65

>  <original_smiles>  (232) 
CC1(C2=CC3CCC2C3)Nc2ccnn21

>  <smiles>  (232) 
[H]C1=C(C2(C([H])([H])[H])N([H])c3c([H])c([H])[n+]([H])n32)C2([H])C([H])([H])C([H])([H])C1([H])C2([H])[H]

$$$$
65:1:1
     RDKit          3D

 31 34  0  0  1  0  0  0  0  0999 V2000
   -7.9963   -6.8013   -8.0782 C   0  0  0  0  0  0  0  0  0  0  0  0
   -8.1706   -5.4568   -7.3668 C   0  0  1  0  0  0  0  0  0  0  0  0
   -7.2291   -5.2121   -6.1864 C   0  0  0  0  0  0  0  0  0  0  0  0
   -7.2126   -4.2098   -5.2889 C   0  0  0  0  0  0  0  0  0  0  0  0
   -6.0765   -4.4534   -4.3168 C   0  0  1  0  0  0  0  0  0  0  0  0
   -6.5224   -5.6490   -3.4792 C   0  0  0  0  0  0  0  0  0  0  0  0
   -6.5247   -6.8152   -4.4963 C   0  0  0  0  0  0  0  0  0  0  0  0
   -6.0942   -6.1228   -5.7962 C   0  0  2  0  0  0  0  0  0  0  0  0
   -5.0658   -5.1255   -5.2150 C   0  0  0  0  0  0  0  0  0  0  0  0
   -8.1853   -4.2994   -8.3088 N   0  0  0  0  0  0  0  0  0  0  0  0
   -9.5196   -4.1679   -7.8776 C   0  0  0  0  0  0  0  0  0  0  0  0
  -10.1173   -3.1602   -7.1342 C   0  0  0  0  0  0  0  0  0  0  0  0
  -10.5499   -3.6628   -5.9257 C   0  0  0  0  0  0  0  0  0  0  0  0
  -10.1035   -4.9407   -5.9369 N   0  0  0  0  0  0  0  0  0  0  0  0
   -9.5246   -5.2257   -7.1014 N   0  0  0  0  0  0  0  0  0  0  0  0
   -8.5820   -6.9080   -9.0056 H   0  0  0  0  0  0  0  0  0  0  0  0
   -8.0843   -7.6592   -7.4040 H   0  0  0  0  0  0  0  0  0  0  0  0
   -6.9849   -6.8431   -8.3945 H   0  0  0  0  0  0  0  0  0  0  0  0
   -7.8577   -3.3377   -5.2279 H   0  0  0  0  0  0  0  0  0  0  0  0
   -5.7020   -3.5564   -3.8075 H   0  0  0  0  0  0  0  0  0  0  0  0
   -5.8202   -6.0154   -2.7130 H   0  0  0  0  0  0  0  0  0  0  0  0
   -7.3852   -5.3343   -2.9418 H   0  0  0  0  0  0  0  0  0  0  0  0
   -5.7349   -7.5334   -4.2458 H   0  0  0  0  0  0  0  0  0  0  0  0
   -7.4734   -7.3359   -4.6075 H   0  0  0  0  0  0  0  0  0  0  0  0
   -5.7170   -6.8466   -6.5226 H   0  0  0  0  0  0  0  0  0  0  0  0
   -4.6466   -4.3407   -5.8598 H   0  0  0  0  0  0  0  0  0  0  0  0
   -4.2970   -5.6951   -4.6874 H   0  0  0  0  0  0  0  0  0  0  0  0
   -7.6548   -3.4838   -8.0294 H   0  0  0  0  0  0  0  0  0  0  0  0
  -10.1991   -2.1195   -7.3569 H   0  0  0  0  0  0  0  0  0  0  0  0
  -10.9792   -3.1987   -5.0434 H   0  0  0  0  0  0  0  0  0  0  0  0
  -10.0902   -5.5493   -5.1396 H   0  0  0  0  0  0  0  0  0  0  0  0
  2  1  1  6
  1 16  1  0
  1 17  1  0
  1 18  1  0
  2 15  1  0
  2  3  1  0
  2 10  1  0
  3  8  1  0
  3  4  2  0
  4  5  1  0
  4 19  1  0
  5  9  1  0
  5  6  1  0
  5 20  1  1
  6  7  1  0
  6 21  1  0
  6 22  1  0
  7  8  1  0
  7 23  1  0
  7 24  1  0
  8  9  1  0
  8 25  1  6
  9 26  1  0
  9 27  1  0
 10 11  1  0
 10 28  1  0
 11 15  1  0
 11 12  2  0
 12 13  1  0
 12 29  1  0
 13 14  2  0
 13 30  1  0
 14 15  1  0
 14 31  1  0
M  CHG  1  14   1
M  END
>  <i_m_ct_stereo_status>  (233) 
1

>  <s_m_source_file>  (233) 
/var/tmp/pbs.5076255.sched01/tmprcd7yfff/907v12ihtf.sdf

>  <i_m_source_file_index>  (233) 
6

>  <i_lp_mmshare_version>  (233) 
48012

>  <i_f3d_flags>  (233) 
0

>  <s_epik_input>  (233) 
W2NIXTFbY0hdbm4oYzEyKVtDQEBdKFtDSDNdKShbTkhdMilDKD1bQ0hdW0NAQEhdMzQpW0NAQEhdKFtDSDJdNClbQ0gyXVtDSDJdMw==

>  <s_epik_cmdline>  (233) 
J2VwaWtfcHl0aG9uJywgJy1waHQnLCAnMi4wJywgJy1waCcsICc3LjAnLCAnLXRuJywgJzgnLCAnLW1hJywgJzIwMCcsICctaW1hZScsICc8aW5maWxlLm1hZT4nLCAnLW9tYWUnLCAnPG91dGZpbGUubWFlPic=

>  <r_epik_Ionization_Penalty>  (233) 
2.05814

>  <r_epik_Ionization_Penalty_Charging>  (233) 
2.05763

>  <r_epik_Ionization_Penalty_Neutral>  (233) 
0.000508052

>  <r_epik_State_Penalty>  (233) 
2.1906

>  <r_epik_Charging_Adjusted_Penalty>  (233) 
4.24824

>  <i_epik_Tot_Q>  (233) 
1

>  <i_epik_Tot_abs_Q>  (233) 
1

>  <s_lp_Force_Field>  (233) 
OPLS3e

>  <r_lp_Energy>  (233) 
83.3177

>  <b_lp_Chiralities_Consistent>  (233) 
1

>  <s_lp_Variant>  (233) 
65:0-2

>  <s_i_glide_gridfile>  (233) 
pfpi4k_grid

>  <i_i_glide_lignum>  (233) 
6

>  <i_i_glide_rotatable_bonds>  (233) 
1

>  <r_i_docking_score>  (233) 
-3.36348

>  <r_i_glide_ligand_efficiency>  (233) 
-0.224232

>  <r_i_glide_ligand_efficiency_sa>  (233) 
-0.553004

>  <r_i_glide_ligand_efficiency_ln>  (233) 
-0.907075

>  <r_i_glide_gscore>  (233) 
-3.36348

>  <r_i_glide_lipo>  (233) 
-1.59618

>  <r_i_glide_hbond>  (233) 
0

>  <r_i_glide_metal>  (233) 
-0

>  <r_i_glide_rewards>  (233) 
-2.5565

>  <r_i_glide_evdw>  (233) 
-6.04578

>  <r_i_glide_ecoul>  (233) 
4.60528

>  <r_i_glide_erotb>  (233) 
0.4007

>  <r_i_glide_esite>  (233) 
0

>  <r_i_glide_emodel>  (233) 
1.59667

>  <r_i_glide_energy>  (233) 
-1.4405

>  <r_i_glide_einternal>  (233) 
3.38055

>  <r_i_glide_intrahb_reward>  (233) 
-0

>  <i_i_glide_confnum>  (233) 
2

>  <i_i_glide_posenum>  (233) 
4

>  <r_i_glide_eff_state_penalty>  (233) 
0

>  <ligand_id>  (233) 
65

>  <original_smiles>  (233) 
CC1(C2=CC3CCC2C3)Nc2ccnn21

>  <smiles>  (233) 
[H]C1=C(C2(C([H])([H])[H])N([H])c3c([H])c([H])[n+]([H])n32)C2([H])C([H])([H])C([H])([H])C1([H])C2([H])[H]

$$$$
67:0:0
     RDKit          3D

 67 72  0  0  1  0  0  0  0  0999 V2000
    1.2477   -8.4981    5.6822 C   0  0  0  0  0  0  0  0  0  0  0  0
    1.6670   -8.1399    4.3618 O   0  0  0  0  0  0  0  0  0  0  0  0
    3.0800   -8.1894    4.1100 C   0  0  2  0  0  0  0  0  0  0  0  0
    3.7835   -6.9181    4.5585 C   0  0  0  0  0  0  0  0  0  0  0  0
    3.3963   -5.6970    3.6907 C   0  0  0  0  0  0  0  0  0  0  0  0
    3.0875   -5.9642    2.1662 C   0  0  2  0  0  0  0  0  0  0  0  0
    1.5527   -6.0895    1.9784 C   0  0  0  0  0  0  0  0  0  0  0  0
    3.7401   -7.2977    1.7632 C   0  0  0  0  0  0  0  0  0  0  0  0
    4.7561   -7.3613    0.8672 C   0  0  0  0  0  0  0  0  0  0  0  0
    5.3766   -6.1551    0.1975 C   0  0  0  0  0  0  0  0  0  0  0  0
    5.1070   -4.8455    0.9634 C   0  0  1  0  0  0  0  0  0  0  0  0
    5.6784   -3.5820    0.2519 C   0  0  2  0  0  0  0  0  0  0  0  0
    5.9789   -2.4178    1.2147 C   0  0  0  0  0  0  0  0  0  0  0  0
    6.0858   -1.1576    0.3681 C   0  0  0  0  0  0  0  0  0  0  0  0
    5.2795   -1.4973   -0.8834 C   0  0  0  0  0  0  0  0  0  0  0  0
    5.0706   -0.7162   -1.7811 O   0  0  0  0  0  0  0  0  0  0  0  0
    4.8153   -2.9682   -0.8790 C   0  0  1  0  0  0  0  0  0  0  0  0
    5.0953   -3.5748   -2.2782 C   0  0  0  0  0  0  0  0  0  0  0  0
    3.3060   -3.0075   -0.5426 C   0  0  0  0  0  0  0  0  0  0  0  0
    2.8525   -4.3672    0.0194 C   0  0  0  0  0  0  0  0  0  0  0  0
    3.6139   -4.7324    1.3243 C   0  0  1  0  0  0  0  0  0  0  0  0
    3.3820   -8.5108    2.6329 C   0  0  2  0  0  0  0  0  0  0  0  0
    2.6077   -9.6977    2.0976 C   0  0  0  0  0  0  0  0  0  0  0  0
    2.8507  -10.5985    3.3209 C   0  0  0  0  0  0  0  0  0  0  0  0
    3.6747   -9.6249    4.1882 C   0  0  2  0  0  0  0  0  0  0  0  0
    4.4314  -10.2072    5.4283 C   0  0  0  0  0  0  0  0  0  0  0  0
    3.4779  -10.7000    6.5449 C   0  0  0  0  0  0  0  0  0  0  0  0
    5.4066   -9.2084    6.0747 C   0  0  0  0  0  0  0  0  0  0  0  0
    4.5641   -9.2153    3.1179 O   0  0  0  0  0  0  0  0  0  0  0  0
    0.1742   -8.3027    5.8057 H   0  0  0  0  0  0  0  0  0  0  0  0
    1.7665   -7.8926    6.4387 H   0  0  0  0  0  0  0  0  0  0  0  0
    1.3963   -9.5171    5.8696 H   0  0  0  0  0  0  0  0  0  0  0  0
    3.6018   -6.7148    5.6117 H   0  0  0  0  0  0  0  0  0  0  0  0
    4.8682   -7.0480    4.4537 H   0  0  0  0  0  0  0  0  0  0  0  0
    2.5377   -5.2200    4.1564 H   0  0  0  0  0  0  0  0  0  0  0  0
    4.2142   -4.9834    3.7961 H   0  0  0  0  0  0  0  0  0  0  0  0
    1.0457   -5.1571    2.2278 H   0  0  0  0  0  0  0  0  0  0  0  0
    1.0988   -6.8488    2.5982 H   0  0  0  0  0  0  0  0  0  0  0  0
    1.3009   -6.3734    0.9575 H   0  0  0  0  0  0  0  0  0  0  0  0
    5.2132   -8.3146    0.6563 H   0  0  0  0  0  0  0  0  0  0  0  0
    6.4568   -6.2833    0.1542 H   0  0  0  0  0  0  0  0  0  0  0  0
    5.0189   -6.1215   -0.8282 H   0  0  0  0  0  0  0  0  0  0  0  0
    5.6623   -4.9421    1.8968 H   0  0  0  0  0  0  0  0  0  0  0  0
    6.6430   -3.8518   -0.1853 H   0  0  0  0  0  0  0  0  0  0  0  0
    5.1766   -2.2875    1.9406 H   0  0  0  0  0  0  0  0  0  0  0  0
    6.8978   -2.6004    1.7693 H   0  0  0  0  0  0  0  0  0  0  0  0
    5.6998   -0.2671    0.8674 H   0  0  0  0  0  0  0  0  0  0  0  0
    7.1200   -0.9679    0.0809 H   0  0  0  0  0  0  0  0  0  0  0  0
    4.7521   -4.6041   -2.3430 H   0  0  0  0  0  0  0  0  0  0  0  0
    6.1597   -3.5592   -2.5140 H   0  0  0  0  0  0  0  0  0  0  0  0
    4.5805   -3.0232   -3.0684 H   0  0  0  0  0  0  0  0  0  0  0  0
    3.0536   -2.2339    0.1783 H   0  0  0  0  0  0  0  0  0  0  0  0
    2.7140   -2.7695   -1.4277 H   0  0  0  0  0  0  0  0  0  0  0  0
    1.7996   -4.2459    0.2316 H   0  0  0  0  0  0  0  0  0  0  0  0
    2.9273   -5.1365   -0.7041 H   0  0  0  0  0  0  0  0  0  0  0  0
    3.4925   -3.8590    1.9607 H   0  0  0  0  0  0  0  0  0  0  0  0
    1.5519   -9.4721    1.9393 H   0  0  0  0  0  0  0  0  0  0  0  0
    3.0277  -10.1113    1.1775 H   0  0  0  0  0  0  0  0  0  0  0  0
    1.9202  -10.8941    3.8008 H   0  0  0  0  0  0  0  0  0  0  0  0
    3.3992  -11.4995    3.0384 H   0  0  0  0  0  0  0  0  0  0  0  0
    5.0220  -11.0610    5.0937 H   0  0  0  0  0  0  0  0  0  0  0  0
    2.9647   -9.8894    7.0143 H   0  0  0  0  0  0  0  0  0  0  0  0
    4.0238  -11.2538    7.3257 H   0  0  0  0  0  0  0  0  0  0  0  0
    2.7443  -11.3913    6.1059 H   0  0  0  0  0  0  0  0  0  0  0  0
    4.8984   -8.3327    6.4824 H   0  0  0  0  0  0  0  0  0  0  0  0
    6.1647   -8.8668    5.3702 H   0  0  0  0  0  0  0  0  0  0  0  0
    5.9175   -9.6550    6.9258 H   0  0  0  0  0  0  0  0  0  0  0  0
  1  2  1  0
  1 30  1  0
  1 31  1  0
  1 32  1  0
  3  2  1  6
  3 22  1  0
  3 25  1  0
  3  4  1  0
  4  5  1  0
  4 33  1  0
  4 34  1  0
  5  6  1  0
  5 35  1  0
  5 36  1  0
  6 21  1  0
  6  7  1  1
  6  8  1  0
  7 37  1  0
  7 38  1  0
  7 39  1  0
  8  9  2  0
 22  8  1  6
  9 10  1  0
  9 40  1  0
 10 11  1  0
 10 41  1  0
 10 42  1  0
 11 21  1  0
 11 12  1  0
 11 43  1  1
 12 17  1  0
 12 13  1  0
 12 44  1  6
 13 14  1  0
 13 45  1  0
 13 46  1  0
 14 15  1  0
 14 47  1  0
 14 48  1  0
 15 16  2  0
 15 17  1  0
 17 18  1  6
 17 19  1  0
 18 49  1  0
 18 50  1  0
 18 51  1  0
 19 20  1  0
 19 52  1  0
 19 53  1  0
 20 21  1  0
 20 54  1  0
 20 55  1  0
 21 56  1  1
 22 29  1  0
 22 23  1  0
 23 24  1  0
 23 57  1  0
 23 58  1  0
 24 25  1  0
 24 59  1  0
 24 60  1  0
 25 26  1  1
 25 29  1  0
 26 27  1  0
 26 28  1  0
 26 61  1  0
 27 62  1  0
 27 63  1  0
 27 64  1  0
 28 65  1  0
 28 66  1  0
 28 67  1  0
M  END
>  <i_m_ct_stereo_status>  (234) 
1

>  <s_m_source_file>  (234) 
/var/tmp/pbs.5076255.sched01/tmprcd7yfff/907v12ihtf.sdf

>  <i_m_source_file_index>  (234) 
8

>  <i_lp_mmshare_version>  (234) 
48012

>  <i_f3d_flags>  (234) 
0

>  <s_epik_input>  (234) 
W0NIMl0xW0NIMl1bQ0BdKE8yKShbQ0hdKFtDSDNdKVtDSDNdKVtDQEBdKFtDQF0xMjMpKE9bQ0gzXSlbQ0gyXVtDSDJdW0NAXTQoW0NIM10pQzM9W0NIXVtDSDJdW0NASF01W0NASF02W0NAXShbQ0gzXSkoQyg9TylbQ0gyXVtDSDJdNilbQ0gyXVtDSDJdW0NAQEhdNDU=

>  <s_epik_cmdline>  (234) 
J2VwaWtfcHl0aG9uJywgJy1waHQnLCAnMi4wJywgJy1waCcsICc3LjAnLCAnLXRuJywgJzgnLCAnLW1hJywgJzIwMCcsICctaW1hZScsICc8aW5maWxlLm1hZT4nLCAnLW9tYWUnLCAnPG91dGZpbGUubWFlPic=

>  <r_lp_tautomer_probability>  (234) 
1

>  <r_epik_Ionization_Penalty>  (234) 
9.08541e-12

>  <r_epik_Ionization_Penalty_Charging>  (234) 
0

>  <r_epik_Ionization_Penalty_Neutral>  (234) 
9.08541e-12

>  <r_epik_State_Penalty>  (234) 
-0

>  <r_epik_Charging_Adjusted_Penalty>  (234) 
0

>  <i_epik_Tot_Q>  (234) 
0

>  <i_epik_Tot_abs_Q>  (234) 
0

>  <s_lp_Force_Field>  (234) 
OPLS3e

>  <r_lp_Energy>  (234) 
80.1802

>  <b_lp_Chiralities_Consistent>  (234) 
1

>  <s_lp_Variant>  (234) 
67:0-1

>  <s_i_glide_gridfile>  (234) 
pfpi4k_grid

>  <i_i_glide_lignum>  (234) 
8

>  <i_i_glide_rotatable_bonds>  (234) 
2

>  <r_i_docking_score>  (234) 
-2.60485

>  <r_i_glide_ligand_efficiency>  (234) 
-0.0898225

>  <r_i_glide_ligand_efficiency_sa>  (234) 
-0.275963

>  <r_i_glide_ligand_efficiency_ln>  (234) 
-0.596445

>  <r_i_glide_gscore>  (234) 
-2.60485

>  <r_i_glide_lipo>  (234) 
-0.66947

>  <r_i_glide_hbond>  (234) 
0

>  <r_i_glide_metal>  (234) 
-0

>  <r_i_glide_rewards>  (234) 
-0.691513

>  <r_i_glide_evdw>  (234) 
-21.8889

>  <r_i_glide_ecoul>  (234) 
-0.728932

>  <r_i_glide_erotb>  (234) 
0

>  <r_i_glide_esite>  (234) 
-0.0400841

>  <r_i_glide_emodel>  (234) 
-25.4363

>  <r_i_glide_energy>  (234) 
-22.6179

>  <r_i_glide_einternal>  (234) 
1.02576

>  <r_i_glide_intrahb_reward>  (234) 
-0

>  <i_i_glide_confnum>  (234) 
2

>  <i_i_glide_posenum>  (234) 
15

>  <r_i_glide_eff_state_penalty>  (234) 
0

>  <ligand_id>  (234) 
67

>  <original_smiles>  (234) 
COC12CCC3(C)C(=CCC4C5CCC(=O)C5(C)CCC43)C13CCC2(C(C)C)O3

>  <smiles>  (234) 
[H]C1=C2C34OC(C([H])(C([H])([H])[H])C([H])([H])[H])(C([H])([H])C3([H])[H])C4(OC([H])([H])[H])C([H])([H])C([H])([H])C2(C([H])([H])[H])C2([H])C([H])([H])C([H])([H])C3(C([H])([H])[H])C(=O)C([H])([H])C([H])([H])C3([H])C2([H])C1([H])[H]

$$$$
67:0:1
     RDKit          3D

 67 72  0  0  1  0  0  0  0  0999 V2000
    0.6505   -7.4102    7.2130 C   0  0  0  0  0  0  0  0  0  0  0  0
    0.5754   -6.8328    5.9177 O   0  0  0  0  0  0  0  0  0  0  0  0
    1.3367   -7.5183    4.9059 C   0  0  2  0  0  0  0  0  0  0  0  0
    2.8349   -7.2241    4.9783 C   0  0  0  0  0  0  0  0  0  0  0  0
    3.2020   -5.8174    4.5177 C   0  0  0  0  0  0  0  0  0  0  0  0
    2.3133   -5.1726    3.4153 C   0  0  2  0  0  0  0  0  0  0  0  0
    1.2679   -4.2623    4.1085 C   0  0  0  0  0  0  0  0  0  0  0  0
    1.5666   -6.2854    2.6400 C   0  0  0  0  0  0  0  0  0  0  0  0
    1.8219   -6.5414    1.3539 C   0  0  0  0  0  0  0  0  0  0  0  0
    2.8595   -5.8153    0.5227 C   0  0  0  0  0  0  0  0  0  0  0  0
    3.9244   -5.1159    1.3955 C   0  0  1  0  0  0  0  0  0  0  0  0
    4.9507   -4.3073    0.5519 C   0  0  2  0  0  0  0  0  0  0  0  0
    6.3166   -4.1435    1.2703 C   0  0  0  0  0  0  0  0  0  0  0  0
    7.0257   -2.9767    0.5620 C   0  0  0  0  0  0  0  0  0  0  0  0
    5.8790   -2.1920   -0.0396 C   0  0  0  0  0  0  0  0  0  0  0  0
    6.0412   -1.1129   -0.5977 O   0  0  0  0  0  0  0  0  0  0  0  0
    4.5213   -2.8760    0.1129 C   0  0  1  0  0  0  0  0  0  0  0  0
    3.7729   -2.8282   -1.2218 C   0  0  0  0  0  0  0  0  0  0  0  0
    3.7413   -2.1463    1.2320 C   0  0  0  0  0  0  0  0  0  0  0  0
    2.6491   -3.0021    1.8908 C   0  0  0  0  0  0  0  0  0  0  0  0
    3.2464   -4.2875    2.5117 C   0  0  1  0  0  0  0  0  0  0  0  0
    0.7741   -7.2770    3.4960 C   0  0  2  0  0  0  0  0  0  0  0  0
   -0.7345   -7.3826    3.4157 C   0  0  0  0  0  0  0  0  0  0  0  0
   -0.8398   -8.6627    4.2379 C   0  0  0  0  0  0  0  0  0  0  0  0
    0.6563   -8.8746    4.5425 C   0  0  2  0  0  0  0  0  0  0  0  0
    1.0558  -10.2270    5.2000 C   0  0  0  0  0  0  0  0  0  0  0  0
    2.4960  -10.2834    5.7537 C   0  0  0  0  0  0  0  0  0  0  0  0
    0.8568  -11.4458    4.3026 C   0  0  0  0  0  0  0  0  0  0  0  0
    1.1324   -8.6384    3.2235 O   0  0  0  0  0  0  0  0  0  0  0  0
    0.0808   -6.7808    7.8923 H   0  0  0  0  0  0  0  0  0  0  0  0
    1.6790   -7.4619    7.5766 H   0  0  0  0  0  0  0  0  0  0  0  0
    0.2117   -8.4191    7.2543 H   0  0  0  0  0  0  0  0  0  0  0  0
    3.2712   -7.3577    5.9644 H   0  0  0  0  0  0  0  0  0  0  0  0
    3.3676   -7.8969    4.2926 H   0  0  0  0  0  0  0  0  0  0  0  0
    3.2065   -5.1728    5.4027 H   0  0  0  0  0  0  0  0  0  0  0  0
    4.2436   -5.8643    4.1971 H   0  0  0  0  0  0  0  0  0  0  0  0
    1.7578   -3.4473    4.6500 H   0  0  0  0  0  0  0  0  0  0  0  0
    0.6549   -4.7901    4.8351 H   0  0  0  0  0  0  0  0  0  0  0  0
    0.5779   -3.8328    3.3796 H   0  0  0  0  0  0  0  0  0  0  0  0
    1.3310   -7.3835    0.8643 H   0  0  0  0  0  0  0  0  0  0  0  0
    3.3949   -6.5442   -0.0935 H   0  0  0  0  0  0  0  0  0  0  0  0
    2.3419   -5.1303   -0.1445 H   0  0  0  0  0  0  0  0  0  0  0  0
    4.4912   -5.9137    1.8732 H   0  0  0  0  0  0  0  0  0  0  0  0
    5.1637   -4.8645   -0.3617 H   0  0  0  0  0  0  0  0  0  0  0  0
    6.1818   -3.8691    2.3166 H   0  0  0  0  0  0  0  0  0  0  0  0
    6.9106   -5.0562    1.2293 H   0  0  0  0  0  0  0  0  0  0  0  0
    7.6054   -2.3646    1.2467 H   0  0  0  0  0  0  0  0  0  0  0  0
    7.6730   -3.3226   -0.2353 H   0  0  0  0  0  0  0  0  0  0  0  0
    2.7819   -3.2686   -1.1765 H   0  0  0  0  0  0  0  0  0  0  0  0
    4.3191   -3.3435   -2.0077 H   0  0  0  0  0  0  0  0  0  0  0  0
    3.6250   -1.8101   -1.5731 H   0  0  0  0  0  0  0  0  0  0  0  0
    4.4179   -1.7850    2.0119 H   0  0  0  0  0  0  0  0  0  0  0  0
    3.2626   -1.2500    0.8209 H   0  0  0  0  0  0  0  0  0  0  0  0
    2.1699   -2.3775    2.6467 H   0  0  0  0  0  0  0  0  0  0  0  0
    1.8837   -3.2481    1.1539 H   0  0  0  0  0  0  0  0  0  0  0  0
    4.0365   -3.9272    3.1670 H   0  0  0  0  0  0  0  0  0  0  0  0
   -1.2442   -6.5427    3.8815 H   0  0  0  0  0  0  0  0  0  0  0  0
   -1.1019   -7.5119    2.4000 H   0  0  0  0  0  0  0  0  0  0  0  0
   -1.4481   -8.5364    5.1386 H   0  0  0  0  0  0  0  0  0  0  0  0
   -1.2784   -9.4589    3.6495 H   0  0  0  0  0  0  0  0  0  0  0  0
    0.4098  -10.3891    6.0673 H   0  0  0  0  0  0  0  0  0  0  0  0
    3.2217  -10.1145    4.9421 H   0  0  0  0  0  0  0  0  0  0  0  0
    2.7260  -11.2566    6.1799 H   0  0  0  0  0  0  0  0  0  0  0  0
    2.6224   -9.5522    6.5442 H   0  0  0  0  0  0  0  0  0  0  0  0
    1.4718  -11.4231    3.4045 H   0  0  0  0  0  0  0  0  0  0  0  0
   -0.1886  -11.5434    3.9882 H   0  0  0  0  0  0  0  0  0  0  0  0
    1.0966  -12.3537    4.8518 H   0  0  0  0  0  0  0  0  0  0  0  0
  1  2  1  0
  1 30  1  0
  1 31  1  0
  1 32  1  0
  3  2  1  1
  3 22  1  0
  3 25  1  0
  3  4  1  0
  4  5  1  0
  4 33  1  0
  4 34  1  0
  5  6  1  0
  5 35  1  0
  5 36  1  0
  6 21  1  0
  6  7  1  1
  6  8  1  0
  7 37  1  0
  7 38  1  0
  7 39  1  0
  8  9  2  0
 22  8  1  6
  9 10  1  0
  9 40  1  0
 10 11  1  0
 10 41  1  0
 10 42  1  0
 11 21  1  0
 11 12  1  0
 11 43  1  1
 12 17  1  0
 12 13  1  0
 12 44  1  6
 13 14  1  0
 13 45  1  0
 13 46  1  0
 14 15  1  0
 14 47  1  0
 14 48  1  0
 15 16  2  0
 15 17  1  0
 17 18  1  6
 17 19  1  0
 18 49  1  0
 18 50  1  0
 18 51  1  0
 19 20  1  0
 19 52  1  0
 19 53  1  0
 20 21  1  0
 20 54  1  0
 20 55  1  0
 21 56  1  1
 22 29  1  0
 22 23  1  0
 23 24  1  0
 23 57  1  0
 23 58  1  0
 24 25  1  0
 24 59  1  0
 24 60  1  0
 25 26  1  1
 25 29  1  0
 26 27  1  0
 26 28  1  0
 26 61  1  0
 27 62  1  0
 27 63  1  0
 27 64  1  0
 28 65  1  0
 28 66  1  0
 28 67  1  0
M  END
>  <i_m_ct_stereo_status>  (235) 
1

>  <s_m_source_file>  (235) 
/var/tmp/pbs.5076255.sched01/tmprcd7yfff/907v12ihtf.sdf

>  <i_m_source_file_index>  (235) 
8

>  <i_lp_mmshare_version>  (235) 
48012

>  <i_f3d_flags>  (235) 
0

>  <s_epik_input>  (235) 
W0NIMl0xW0NIMl1bQ0BdKE8yKShbQ0hdKFtDSDNdKVtDSDNdKVtDQEBdKFtDQF0xMjMpKE9bQ0gzXSlbQ0gyXVtDSDJdW0NAXTQoW0NIM10pQzM9W0NIXVtDSDJdW0NASF01W0NASF02W0NAXShbQ0gzXSkoQyg9TylbQ0gyXVtDSDJdNilbQ0gyXVtDSDJdW0NAQEhdNDU=

>  <s_epik_cmdline>  (235) 
J2VwaWtfcHl0aG9uJywgJy1waHQnLCAnMi4wJywgJy1waCcsICc3LjAnLCAnLXRuJywgJzgnLCAnLW1hJywgJzIwMCcsICctaW1hZScsICc8aW5maWxlLm1hZT4nLCAnLW9tYWUnLCAnPG91dGZpbGUubWFlPic=

>  <r_lp_tautomer_probability>  (235) 
1

>  <r_epik_Ionization_Penalty>  (235) 
9.08541e-12

>  <r_epik_Ionization_Penalty_Charging>  (235) 
0

>  <r_epik_Ionization_Penalty_Neutral>  (235) 
9.08541e-12

>  <r_epik_State_Penalty>  (235) 
-0

>  <r_epik_Charging_Adjusted_Penalty>  (235) 
0

>  <i_epik_Tot_Q>  (235) 
0

>  <i_epik_Tot_abs_Q>  (235) 
0

>  <s_lp_Force_Field>  (235) 
OPLS3e

>  <r_lp_Energy>  (235) 
80.1802

>  <b_lp_Chiralities_Consistent>  (235) 
1

>  <s_lp_Variant>  (235) 
67:0-1

>  <s_i_glide_gridfile>  (235) 
pfpi4k_grid

>  <i_i_glide_lignum>  (235) 
8

>  <i_i_glide_rotatable_bonds>  (235) 
2

>  <r_i_docking_score>  (235) 
-2.4313

>  <r_i_glide_ligand_efficiency>  (235) 
-0.0838378

>  <r_i_glide_ligand_efficiency_sa>  (235) 
-0.257576

>  <r_i_glide_ligand_efficiency_ln>  (235) 
-0.556705

>  <r_i_glide_gscore>  (235) 
-2.4313

>  <r_i_glide_lipo>  (235) 
-0.310202

>  <r_i_glide_hbond>  (235) 
-0.0693363

>  <r_i_glide_metal>  (235) 
-0

>  <r_i_glide_rewards>  (235) 
-0.691513

>  <r_i_glide_evdw>  (235) 
-22.8106

>  <r_i_glide_ecoul>  (235) 
-1.45391

>  <r_i_glide_erotb>  (235) 
0

>  <r_i_glide_esite>  (235) 
-0.00163117

>  <r_i_glide_emodel>  (235) 
-26.9835

>  <r_i_glide_energy>  (235) 
-24.2645

>  <r_i_glide_einternal>  (235) 
1.73335

>  <r_i_glide_intrahb_reward>  (235) 
-0

>  <i_i_glide_confnum>  (235) 
2

>  <i_i_glide_posenum>  (235) 
6

>  <r_i_glide_eff_state_penalty>  (235) 
0

>  <ligand_id>  (235) 
67

>  <original_smiles>  (235) 
COC12CCC3(C)C(=CCC4C5CCC(=O)C5(C)CCC43)C13CCC2(C(C)C)O3

>  <smiles>  (235) 
[H]C1=C2C34OC(C([H])(C([H])([H])[H])C([H])([H])[H])(C([H])([H])C3([H])[H])C4(OC([H])([H])[H])C([H])([H])C([H])([H])C2(C([H])([H])[H])C2([H])C([H])([H])C([H])([H])C3(C([H])([H])[H])C(=O)C([H])([H])C([H])([H])C3([H])C2([H])C1([H])[H]

$$$$
67:0:2
     RDKit          3D

 67 72  0  0  1  0  0  0  0  0999 V2000
   -1.3980   -8.2461    4.4538 C   0  0  0  0  0  0  0  0  0  0  0  0
   -0.2424   -8.2339    3.6397 O   0  0  0  0  0  0  0  0  0  0  0  0
    1.0186   -7.9463    4.2904 C   0  0  2  0  0  0  0  0  0  0  0  0
    1.1320   -6.4942    4.7083 C   0  0  0  0  0  0  0  0  0  0  0  0
    1.2361   -5.5434    3.4932 C   0  0  0  0  0  0  0  0  0  0  0  0
    1.9848   -6.0926    2.2206 C   0  0  2  0  0  0  0  0  0  0  0  0
    0.9337   -6.6330    1.2201 C   0  0  0  0  0  0  0  0  0  0  0  0
    2.9030   -7.2520    2.6400 C   0  0  0  0  0  0  0  0  0  0  0  0
    4.2457   -7.1910    2.5635 C   0  0  0  0  0  0  0  0  0  0  0  0
    5.0202   -5.9678    2.1030 C   0  0  0  0  0  0  0  0  0  0  0  0
    4.1736   -4.6781    2.1773 C   0  0  1  0  0  0  0  0  0  0  0  0
    4.9104   -3.4142    1.6362 C   0  0  2  0  0  0  0  0  0  0  0  0
    4.4020   -2.0912    2.2420 C   0  0  0  0  0  0  0  0  0  0  0  0
    4.8773   -0.9720    1.3156 C   0  0  0  0  0  0  0  0  0  0  0  0
    5.0846   -1.6758   -0.0146 C   0  0  0  0  0  0  0  0  0  0  0  0
    5.4120   -1.0932   -1.0419 O   0  0  0  0  0  0  0  0  0  0  0  0
    4.8878   -3.2008    0.0958 C   0  0  1  0  0  0  0  0  0  0  0  0
    6.0496   -3.9047   -0.6402 C   0  0  0  0  0  0  0  0  0  0  0  0
    3.5186   -3.5893   -0.5187 C   0  0  0  0  0  0  0  0  0  0  0  0
    2.9511   -4.9241    0.0015 C   0  0  0  0  0  0  0  0  0  0  0  0
    2.7807   -4.8994    1.5417 C   0  0  1  0  0  0  0  0  0  0  0  0
    2.2116   -8.3957    3.4261 C   0  0  2  0  0  0  0  0  0  0  0  0
    2.0879   -9.7972    2.8778 C   0  0  0  0  0  0  0  0  0  0  0  0
    1.6028  -10.4265    4.2007 C   0  0  0  0  0  0  0  0  0  0  0  0
    1.5845   -9.1626    5.0798 C   0  0  2  0  0  0  0  0  0  0  0  0
    1.4432   -9.3586    6.6348 C   0  0  0  0  0  0  0  0  0  0  0  0
    0.0571   -9.8596    7.0724 C   0  0  0  0  0  0  0  0  0  0  0  0
    1.7425   -8.0711    7.4307 C   0  0  0  0  0  0  0  0  0  0  0  0
    2.8901   -8.6946    4.6730 O   0  0  0  0  0  0  0  0  0  0  0  0
   -2.3018   -8.4163    3.8725 H   0  0  0  0  0  0  0  0  0  0  0  0
   -1.5229   -7.3390    5.0313 H   0  0  0  0  0  0  0  0  0  0  0  0
   -1.3623   -9.0387    5.1403 H   0  0  0  0  0  0  0  0  0  0  0  0
    0.3189   -6.1938    5.3677 H   0  0  0  0  0  0  0  0  0  0  0  0
    2.0496   -6.3591    5.2969 H   0  0  0  0  0  0  0  0  0  0  0  0
    0.2239   -5.2502    3.2243 H   0  0  0  0  0  0  0  0  0  0  0  0
    1.7110   -4.6360    3.8603 H   0  0  0  0  0  0  0  0  0  0  0  0
    0.2816   -5.8547    0.8285 H   0  0  0  0  0  0  0  0  0  0  0  0
    0.2832   -7.3960    1.6191 H   0  0  0  0  0  0  0  0  0  0  0  0
    1.4158   -7.0905    0.3727 H   0  0  0  0  0  0  0  0  0  0  0  0
    4.8445   -8.0106    2.9304 H   0  0  0  0  0  0  0  0  0  0  0  0
    5.8906   -5.8519    2.7472 H   0  0  0  0  0  0  0  0  0  0  0  0
    5.4106   -6.1651    1.1119 H   0  0  0  0  0  0  0  0  0  0  0  0
    4.0205   -4.4969    3.2400 H   0  0  0  0  0  0  0  0  0  0  0  0
    5.9567   -3.4849    1.9399 H   0  0  0  0  0  0  0  0  0  0  0  0
    3.3157   -2.0731    2.2817 H   0  0  0  0  0  0  0  0  0  0  0  0
    4.7680   -1.9497    3.2552 H   0  0  0  0  0  0  0  0  0  0  0  0
    4.1601   -0.1529    1.2303 H   0  0  0  0  0  0  0  0  0  0  0  0
    5.8345   -0.5677    1.6462 H   0  0  0  0  0  0  0  0  0  0  0  0
    5.9327   -4.9876   -0.6113 H   0  0  0  0  0  0  0  0  0  0  0  0
    7.0197   -3.6564   -0.1978 H   0  0  0  0  0  0  0  0  0  0  0  0
    6.0957   -3.6227   -1.6983 H   0  0  0  0  0  0  0  0  0  0  0  0
    2.7850   -2.8094   -0.3190 H   0  0  0  0  0  0  0  0  0  0  0  0
    3.5969   -3.6296   -1.6071 H   0  0  0  0  0  0  0  0  0  0  0  0
    1.9979   -5.0583   -0.5052 H   0  0  0  0  0  0  0  0  0  0  0  0
    3.5817   -5.7569   -0.3103 H   0  0  0  0  0  0  0  0  0  0  0  0
    2.1927   -4.0034    1.7290 H   0  0  0  0  0  0  0  0  0  0  0  0
    1.3478   -9.8724    2.0776 H   0  0  0  0  0  0  0  0  0  0  0  0
    3.0354  -10.2156    2.5295 H   0  0  0  0  0  0  0  0  0  0  0  0
    0.6144  -10.8759    4.1026 H   0  0  0  0  0  0  0  0  0  0  0  0
    2.2997  -11.1882    4.5496 H   0  0  0  0  0  0  0  0  0  0  0  0
    2.1872  -10.1051    6.9425 H   0  0  0  0  0  0  0  0  0  0  0  0
   -0.6947   -9.0924    6.9629 H   0  0  0  0  0  0  0  0  0  0  0  0
    0.0567  -10.1359    8.1215 H   0  0  0  0  0  0  0  0  0  0  0  0
   -0.2031  -10.7493    6.4989 H   0  0  0  0  0  0  0  0  0  0  0  0
    1.0316   -7.2750    7.2216 H   0  0  0  0  0  0  0  0  0  0  0  0
    2.7483   -7.6948    7.2378 H   0  0  0  0  0  0  0  0  0  0  0  0
    1.6546   -8.2530    8.4983 H   0  0  0  0  0  0  0  0  0  0  0  0
  1  2  1  0
  1 30  1  0
  1 31  1  0
  1 32  1  0
  3  2  1  6
  3 22  1  0
  3 25  1  0
  3  4  1  0
  4  5  1  0
  4 33  1  0
  4 34  1  0
  5  6  1  0
  5 35  1  0
  5 36  1  0
  6 21  1  0
  6  7  1  6
  6  8  1  0
  7 37  1  0
  7 38  1  0
  7 39  1  0
  8  9  2  0
 22  8  1  6
  9 10  1  0
  9 40  1  0
 10 11  1  0
 10 41  1  0
 10 42  1  0
 11 21  1  0
 11 12  1  0
 11 43  1  1
 12 17  1  0
 12 13  1  0
 12 44  1  1
 13 14  1  0
 13 45  1  0
 13 46  1  0
 14 15  1  0
 14 47  1  0
 14 48  1  0
 15 16  2  0
 15 17  1  0
 17 18  1  6
 17 19  1  0
 18 49  1  0
 18 50  1  0
 18 51  1  0
 19 20  1  0
 19 52  1  0
 19 53  1  0
 20 21  1  0
 20 54  1  0
 20 55  1  0
 21 56  1  6
 22 29  1  0
 22 23  1  0
 23 24  1  0
 23 57  1  0
 23 58  1  0
 24 25  1  0
 24 59  1  0
 24 60  1  0
 25 26  1  1
 25 29  1  0
 26 27  1  0
 26 28  1  0
 26 61  1  0
 27 62  1  0
 27 63  1  0
 27 64  1  0
 28 65  1  0
 28 66  1  0
 28 67  1  0
M  END
>  <i_m_ct_stereo_status>  (236) 
1

>  <s_m_source_file>  (236) 
/var/tmp/pbs.5076255.sched01/tmprcd7yfff/907v12ihtf.sdf

>  <i_m_source_file_index>  (236) 
8

>  <i_lp_mmshare_version>  (236) 
48012

>  <i_f3d_flags>  (236) 
0

>  <s_epik_input>  (236) 
W0NIMl0xW0NIMl1bQ0BdKE8yKShbQ0hdKFtDSDNdKVtDSDNdKVtDQEBdKFtDQF0xMjMpKE9bQ0gzXSlbQ0gyXVtDSDJdW0NAXTQoW0NIM10pQzM9W0NIXVtDSDJdW0NASF01W0NASF02W0NAXShbQ0gzXSkoQyg9TylbQ0gyXVtDSDJdNilbQ0gyXVtDSDJdW0NAQEhdNDU=

>  <s_epik_cmdline>  (236) 
J2VwaWtfcHl0aG9uJywgJy1waHQnLCAnMi4wJywgJy1waCcsICc3LjAnLCAnLXRuJywgJzgnLCAnLW1hJywgJzIwMCcsICctaW1hZScsICc8aW5maWxlLm1hZT4nLCAnLW9tYWUnLCAnPG91dGZpbGUubWFlPic=

>  <r_lp_tautomer_probability>  (236) 
1

>  <r_epik_Ionization_Penalty>  (236) 
9.08541e-12

>  <r_epik_Ionization_Penalty_Charging>  (236) 
0

>  <r_epik_Ionization_Penalty_Neutral>  (236) 
9.08541e-12

>  <r_epik_State_Penalty>  (236) 
-0

>  <r_epik_Charging_Adjusted_Penalty>  (236) 
0

>  <i_epik_Tot_Q>  (236) 
0

>  <i_epik_Tot_abs_Q>  (236) 
0

>  <s_lp_Force_Field>  (236) 
OPLS3e

>  <r_lp_Energy>  (236) 
80.1802

>  <b_lp_Chiralities_Consistent>  (236) 
1

>  <s_lp_Variant>  (236) 
67:0-1

>  <s_i_glide_gridfile>  (236) 
pfpi4k_grid

>  <i_i_glide_lignum>  (236) 
8

>  <i_i_glide_rotatable_bonds>  (236) 
2

>  <r_i_docking_score>  (236) 
-2.27879

>  <r_i_glide_ligand_efficiency>  (236) 
-0.0785791

>  <r_i_glide_ligand_efficiency_sa>  (236) 
-0.24142

>  <r_i_glide_ligand_efficiency_ln>  (236) 
-0.521786

>  <r_i_glide_gscore>  (236) 
-2.27879

>  <r_i_glide_lipo>  (236) 
-0.308478

>  <r_i_glide_hbond>  (236) 
0

>  <r_i_glide_metal>  (236) 
-0

>  <r_i_glide_rewards>  (236) 
-0.691513

>  <r_i_glide_evdw>  (236) 
-23.6831

>  <r_i_glide_ecoul>  (236) 
-0.623205

>  <r_i_glide_erotb>  (236) 
0

>  <r_i_glide_esite>  (236) 
-0.00116696

>  <r_i_glide_emodel>  (236) 
-26.9071

>  <r_i_glide_energy>  (236) 
-24.3063

>  <r_i_glide_einternal>  (236) 
0.988344

>  <r_i_glide_intrahb_reward>  (236) 
-0

>  <i_i_glide_confnum>  (236) 
1

>  <i_i_glide_posenum>  (236) 
27

>  <r_i_glide_eff_state_penalty>  (236) 
0

>  <ligand_id>  (236) 
67

>  <original_smiles>  (236) 
COC12CCC3(C)C(=CCC4C5CCC(=O)C5(C)CCC43)C13CCC2(C(C)C)O3

>  <smiles>  (236) 
[H]C1=C2C34OC(C([H])(C([H])([H])[H])C([H])([H])[H])(C([H])([H])C3([H])[H])C4(OC([H])([H])[H])C([H])([H])C([H])([H])C2(C([H])([H])[H])C2([H])C([H])([H])C([H])([H])C3(C([H])([H])[H])C(=O)C([H])([H])C([H])([H])C3([H])C2([H])C1([H])[H]

$$$$
68:0:0
     RDKit          3D

 40 43  0  0  1  0  0  0  0  0999 V2000
   -3.0006    2.9722    7.2507 C   0  0  0  0  0  0  0  0  0  0  0  0
   -1.5877    2.6595    7.6813 C   0  0  0  0  0  0  0  0  0  0  0  0
   -0.7333    2.1773    6.6430 O   0  0  0  0  0  0  0  0  0  0  0  0
   -0.8892    0.9209    6.1430 C   0  0  0  0  0  0  0  0  0  0  0  0
   -1.7887    0.1506    6.4804 O   0  0  0  0  0  0  0  0  0  0  0  0
    0.1106    0.6186    5.2182 N   0  0  0  0  0  0  0  0  0  0  0  0
    1.1262    1.5617    4.7024 C   0  0  0  0  0  0  0  0  0  0  0  0
    2.0531    0.5895    3.9912 C   0  0  2  0  0  0  0  0  0  0  0  0
    3.0088    0.8571    2.8348 C   0  0  0  0  0  0  0  0  0  0  0  0
    3.0727   -0.4760    2.2101 N   0  0  0  0  0  0  0  0  0  0  0  0
    4.1402   -0.8721    1.3695 C   0  0  0  0  0  0  0  0  0  0  0  0
    3.8427   -1.3844    0.0915 C   0  0  0  0  0  0  0  0  0  0  0  0
    4.9204   -1.6862   -0.7542 C   0  0  0  0  0  0  0  0  0  0  0  0
    6.2019   -1.5054   -0.3640 N   0  0  0  0  0  0  0  0  0  0  0  0
    6.3761   -1.0567    0.8809 C   0  0  0  0  0  0  0  0  0  0  0  0
    5.4254   -0.7173    1.7539 N   0  0  0  0  0  0  0  0  0  0  0  0
    2.0490   -1.2552    2.6206 C   0  0  0  0  0  0  0  0  0  0  0  0
    1.8927   -2.4682    2.4419 O   0  0  0  0  0  0  0  0  0  0  0  0
    1.0788   -0.3532    3.3645 C   0  0  1  0  0  0  0  0  0  0  0  0
    0.2092   -0.7028    4.5625 C   0  0  0  0  0  0  0  0  0  0  0  0
   -0.8721    3.5527    8.6720 C   0  0  0  0  0  0  0  0  0  0  0  0
   -1.2593    2.1461    9.0666 C   0  0  0  0  0  0  0  0  0  0  0  0
   -3.5780    3.3405    8.0982 H   0  0  0  0  0  0  0  0  0  0  0  0
   -3.4999    2.0845    6.8778 H   0  0  0  0  0  0  0  0  0  0  0  0
   -2.9990    3.7324    6.4712 H   0  0  0  0  0  0  0  0  0  0  0  0
    0.6908    2.2705    3.9928 H   0  0  0  0  0  0  0  0  0  0  0  0
    1.6386    2.1115    5.4942 H   0  0  0  0  0  0  0  0  0  0  0  0
    2.6308    0.0791    4.7718 H   0  0  0  0  0  0  0  0  0  0  0  0
    2.5897    1.5676    2.1210 H   0  0  0  0  0  0  0  0  0  0  0  0
    3.9850    1.1983    3.1798 H   0  0  0  0  0  0  0  0  0  0  0  0
    2.8189   -1.4937   -0.2361 H   0  0  0  0  0  0  0  0  0  0  0  0
    4.7661   -2.0531   -1.7614 H   0  0  0  0  0  0  0  0  0  0  0  0
    7.4011   -0.9557    1.1987 H   0  0  0  0  0  0  0  0  0  0  0  0
    0.4774    0.1698    2.6163 H   0  0  0  0  0  0  0  0  0  0  0  0
    0.6680   -1.4330    5.2335 H   0  0  0  0  0  0  0  0  0  0  0  0
   -0.7653   -1.0744    4.2507 H   0  0  0  0  0  0  0  0  0  0  0  0
    0.1870    3.7492    8.5248 H   0  0  0  0  0  0  0  0  0  0  0  0
   -1.4398    4.3711    9.1165 H   0  0  0  0  0  0  0  0  0  0  0  0
   -2.0917    2.0221    9.7602 H   0  0  0  0  0  0  0  0  0  0  0  0
   -0.4570    1.4189    9.1638 H   0  0  0  0  0  0  0  0  0  0  0  0
  1  2  1  0
  1 23  1  0
  1 24  1  0
  1 25  1  0
  2 22  1  0
  2  3  1  0
  2 21  1  0
  3  4  1  0
  4  5  2  0
  4  6  1  0
  6 20  1  0
  6  7  1  0
  7  8  1  0
  7 26  1  0
  7 27  1  0
  8 19  1  0
  8  9  1  0
  8 28  1  1
  9 10  1  0
  9 29  1  0
  9 30  1  0
 10 11  1  0
 10 17  1  0
 11 16  1  0
 11 12  2  0
 12 13  1  0
 12 31  1  0
 13 14  2  0
 13 32  1  0
 14 15  1  0
 15 16  2  0
 15 33  1  0
 17 18  2  0
 17 19  1  0
 19 20  1  0
 19 34  1  6
 20 35  1  0
 20 36  1  0
 21 22  1  0
 21 37  1  0
 21 38  1  0
 22 39  1  0
 22 40  1  0
M  END
>  <i_m_ct_stereo_status>  (237) 
1

>  <s_m_source_file>  (237) 
/var/tmp/pbs.5076255.sched01/tmprcd7yfff/907v12ihtf.sdf

>  <i_m_source_file_index>  (237) 
9

>  <i_lp_mmshare_version>  (237) 
48012

>  <i_f3d_flags>  (237) 
0

>  <s_epik_input>  (237) 
W0NIMl0xW0NIMl1DMShbQ0gzXSlPQyg9TylOKFtDSDJdMilbQ0gyXVtDQEBIXShbQ0BIXTIzKUMoPU8pTihbQ0gyXTMpYzRbY0hdW2NIXW5bY0hdbjQ=

>  <s_epik_cmdline>  (237) 
J2VwaWtfcHl0aG9uJywgJy1waHQnLCAnMi4wJywgJy1waCcsICc3LjAnLCAnLXRuJywgJzgnLCAnLW1hJywgJzIwMCcsICctaW1hZScsICc8aW5maWxlLm1hZT4nLCAnLW9tYWUnLCAnPG91dGZpbGUubWFlPic=

>  <r_lp_tautomer_probability>  (237) 
1

>  <r_epik_Ionization_Penalty>  (237) 
2.56759e-06

>  <r_epik_Ionization_Penalty_Charging>  (237) 
0

>  <r_epik_Ionization_Penalty_Neutral>  (237) 
2.56759e-06

>  <r_epik_State_Penalty>  (237) 
-0

>  <r_epik_Charging_Adjusted_Penalty>  (237) 
0

>  <i_epik_Tot_Q>  (237) 
0

>  <i_epik_Tot_abs_Q>  (237) 
0

>  <s_epik_Chemistry_Notes>  (237) 
This compound has an ester and may undergo hydrolysis at high or low pH.

>  <s_lp_Force_Field>  (237) 
OPLS3e

>  <r_lp_Energy>  (237) 
47.5035

>  <b_lp_Chiralities_Consistent>  (237) 
1

>  <s_lp_Variant>  (237) 
68:0-1

>  <s_i_glide_gridfile>  (237) 
pfpi4k_grid

>  <i_i_glide_lignum>  (237) 
9

>  <i_i_glide_rotatable_bonds>  (237) 
4

>  <r_i_docking_score>  (237) 
-3.25016

>  <r_i_glide_ligand_efficiency>  (237) 
-0.147734

>  <r_i_glide_ligand_efficiency_sa>  (237) 
-0.413958

>  <r_i_glide_ligand_efficiency_ln>  (237) 
-0.794457

>  <r_i_glide_gscore>  (237) 
-3.25016

>  <r_i_glide_lipo>  (237) 
-0.238618

>  <r_i_glide_hbond>  (237) 
-0.217565

>  <r_i_glide_metal>  (237) 
-0

>  <r_i_glide_rewards>  (237) 
-1.4382

>  <r_i_glide_evdw>  (237) 
-23.0586

>  <r_i_glide_ecoul>  (237) 
-6.25047

>  <r_i_glide_erotb>  (237) 
0.805687

>  <r_i_glide_esite>  (237) 
-0.0709634

>  <r_i_glide_emodel>  (237) 
-34.1974

>  <r_i_glide_energy>  (237) 
-29.309

>  <r_i_glide_einternal>  (237) 
3.40015

>  <r_i_glide_intrahb_reward>  (237) 
-0

>  <i_i_glide_confnum>  (237) 
6

>  <i_i_glide_posenum>  (237) 
38

>  <r_i_glide_eff_state_penalty>  (237) 
0

>  <ligand_id>  (237) 
68

>  <original_smiles>  (237) 
CC1(OC(=O)N2CC3CN(c4ccncn4)C(=O)C3C2)CC1

>  <smiles>  (237) 
[H]c1nc([H])c([H])c(N2C(=O)C3([H])C([H])([H])N(C(=O)OC4(C([H])([H])[H])C([H])([H])C4([H])[H])C([H])([H])C3([H])C2([H])[H])n1

$$$$
68:0:1
     RDKit          3D

 40 43  0  0  1  0  0  0  0  0999 V2000
    5.7473   -2.7821   -0.3284 C   0  0  0  0  0  0  0  0  0  0  0  0
    4.3921   -2.2310   -0.7354 C   0  0  0  0  0  0  0  0  0  0  0  0
    3.6395   -1.6062    0.3067 O   0  0  0  0  0  0  0  0  0  0  0  0
    3.0120   -2.3601    1.2452 C   0  0  0  0  0  0  0  0  0  0  0  0
    3.1228   -3.5864    1.3229 O   0  0  0  0  0  0  0  0  0  0  0  0
    2.2420   -1.5687    2.0985 N   0  0  0  0  0  0  0  0  0  0  0  0
    2.1089   -0.0926    2.0310 C   0  0  0  0  0  0  0  0  0  0  0  0
    0.9178    0.1113    2.9516 C   0  0  2  0  0  0  0  0  0  0  0  0
    0.4981    1.3465    3.7447 C   0  0  0  0  0  0  0  0  0  0  0  0
   -0.2905    0.7108    4.8305 N   0  0  0  0  0  0  0  0  0  0  0  0
   -1.1410    1.4198    5.7253 C   0  0  0  0  0  0  0  0  0  0  0  0
   -1.7997    2.5786    5.2661 C   0  0  0  0  0  0  0  0  0  0  0  0
   -2.6058    3.2647    6.1860 C   0  0  0  0  0  0  0  0  0  0  0  0
   -2.7366    2.8710    7.4664 N   0  0  0  0  0  0  0  0  0  0  0  0
   -2.0584    1.7863    7.8145 C   0  0  0  0  0  0  0  0  0  0  0  0
   -1.3123    1.0284    7.0145 N   0  0  0  0  0  0  0  0  0  0  0  0
    0.0299   -0.5985    4.9430 C   0  0  0  0  0  0  0  0  0  0  0  0
   -0.5176   -1.4557    5.6459 O   0  0  0  0  0  0  0  0  0  0  0  0
    1.2164   -0.8677    4.0396 C   0  0  1  0  0  0  0  0  0  0  0  0
    1.4833   -2.1277    3.2351 C   0  0  0  0  0  0  0  0  0  0  0  0
    4.2061   -1.5366   -2.0672 C   0  0  0  0  0  0  0  0  0  0  0  0
    3.5380   -2.8673   -1.8138 C   0  0  0  0  0  0  0  0  0  0  0  0
    6.2379   -3.2310   -1.1915 H   0  0  0  0  0  0  0  0  0  0  0  0
    5.6418   -3.5559    0.4292 H   0  0  0  0  0  0  0  0  0  0  0  0
    6.3852   -1.9913    0.0602 H   0  0  0  0  0  0  0  0  0  0  0  0
    2.9996    0.4132    2.4128 H   0  0  0  0  0  0  0  0  0  0  0  0
    1.8933    0.2518    1.0172 H   0  0  0  0  0  0  0  0  0  0  0  0
    0.0349   -0.2038    2.3868 H   0  0  0  0  0  0  0  0  0  0  0  0
    1.3709    1.8494    4.1629 H   0  0  0  0  0  0  0  0  0  0  0  0
   -0.0623    2.0576    3.1323 H   0  0  0  0  0  0  0  0  0  0  0  0
   -1.7092    2.9166    4.2464 H   0  0  0  0  0  0  0  0  0  0  0  0
   -3.1657    4.1411    5.8933 H   0  0  0  0  0  0  0  0  0  0  0  0
   -2.1656    1.4494    8.8337 H   0  0  0  0  0  0  0  0  0  0  0  0
    2.1246   -0.5707    4.5707 H   0  0  0  0  0  0  0  0  0  0  0  0
    0.5720   -2.6234    2.8966 H   0  0  0  0  0  0  0  0  0  0  0  0
    2.0739   -2.8454    3.8037 H   0  0  0  0  0  0  0  0  0  0  0  0
    3.5563   -0.6643   -2.1122 H   0  0  0  0  0  0  0  0  0  0  0  0
    5.0525   -1.5225   -2.7523 H   0  0  0  0  0  0  0  0  0  0  0  0
    3.9402   -3.7588   -2.2954 H   0  0  0  0  0  0  0  0  0  0  0  0
    2.4586   -2.8620   -1.6747 H   0  0  0  0  0  0  0  0  0  0  0  0
  1  2  1  0
  1 23  1  0
  1 24  1  0
  1 25  1  0
  2 22  1  0
  2  3  1  0
  2 21  1  0
  3  4  1  0
  4  5  2  0
  4  6  1  0
  6 20  1  0
  6  7  1  0
  7  8  1  0
  7 26  1  0
  7 27  1  0
  8 19  1  0
  8  9  1  0
  8 28  1  6
  9 10  1  0
  9 29  1  0
  9 30  1  0
 10 11  1  0
 10 17  1  0
 11 16  1  0
 11 12  2  0
 12 13  1  0
 12 31  1  0
 13 14  2  0
 13 32  1  0
 14 15  1  0
 15 16  2  0
 15 33  1  0
 17 18  2  0
 17 19  1  0
 19 20  1  0
 19 34  1  1
 20 35  1  0
 20 36  1  0
 21 22  1  0
 21 37  1  0
 21 38  1  0
 22 39  1  0
 22 40  1  0
M  END
>  <i_m_ct_stereo_status>  (238) 
1

>  <s_m_source_file>  (238) 
/var/tmp/pbs.5076255.sched01/tmprcd7yfff/907v12ihtf.sdf

>  <i_m_source_file_index>  (238) 
9

>  <i_lp_mmshare_version>  (238) 
48012

>  <i_f3d_flags>  (238) 
0

>  <s_epik_input>  (238) 
W0NIMl0xW0NIMl1DMShbQ0gzXSlPQyg9TylOKFtDSDJdMilbQ0gyXVtDQEBIXShbQ0BIXTIzKUMoPU8pTihbQ0gyXTMpYzRbY0hdW2NIXW5bY0hdbjQ=

>  <s_epik_cmdline>  (238) 
J2VwaWtfcHl0aG9uJywgJy1waHQnLCAnMi4wJywgJy1waCcsICc3LjAnLCAnLXRuJywgJzgnLCAnLW1hJywgJzIwMCcsICctaW1hZScsICc8aW5maWxlLm1hZT4nLCAnLW9tYWUnLCAnPG91dGZpbGUubWFlPic=

>  <r_lp_tautomer_probability>  (238) 
1

>  <r_epik_Ionization_Penalty>  (238) 
2.56759e-06

>  <r_epik_Ionization_Penalty_Charging>  (238) 
0

>  <r_epik_Ionization_Penalty_Neutral>  (238) 
2.56759e-06

>  <r_epik_State_Penalty>  (238) 
-0

>  <r_epik_Charging_Adjusted_Penalty>  (238) 
0

>  <i_epik_Tot_Q>  (238) 
0

>  <i_epik_Tot_abs_Q>  (238) 
0

>  <s_epik_Chemistry_Notes>  (238) 
This compound has an ester and may undergo hydrolysis at high or low pH.

>  <s_lp_Force_Field>  (238) 
OPLS3e

>  <r_lp_Energy>  (238) 
47.5035

>  <b_lp_Chiralities_Consistent>  (238) 
1

>  <s_lp_Variant>  (238) 
68:0-1

>  <s_i_glide_gridfile>  (238) 
pfpi4k_grid

>  <i_i_glide_lignum>  (238) 
9

>  <i_i_glide_rotatable_bonds>  (238) 
4

>  <r_i_docking_score>  (238) 
-2.68349

>  <r_i_glide_ligand_efficiency>  (238) 
-0.121977

>  <r_i_glide_ligand_efficiency_sa>  (238) 
-0.341784

>  <r_i_glide_ligand_efficiency_ln>  (238) 
-0.655943

>  <r_i_glide_gscore>  (238) 
-2.68349

>  <r_i_glide_lipo>  (238) 
-0.155415

>  <r_i_glide_hbond>  (238) 
-0.0813493

>  <r_i_glide_metal>  (238) 
-0

>  <r_i_glide_rewards>  (238) 
-1.34776

>  <r_i_glide_evdw>  (238) 
-26.5633

>  <r_i_glide_ecoul>  (238) 
-2.96501

>  <r_i_glide_erotb>  (238) 
0.805687

>  <r_i_glide_esite>  (238) 
-0.131736

>  <r_i_glide_emodel>  (238) 
-34.4948

>  <r_i_glide_energy>  (238) 
-29.5283

>  <r_i_glide_einternal>  (238) 
1.23276

>  <r_i_glide_intrahb_reward>  (238) 
-0

>  <i_i_glide_confnum>  (238) 
3

>  <i_i_glide_posenum>  (238) 
16

>  <r_i_glide_eff_state_penalty>  (238) 
0

>  <ligand_id>  (238) 
68

>  <original_smiles>  (238) 
CC1(OC(=O)N2CC3CN(c4ccncn4)C(=O)C3C2)CC1

>  <smiles>  (238) 
[H]c1nc([H])c([H])c(N2C(=O)C3([H])C([H])([H])N(C(=O)OC4(C([H])([H])[H])C([H])([H])C4([H])[H])C([H])([H])C3([H])C2([H])[H])n1

$$$$
68:0:2
     RDKit          3D

 40 43  0  0  1  0  0  0  0  0999 V2000
    3.3354   -2.9516   -1.8380 C   0  0  0  0  0  0  0  0  0  0  0  0
    4.2451   -2.3049   -0.8118 C   0  0  0  0  0  0  0  0  0  0  0  0
    3.5697   -1.6523    0.2646 O   0  0  0  0  0  0  0  0  0  0  0  0
    3.0106   -2.3850    1.2570 C   0  0  0  0  0  0  0  0  0  0  0  0
    3.1697   -3.6018    1.3797 O   0  0  0  0  0  0  0  0  0  0  0  0
    2.2226   -1.5893    2.0924 N   0  0  0  0  0  0  0  0  0  0  0  0
    2.0407   -0.1202    1.9798 C   0  0  0  0  0  0  0  0  0  0  0  0
    0.8608    0.0832    2.9165 C   0  0  2  0  0  0  0  0  0  0  0  0
    0.4234    1.3279    3.6825 C   0  0  0  0  0  0  0  0  0  0  0  0
   -0.3302    0.7032    4.8009 N   0  0  0  0  0  0  0  0  0  0  0  0
   -1.1878    1.4150    5.6888 C   0  0  0  0  0  0  0  0  0  0  0  0
   -1.8427    2.5748    5.2240 C   0  0  0  0  0  0  0  0  0  0  0  0
   -2.6521    3.2645    6.1377 C   0  0  0  0  0  0  0  0  0  0  0  0
   -2.7910    2.8742    7.4187 N   0  0  0  0  0  0  0  0  0  0  0  0
   -2.1172    1.7890    7.7719 C   0  0  0  0  0  0  0  0  0  0  0  0
   -1.3682    1.0275    6.9778 N   0  0  0  0  0  0  0  0  0  0  0  0
    0.0263   -0.5943    4.9419 C   0  0  0  0  0  0  0  0  0  0  0  0
   -0.4845   -1.4472    5.6781 O   0  0  0  0  0  0  0  0  0  0  0  0
    1.2024   -0.8580    4.0250 C   0  0  1  0  0  0  0  0  0  0  0  0
    1.4901   -2.1340    3.2540 C   0  0  0  0  0  0  0  0  0  0  0  0
    5.6133   -2.8575   -0.4636 C   0  0  0  0  0  0  0  0  0  0  0  0
    5.4929   -1.5669   -1.2384 C   0  0  0  0  0  0  0  0  0  0  0  0
    3.9274   -3.3754   -2.6486 H   0  0  0  0  0  0  0  0  0  0  0  0
    2.6488   -2.2167   -2.2546 H   0  0  0  0  0  0  0  0  0  0  0  0
    2.7599   -3.7606   -1.3920 H   0  0  0  0  0  0  0  0  0  0  0  0
    2.9229    0.4216    2.3288 H   0  0  0  0  0  0  0  0  0  0  0  0
    1.8010    0.1876    0.9594 H   0  0  0  0  0  0  0  0  0  0  0  0
   -0.0281   -0.2564    2.3770 H   0  0  0  0  0  0  0  0  0  0  0  0
    1.2894    1.8680    4.0674 H   0  0  0  0  0  0  0  0  0  0  0  0
   -0.1683    2.0015    3.0570 H   0  0  0  0  0  0  0  0  0  0  0  0
   -1.7468    2.9135    4.2054 H   0  0  0  0  0  0  0  0  0  0  0  0
   -3.2069    4.1417    5.8399 H   0  0  0  0  0  0  0  0  0  0  0  0
   -2.2261    1.4551    8.7922 H   0  0  0  0  0  0  0  0  0  0  0  0
    2.1118   -0.5233    4.5309 H   0  0  0  0  0  0  0  0  0  0  0  0
    0.5866   -2.6613    2.9439 H   0  0  0  0  0  0  0  0  0  0  0  0
    2.1062   -2.8211    3.8324 H   0  0  0  0  0  0  0  0  0  0  0  0
    5.9371   -2.7929    0.5733 H   0  0  0  0  0  0  0  0  0  0  0  0
    5.9195   -3.7609   -0.9909 H   0  0  0  0  0  0  0  0  0  0  0  0
    5.7559   -1.5918   -2.2959 H   0  0  0  0  0  0  0  0  0  0  0  0
    5.7592   -0.6537   -0.7103 H   0  0  0  0  0  0  0  0  0  0  0  0
  1  2  1  0
  1 23  1  0
  1 24  1  0
  1 25  1  0
  2 22  1  0
  2  3  1  0
  2 21  1  0
  3  4  1  0
  4  5  2  0
  4  6  1  0
  6 20  1  0
  6  7  1  0
  7  8  1  0
  7 26  1  0
  7 27  1  0
  8 19  1  0
  8  9  1  0
  8 28  1  6
  9 10  1  0
  9 29  1  0
  9 30  1  0
 10 11  1  0
 10 17  1  0
 11 16  1  0
 11 12  2  0
 12 13  1  0
 12 31  1  0
 13 14  2  0
 13 32  1  0
 14 15  1  0
 15 16  2  0
 15 33  1  0
 17 18  2  0
 17 19  1  0
 19 20  1  0
 19 34  1  1
 20 35  1  0
 20 36  1  0
 21 22  1  0
 21 37  1  0
 21 38  1  0
 22 39  1  0
 22 40  1  0
M  END
>  <i_m_ct_stereo_status>  (239) 
1

>  <s_m_source_file>  (239) 
/var/tmp/pbs.5076255.sched01/tmprcd7yfff/907v12ihtf.sdf

>  <i_m_source_file_index>  (239) 
9

>  <i_lp_mmshare_version>  (239) 
48012

>  <i_f3d_flags>  (239) 
0

>  <s_epik_input>  (239) 
W0NIMl0xW0NIMl1DMShbQ0gzXSlPQyg9TylOKFtDSDJdMilbQ0gyXVtDQEBIXShbQ0BIXTIzKUMoPU8pTihbQ0gyXTMpYzRbY0hdW2NIXW5bY0hdbjQ=

>  <s_epik_cmdline>  (239) 
J2VwaWtfcHl0aG9uJywgJy1waHQnLCAnMi4wJywgJy1waCcsICc3LjAnLCAnLXRuJywgJzgnLCAnLW1hJywgJzIwMCcsICctaW1hZScsICc8aW5maWxlLm1hZT4nLCAnLW9tYWUnLCAnPG91dGZpbGUubWFlPic=

>  <r_lp_tautomer_probability>  (239) 
1

>  <r_epik_Ionization_Penalty>  (239) 
2.56759e-06

>  <r_epik_Ionization_Penalty_Charging>  (239) 
0

>  <r_epik_Ionization_Penalty_Neutral>  (239) 
2.56759e-06

>  <r_epik_State_Penalty>  (239) 
-0

>  <r_epik_Charging_Adjusted_Penalty>  (239) 
0

>  <i_epik_Tot_Q>  (239) 
0

>  <i_epik_Tot_abs_Q>  (239) 
0

>  <s_epik_Chemistry_Notes>  (239) 
This compound has an ester and may undergo hydrolysis at high or low pH.

>  <s_lp_Force_Field>  (239) 
OPLS3e

>  <r_lp_Energy>  (239) 
47.5035

>  <b_lp_Chiralities_Consistent>  (239) 
1

>  <s_lp_Variant>  (239) 
68:0-1

>  <s_i_glide_gridfile>  (239) 
pfpi4k_grid

>  <i_i_glide_lignum>  (239) 
9

>  <i_i_glide_rotatable_bonds>  (239) 
4

>  <r_i_docking_score>  (239) 
-2.66892

>  <r_i_glide_ligand_efficiency>  (239) 
-0.121315

>  <r_i_glide_ligand_efficiency_sa>  (239) 
-0.339928

>  <r_i_glide_ligand_efficiency_ln>  (239) 
-0.652382

>  <r_i_glide_gscore>  (239) 
-2.66892

>  <r_i_glide_lipo>  (239) 
-0.149419

>  <r_i_glide_hbond>  (239) 
-0.0885145

>  <r_i_glide_metal>  (239) 
-0

>  <r_i_glide_rewards>  (239) 
-1.34776

>  <r_i_glide_evdw>  (239) 
-26.0755

>  <r_i_glide_ecoul>  (239) 
-3.02899

>  <r_i_glide_erotb>  (239) 
0.805687

>  <r_i_glide_esite>  (239) 
-0.130793

>  <r_i_glide_emodel>  (239) 
-34.1087

>  <r_i_glide_energy>  (239) 
-29.1045

>  <r_i_glide_einternal>  (239) 
1.05261

>  <r_i_glide_intrahb_reward>  (239) 
-0

>  <i_i_glide_confnum>  (239) 
1

>  <i_i_glide_posenum>  (239) 
12

>  <r_i_glide_eff_state_penalty>  (239) 
0

>  <ligand_id>  (239) 
68

>  <original_smiles>  (239) 
CC1(OC(=O)N2CC3CN(c4ccncn4)C(=O)C3C2)CC1

>  <smiles>  (239) 
[H]c1nc([H])c([H])c(N2C(=O)C3([H])C([H])([H])N(C(=O)OC4(C([H])([H])[H])C([H])([H])C4([H])[H])C([H])([H])C3([H])C2([H])[H])n1

$$$$
69:0:0
     RDKit          3D

 37 40  0  0  1  0  0  0  0  0999 V2000
    6.5325   -5.4482    3.9751 C   0  0  0  0  0  0  0  0  0  0  0  0
    5.6352   -4.8567    3.1627 C   0  0  0  0  0  0  0  0  0  0  0  0
    5.5812   -4.9356    1.6291 C   0  0  1  0  0  0  0  0  0  0  0  0
    6.7771   -5.7706    1.1125 C   0  0  0  0  0  0  0  0  0  0  0  0
    4.2293   -5.5978    1.1268 C   0  0  0  0  0  0  0  0  0  0  0  0
    3.0303   -4.6010    0.9185 C   0  0  2  0  0  0  0  0  0  0  0  0
    2.8047   -4.0653   -0.5075 C   0  0  0  0  0  0  0  0  0  0  0  0
    3.3322   -2.8762   -0.9364 C   0  0  0  0  0  0  0  0  0  0  0  0
    3.0931   -2.3706   -2.3521 C   0  0  0  0  0  0  0  0  0  0  0  0
    4.1637   -1.9365    0.0166 C   0  0  2  0  0  0  0  0  0  0  0  0
    5.6505   -1.6486   -0.3888 C   0  0  0  0  0  0  0  0  0  0  0  0
    6.5686   -2.5706    0.4807 C   0  0  0  0  0  0  0  0  0  0  0  0
    5.5098   -3.5436    0.9634 C   0  0  2  0  0  0  0  0  0  0  0  0
    4.3406   -2.6196    1.3899 C   0  0  2  0  0  0  0  0  0  0  0  0
    3.0427   -3.3333    1.7049 C   0  0  2  0  0  0  0  0  0  0  0  0
    2.6373   -4.1290    2.8286 O   0  0  0  0  0  0  0  0  0  0  0  0
    1.9487   -5.0031    1.7787 O   0  0  0  0  0  0  0  0  0  0  0  0
    7.3464   -6.0534    3.6062 H   0  0  0  0  0  0  0  0  0  0  0  0
    6.4638   -5.3334    5.0473 H   0  0  0  0  0  0  0  0  0  0  0  0
    4.8679   -4.2728    3.6420 H   0  0  0  0  0  0  0  0  0  0  0  0
    6.7880   -5.8612    0.0320 H   0  0  0  0  0  0  0  0  0  0  0  0
    6.7401   -6.7890    1.5099 H   0  0  0  0  0  0  0  0  0  0  0  0
    7.7302   -5.3318    1.4109 H   0  0  0  0  0  0  0  0  0  0  0  0
    4.4072   -6.1112    0.1788 H   0  0  0  0  0  0  0  0  0  0  0  0
    3.9431   -6.3949    1.8139 H   0  0  0  0  0  0  0  0  0  0  0  0
    2.1864   -4.6574   -1.1524 H   0  0  0  0  0  0  0  0  0  0  0  0
    2.6163   -1.3872   -2.3347 H   0  0  0  0  0  0  0  0  0  0  0  0
    2.4353   -3.0525   -2.8993 H   0  0  0  0  0  0  0  0  0  0  0  0
    4.0330   -2.3011   -2.8985 H   0  0  0  0  0  0  0  0  0  0  0  0
    3.6041   -1.0050    0.1176 H   0  0  0  0  0  0  0  0  0  0  0  0
    5.8046   -1.8249   -1.4530 H   0  0  0  0  0  0  0  0  0  0  0  0
    5.8913   -0.6028   -0.1945 H   0  0  0  0  0  0  0  0  0  0  0  0
    7.3628   -3.0398   -0.1032 H   0  0  0  0  0  0  0  0  0  0  0  0
    7.0097   -2.0206    1.3133 H   0  0  0  0  0  0  0  0  0  0  0  0
    5.3502   -3.9563   -0.0355 H   0  0  0  0  0  0  0  0  0  0  0  0
    4.6305   -1.9174    2.1750 H   0  0  0  0  0  0  0  0  0  0  0  0
    2.1937   -2.6852    1.4643 H   0  0  0  0  0  0  0  0  0  0  0  0
  1  2  2  0
  1 18  1  0
  1 19  1  0
  2  3  1  0
  2 20  1  0
  3 13  1  0
  3  4  1  6
  3  5  1  0
  4 21  1  0
  4 22  1  0
  4 23  1  0
  5  6  1  0
  5 24  1  0
  5 25  1  0
  6 15  1  0
  6 17  1  1
  6  7  1  0
  7  8  2  0
  7 26  1  0
  8  9  1  0
  8 10  1  0
  9 27  1  0
  9 28  1  0
  9 29  1  0
 10 14  1  0
 10 11  1  0
 10 30  1  1
 11 12  1  0
 11 31  1  0
 11 32  1  0
 12 13  1  0
 12 33  1  0
 12 34  1  0
 13 14  1  0
 13 35  1  6
 14 15  1  0
 14 36  1  1
 15 16  1  0
 15 37  1  6
 16 17  1  0
M  END
>  <i_m_ct_stereo_status>  (240) 
1

>  <s_m_source_file>  (240) 
/var/tmp/pbs.5076255.sched01/tmprcd7yfff/907v12ihtf.sdf

>  <i_m_source_file_index>  (240) 
10

>  <i_lp_mmshare_version>  (240) 
48012

>  <i_f3d_flags>  (240) 
0

>  <s_epik_input>  (240) 
W0NIMl09W0NIXVtDQEBdKFtDSDNdKShbQ0gyXTEpW0NAQEhdMltDSDJdW0NIMl1bQ0BASF0oQyg9W0NIXTMpW0NIM10pW0NASF0yW0NAQEhdKFtDQF0xMzQpT080

>  <s_epik_cmdline>  (240) 
J2VwaWtfcHl0aG9uJywgJy1waHQnLCAnMi4wJywgJy1waCcsICc3LjAnLCAnLXRuJywgJzgnLCAnLW1hJywgJzIwMCcsICctaW1hZScsICc8aW5maWxlLm1hZT4nLCAnLW9tYWUnLCAnPG91dGZpbGUubWFlPic=

>  <r_lp_tautomer_probability>  (240) 
1

>  <r_epik_Ionization_Penalty>  (240) 
0

>  <r_epik_Ionization_Penalty_Charging>  (240) 
0

>  <r_epik_Ionization_Penalty_Neutral>  (240) 
0

>  <r_epik_State_Penalty>  (240) 
-0

>  <r_epik_Charging_Adjusted_Penalty>  (240) 
0

>  <i_epik_Tot_Q>  (240) 
0

>  <i_epik_Tot_abs_Q>  (240) 
0

>  <s_lp_Force_Field>  (240) 
OPLS3e

>  <r_lp_Energy>  (240) 
84.8603

>  <b_lp_Chiralities_Consistent>  (240) 
1

>  <s_lp_Variant>  (240) 
69:0-1

>  <s_i_glide_gridfile>  (240) 
pfpi4k_grid

>  <i_i_glide_lignum>  (240) 
10

>  <i_i_glide_rotatable_bonds>  (240) 
1

>  <r_i_docking_score>  (240) 
-2.85908

>  <r_i_glide_ligand_efficiency>  (240) 
-0.168181

>  <r_i_glide_ligand_efficiency_sa>  (240) 
-0.432441

>  <r_i_glide_ligand_efficiency_ln>  (240) 
-0.745871

>  <r_i_glide_gscore>  (240) 
-2.85908

>  <r_i_glide_lipo>  (240) 
-0.350546

>  <r_i_glide_hbond>  (240) 
-0.0184615

>  <r_i_glide_metal>  (240) 
-0

>  <r_i_glide_rewards>  (240) 
-1.8251

>  <r_i_glide_evdw>  (240) 
-16.6083

>  <r_i_glide_ecoul>  (240) 
-1.01265

>  <r_i_glide_erotb>  (240) 
0.317343

>  <r_i_glide_esite>  (240) 
0

>  <r_i_glide_emodel>  (240) 
-20.5317

>  <r_i_glide_energy>  (240) 
-17.621

>  <r_i_glide_einternal>  (240) 
0.705441

>  <r_i_glide_intrahb_reward>  (240) 
-0

>  <i_i_glide_confnum>  (240) 
4

>  <i_i_glide_posenum>  (240) 
38

>  <r_i_glide_eff_state_penalty>  (240) 
0

>  <ligand_id>  (240) 
69

>  <original_smiles>  (240) 
C=CC1(C)CC23C=C(C)C4CCC1C4C2OO3

>  <smiles>  (240) 
[H]C([H])=C([H])C1(C([H])([H])[H])C([H])([H])C23OOC2([H])C2([H])C([H])(C(C([H])([H])[H])=C3[H])C([H])([H])C([H])([H])C21[H]

$$$$
69:0:1
     RDKit          3D

 37 40  0  0  1  0  0  0  0  0999 V2000
    5.4187   -2.1785    3.6722 C   0  0  0  0  0  0  0  0  0  0  0  0
    5.4901   -3.4400    3.2191 C   0  0  0  0  0  0  0  0  0  0  0  0
    5.4870   -3.9246    1.7652 C   0  0  1  0  0  0  0  0  0  0  0  0
    6.8119   -4.6775    1.5086 C   0  0  0  0  0  0  0  0  0  0  0  0
    4.2801   -4.9157    1.4993 C   0  0  0  0  0  0  0  0  0  0  0  0
    2.9522   -4.2185    1.0475 C   0  0  2  0  0  0  0  0  0  0  0  0
    2.6745   -4.1632   -0.4690 C   0  0  0  0  0  0  0  0  0  0  0  0
    3.0257   -3.0758   -1.2346 C   0  0  0  0  0  0  0  0  0  0  0  0
    2.7465   -3.0163   -2.7276 C   0  0  0  0  0  0  0  0  0  0  0  0
    3.6937   -1.7900   -0.6161 C   0  0  2  0  0  0  0  0  0  0  0  0
    5.1290   -1.3982   -1.1069 C   0  0  0  0  0  0  0  0  0  0  0  0
    6.1501   -1.8743   -0.0224 C   0  0  0  0  0  0  0  0  0  0  0  0
    5.2314   -2.8167    0.7237 C   0  0  2  0  0  0  0  0  0  0  0  0
    3.9220   -2.0027    0.8812 C   0  0  2  0  0  0  0  0  0  0  0  0
    2.7572   -2.7906    1.4331 C   0  0  2  0  0  0  0  0  0  0  0  0
    2.4823   -3.2770    2.7564 O   0  0  0  0  0  0  0  0  0  0  0  0
    1.9440   -4.5139    2.0323 O   0  0  0  0  0  0  0  0  0  0  0  0
    5.3596   -1.3253    3.0182 H   0  0  0  0  0  0  0  0  0  0  0  0
    5.4275   -1.9749    4.7332 H   0  0  0  0  0  0  0  0  0  0  0  0
    5.5640   -4.2273    3.9546 H   0  0  0  0  0  0  0  0  0  0  0  0
    6.8723   -5.0885    0.4973 H   0  0  0  0  0  0  0  0  0  0  0  0
    6.9174   -5.5158    2.2038 H   0  0  0  0  0  0  0  0  0  0  0  0
    7.6725   -4.0250    1.6585 H   0  0  0  0  0  0  0  0  0  0  0  0
    4.5604   -5.6427    0.7337 H   0  0  0  0  0  0  0  0  0  0  0  0
    4.1013   -5.5192    2.3921 H   0  0  0  0  0  0  0  0  0  0  0  0
    2.1788   -5.0201   -0.8878 H   0  0  0  0  0  0  0  0  0  0  0  0
    2.1325   -2.1452   -2.9695 H   0  0  0  0  0  0  0  0  0  0  0  0
    2.2056   -3.9054   -3.0534 H   0  0  0  0  0  0  0  0  0  0  0  0
    3.6820   -2.9602   -3.2851 H   0  0  0  0  0  0  0  0  0  0  0  0
    3.0152   -0.9499   -0.7698 H   0  0  0  0  0  0  0  0  0  0  0  0
    5.3403   -1.8413   -2.0784 H   0  0  0  0  0  0  0  0  0  0  0  0
    5.1938   -0.3165   -1.2155 H   0  0  0  0  0  0  0  0  0  0  0  0
    7.0220   -2.3683   -0.4559 H   0  0  0  0  0  0  0  0  0  0  0  0
    6.4759   -1.0557    0.6230 H   0  0  0  0  0  0  0  0  0  0  0  0
    5.1690   -3.5230   -0.1096 H   0  0  0  0  0  0  0  0  0  0  0  0
    4.0452   -1.0435    1.3840 H   0  0  0  0  0  0  0  0  0  0  0  0
    1.8184   -2.3807    1.0467 H   0  0  0  0  0  0  0  0  0  0  0  0
  1  2  2  0
  1 18  1  0
  1 19  1  0
  2  3  1  0
  2 20  1  0
  3 13  1  0
  3  4  1  6
  3  5  1  0
  4 21  1  0
  4 22  1  0
  4 23  1  0
  5  6  1  0
  5 24  1  0
  5 25  1  0
  6 15  1  0
  6 17  1  1
  6  7  1  0
  7  8  2  0
  7 26  1  0
  8  9  1  0
  8 10  1  0
  9 27  1  0
  9 28  1  0
  9 29  1  0
 10 14  1  0
 10 11  1  0
 10 30  1  1
 11 12  1  0
 11 31  1  0
 11 32  1  0
 12 13  1  0
 12 33  1  0
 12 34  1  0
 13 14  1  0
 13 35  1  6
 14 15  1  0
 14 36  1  1
 15 16  1  0
 15 37  1  6
 16 17  1  0
M  END
>  <i_m_ct_stereo_status>  (241) 
1

>  <s_m_source_file>  (241) 
/var/tmp/pbs.5076255.sched01/tmprcd7yfff/907v12ihtf.sdf

>  <i_m_source_file_index>  (241) 
10

>  <i_lp_mmshare_version>  (241) 
48012

>  <i_f3d_flags>  (241) 
0

>  <s_epik_input>  (241) 
W0NIMl09W0NIXVtDQEBdKFtDSDNdKShbQ0gyXTEpW0NAQEhdMltDSDJdW0NIMl1bQ0BASF0oQyg9W0NIXTMpW0NIM10pW0NASF0yW0NAQEhdKFtDQF0xMzQpT080

>  <s_epik_cmdline>  (241) 
J2VwaWtfcHl0aG9uJywgJy1waHQnLCAnMi4wJywgJy1waCcsICc3LjAnLCAnLXRuJywgJzgnLCAnLW1hJywgJzIwMCcsICctaW1hZScsICc8aW5maWxlLm1hZT4nLCAnLW9tYWUnLCAnPG91dGZpbGUubWFlPic=

>  <r_lp_tautomer_probability>  (241) 
1

>  <r_epik_Ionization_Penalty>  (241) 
0

>  <r_epik_Ionization_Penalty_Charging>  (241) 
0

>  <r_epik_Ionization_Penalty_Neutral>  (241) 
0

>  <r_epik_State_Penalty>  (241) 
-0

>  <r_epik_Charging_Adjusted_Penalty>  (241) 
0

>  <i_epik_Tot_Q>  (241) 
0

>  <i_epik_Tot_abs_Q>  (241) 
0

>  <s_lp_Force_Field>  (241) 
OPLS3e

>  <r_lp_Energy>  (241) 
84.8603

>  <b_lp_Chiralities_Consistent>  (241) 
1

>  <s_lp_Variant>  (241) 
69:0-1

>  <s_i_glide_gridfile>  (241) 
pfpi4k_grid

>  <i_i_glide_lignum>  (241) 
10

>  <i_i_glide_rotatable_bonds>  (241) 
1

>  <r_i_docking_score>  (241) 
-2.67422

>  <r_i_glide_ligand_efficiency>  (241) 
-0.157307

>  <r_i_glide_ligand_efficiency_sa>  (241) 
-0.40448

>  <r_i_glide_ligand_efficiency_ln>  (241) 
-0.697643

>  <r_i_glide_gscore>  (241) 
-2.67422

>  <r_i_glide_lipo>  (241) 
-0.271735

>  <r_i_glide_hbond>  (241) 
-0.00148233

>  <r_i_glide_metal>  (241) 
-0

>  <r_i_glide_rewards>  (241) 
-1.8251

>  <r_i_glide_evdw>  (241) 
-15.8143

>  <r_i_glide_ecoul>  (241) 
-0.683485

>  <r_i_glide_erotb>  (241) 
0.317343

>  <r_i_glide_esite>  (241) 
0

>  <r_i_glide_emodel>  (241) 
-19.3495

>  <r_i_glide_energy>  (241) 
-16.4978

>  <r_i_glide_einternal>  (241) 
0.23239

>  <r_i_glide_intrahb_reward>  (241) 
-0

>  <i_i_glide_confnum>  (241) 
4

>  <i_i_glide_posenum>  (241) 
10

>  <r_i_glide_eff_state_penalty>  (241) 
0

>  <ligand_id>  (241) 
69

>  <original_smiles>  (241) 
C=CC1(C)CC23C=C(C)C4CCC1C4C2OO3

>  <smiles>  (241) 
[H]C([H])=C([H])C1(C([H])([H])[H])C([H])([H])C23OOC2([H])C2([H])C([H])(C(C([H])([H])[H])=C3[H])C([H])([H])C([H])([H])C21[H]

$$$$
69:0:2
     RDKit          3D

 37 40  0  0  1  0  0  0  0  0999 V2000
    2.3792   -3.8348   -3.9151 C   0  0  0  0  0  0  0  0  0  0  0  0
    3.6044   -3.7023   -3.3898 C   0  0  0  0  0  0  0  0  0  0  0  0
    4.1038   -2.4742   -2.6546 C   0  0  1  0  0  0  0  0  0  0  0  0
    4.2792   -1.3538   -3.6887 C   0  0  0  0  0  0  0  0  0  0  0  0
    3.0900   -1.9825   -1.5721 C   0  0  0  0  0  0  0  0  0  0  0  0
    3.2508   -2.6003   -0.1472 C   0  0  2  0  0  0  0  0  0  0  0  0
    4.0446   -1.7890    0.8727 C   0  0  0  0  0  0  0  0  0  0  0  0
    5.3670   -2.0468    1.0760 C   0  0  0  0  0  0  0  0  0  0  0  0
    6.1462   -1.2499    2.0933 C   0  0  0  0  0  0  0  0  0  0  0  0
    6.1343   -3.2113    0.3338 C   0  0  2  0  0  0  0  0  0  0  0  0
    7.3339   -2.7879   -0.5697 C   0  0  0  0  0  0  0  0  0  0  0  0
    6.8238   -2.7775   -2.0341 C   0  0  0  0  0  0  0  0  0  0  0  0
    5.3406   -2.7599   -1.7756 C   0  0  2  0  0  0  0  0  0  0  0  0
    5.1980   -3.8696   -0.7009 C   0  0  2  0  0  0  0  0  0  0  0  0
    3.8531   -3.9560   -0.0522 C   0  0  2  0  0  0  0  0  0  0  0  0
    2.6022   -4.4343   -0.5327 O   0  0  0  0  0  0  0  0  0  0  0  0
    2.0544   -3.2349    0.2116 O   0  0  0  0  0  0  0  0  0  0  0  0
    1.6431   -3.0433   -3.9120 H   0  0  0  0  0  0  0  0  0  0  0  0
    2.0806   -4.7749   -4.3487 H   0  0  0  0  0  0  0  0  0  0  0  0
    4.2845   -4.5416   -3.4556 H   0  0  0  0  0  0  0  0  0  0  0  0
    4.6214   -0.4254   -3.2334 H   0  0  0  0  0  0  0  0  0  0  0  0
    3.3459   -1.1369   -4.2196 H   0  0  0  0  0  0  0  0  0  0  0  0
    5.0168   -1.6547   -4.4209 H   0  0  0  0  0  0  0  0  0  0  0  0
    3.1391   -0.8952   -1.4836 H   0  0  0  0  0  0  0  0  0  0  0  0
    2.0947   -2.1959   -1.9409 H   0  0  0  0  0  0  0  0  0  0  0  0
    3.5003   -1.0375    1.4174 H   0  0  0  0  0  0  0  0  0  0  0  0
    6.5596   -1.9423    2.8229 H   0  0  0  0  0  0  0  0  0  0  0  0
    5.5008   -0.5458    2.6294 H   0  0  0  0  0  0  0  0  0  0  0  0
    6.9512   -0.6963    1.6084 H   0  0  0  0  0  0  0  0  0  0  0  0
    6.4583   -3.9384    1.0816 H   0  0  0  0  0  0  0  0  0  0  0  0
    7.7000   -1.8007   -0.2850 H   0  0  0  0  0  0  0  0  0  0  0  0
    8.1616   -3.4917   -0.4887 H   0  0  0  0  0  0  0  0  0  0  0  0
    7.2200   -1.8907   -2.5004 H   0  0  0  0  0  0  0  0  0  0  0  0
    7.1057   -3.6700   -2.5997 H   0  0  0  0  0  0  0  0  0  0  0  0
    5.3567   -1.7578   -1.3489 H   0  0  0  0  0  0  0  0  0  0  0  0
    5.5408   -4.8414   -1.0543 H   0  0  0  0  0  0  0  0  0  0  0  0
    3.9484   -4.3011    0.9851 H   0  0  0  0  0  0  0  0  0  0  0  0
  1  2  2  0
  1 18  1  0
  1 19  1  0
  2  3  1  0
  2 20  1  0
  3 13  1  0
  3  4  1  6
  3  5  1  0
  4 21  1  0
  4 22  1  0
  4 23  1  0
  5  6  1  0
  5 24  1  0
  5 25  1  0
  6 15  1  0
  6 17  1  1
  6  7  1  0
  7  8  2  0
  7 26  1  0
  8  9  1  0
  8 10  1  0
  9 27  1  0
  9 28  1  0
  9 29  1  0
 10 14  1  0
 10 11  1  0
 10 30  1  1
 11 12  1  0
 11 31  1  0
 11 32  1  0
 12 13  1  0
 12 33  1  0
 12 34  1  0
 13 14  1  0
 13 35  1  1
 14 15  1  0
 14 36  1  6
 15 16  1  0
 15 37  1  1
 16 17  1  0
M  END
>  <i_m_ct_stereo_status>  (242) 
1

>  <s_m_source_file>  (242) 
/var/tmp/pbs.5076255.sched01/tmprcd7yfff/907v12ihtf.sdf

>  <i_m_source_file_index>  (242) 
10

>  <i_lp_mmshare_version>  (242) 
48012

>  <i_f3d_flags>  (242) 
0

>  <s_epik_input>  (242) 
W0NIMl09W0NIXVtDQEBdKFtDSDNdKShbQ0gyXTEpW0NAQEhdMltDSDJdW0NIMl1bQ0BASF0oQyg9W0NIXTMpW0NIM10pW0NASF0yW0NAQEhdKFtDQF0xMzQpT080

>  <s_epik_cmdline>  (242) 
J2VwaWtfcHl0aG9uJywgJy1waHQnLCAnMi4wJywgJy1waCcsICc3LjAnLCAnLXRuJywgJzgnLCAnLW1hJywgJzIwMCcsICctaW1hZScsICc8aW5maWxlLm1hZT4nLCAnLW9tYWUnLCAnPG91dGZpbGUubWFlPic=

>  <r_lp_tautomer_probability>  (242) 
1

>  <r_epik_Ionization_Penalty>  (242) 
0

>  <r_epik_Ionization_Penalty_Charging>  (242) 
0

>  <r_epik_Ionization_Penalty_Neutral>  (242) 
0

>  <r_epik_State_Penalty>  (242) 
-0

>  <r_epik_Charging_Adjusted_Penalty>  (242) 
0

>  <i_epik_Tot_Q>  (242) 
0

>  <i_epik_Tot_abs_Q>  (242) 
0

>  <s_lp_Force_Field>  (242) 
OPLS3e

>  <r_lp_Energy>  (242) 
84.8603

>  <b_lp_Chiralities_Consistent>  (242) 
1

>  <s_lp_Variant>  (242) 
69:0-1

>  <s_i_glide_gridfile>  (242) 
pfpi4k_grid

>  <i_i_glide_lignum>  (242) 
10

>  <i_i_glide_rotatable_bonds>  (242) 
1

>  <r_i_docking_score>  (242) 
-2.45122

>  <r_i_glide_ligand_efficiency>  (242) 
-0.144189

>  <r_i_glide_ligand_efficiency_sa>  (242) 
-0.370752

>  <r_i_glide_ligand_efficiency_ln>  (242) 
-0.639469

>  <r_i_glide_gscore>  (242) 
-2.45122

>  <r_i_glide_lipo>  (242) 
-0.692255

>  <r_i_glide_hbond>  (242) 
-0.018147

>  <r_i_glide_metal>  (242) 
-0

>  <r_i_glide_rewards>  (242) 
-1.8251

>  <r_i_glide_evdw>  (242) 
-5.80388

>  <r_i_glide_ecoul>  (242) 
0.38091

>  <r_i_glide_erotb>  (242) 
0.317343

>  <r_i_glide_esite>  (242) 
0

>  <r_i_glide_emodel>  (242) 
-6.3527

>  <r_i_glide_energy>  (242) 
-5.42297

>  <r_i_glide_einternal>  (242) 
2.35425

>  <r_i_glide_intrahb_reward>  (242) 
-0

>  <i_i_glide_confnum>  (242) 
3

>  <i_i_glide_posenum>  (242) 
28

>  <r_i_glide_eff_state_penalty>  (242) 
0

>  <ligand_id>  (242) 
69

>  <original_smiles>  (242) 
C=CC1(C)CC23C=C(C)C4CCC1C4C2OO3

>  <smiles>  (242) 
[H]C([H])=C([H])C1(C([H])([H])[H])C([H])([H])C23OOC2([H])C2([H])C([H])(C(C([H])([H])[H])=C3[H])C([H])([H])C([H])([H])C21[H]

$$$$
70:0:0
     RDKit          3D

 42 48  0  0  1  0  0  0  0  0999 V2000
    4.6308   -4.0364   -3.9028 O   0  0  0  0  0  0  0  0  0  0  0  0
    4.1073   -3.2240   -2.8761 C   0  0  2  0  0  0  0  0  0  0  0  0
    4.2236   -1.7660   -3.2331 C   0  0  0  0  0  0  0  0  0  0  0  0
    4.5988   -1.0298   -2.1944 C   0  0  0  0  0  0  0  0  0  0  0  0
    4.8203   -1.8891   -0.9589 C   0  0  2  0  0  0  0  0  0  0  0  0
    3.6323   -1.7960    0.0303 C   0  0  1  0  0  0  0  0  0  0  0  0
    2.6902   -3.0652    0.0813 C   0  0  0  0  0  0  0  0  0  0  0  0
    3.5875   -4.2051    0.5026 C   0  0  1  0  0  0  0  0  0  0  0  0
    3.3539   -5.5738    0.6063 O   0  0  0  0  0  0  0  0  0  0  0  0
    4.7637   -6.0443    0.7841 C   0  0  0  0  0  0  0  0  0  0  0  0
    5.6330   -4.8045    0.3338 C   0  0  1  0  0  0  0  0  0  0  0  0
    7.1382   -4.7572    0.1058 C   0  0  1  0  0  0  0  0  0  0  0  0
    8.1387   -3.8399   -0.6667 C   0  0  2  0  0  0  0  0  0  0  0  0
    8.0196   -2.3882   -1.0523 C   0  0  0  0  0  0  0  0  0  0  0  0
    7.2843   -2.0276    0.2285 C   0  0  2  0  0  0  0  0  0  0  0  0
    7.6576   -3.4542    0.6906 C   0  0  1  0  0  0  0  0  0  0  0  0
    5.8438   -1.3777    0.0742 C   0  0  2  0  0  0  0  0  0  0  0  0
    4.7138   -1.4888    1.1355 C   0  0  0  0  0  0  0  0  0  0  0  0
    4.6925   -4.3212   -0.6223 N   0  0  2  0  0  0  0  0  0  0  0  0
    4.9726   -3.2474   -1.5905 C   0  0  1  0  0  0  0  0  0  0  0  0
    4.3648   -4.9242   -3.7222 H   0  0  0  0  0  0  0  0  0  0  0  0
    3.0658   -3.4650   -2.7293 H   0  0  0  0  0  0  0  0  0  0  0  0
    3.9811   -1.3744   -4.2106 H   0  0  0  0  0  0  0  0  0  0  0  0
    4.7210    0.0454   -2.1819 H   0  0  0  0  0  0  0  0  0  0  0  0
    3.0667   -0.8792   -0.1567 H   0  0  0  0  0  0  0  0  0  0  0  0
    1.9361   -2.9327    0.8473 H   0  0  0  0  0  0  0  0  0  0  0  0
    2.1634   -3.2723   -0.8382 H   0  0  0  0  0  0  0  0  0  0  0  0
    3.7817   -3.9517    1.5361 H   0  0  0  0  0  0  0  0  0  0  0  0
    4.9706   -6.2841    1.8345 H   0  0  0  0  0  0  0  0  0  0  0  0
    4.9541   -6.9160    0.1471 H   0  0  0  0  0  0  0  0  0  0  0  0
    5.6645   -4.2045    1.2575 H   0  0  0  0  0  0  0  0  0  0  0  0
    7.5922   -5.6626    0.4954 H   0  0  0  0  0  0  0  0  0  0  0  0
    9.1445   -4.2501   -0.7645 H   0  0  0  0  0  0  0  0  0  0  0  0
    8.9964   -1.9137   -1.0804 H   0  0  0  0  0  0  0  0  0  0  0  0
    7.5034   -2.1446   -1.9721 H   0  0  0  0  0  0  0  0  0  0  0  0
    7.8906   -1.3263    0.8100 H   0  0  0  0  0  0  0  0  0  0  0  0
    8.4030   -3.5312    1.4973 H   0  0  0  0  0  0  0  0  0  0  0  0
    6.0006   -0.3102   -0.1073 H   0  0  0  0  0  0  0  0  0  0  0  0
    4.5246   -0.5292    1.6250 H   0  0  0  0  0  0  0  0  0  0  0  0
    4.9028   -2.2702    1.8818 H   0  0  0  0  0  0  0  0  0  0  0  0
    5.9624   -3.4434   -1.9852 H   0  0  0  0  0  0  0  0  0  0  0  0
    4.4673   -5.1121   -1.2209 H   0  0  0  0  0  0  0  0  0  0  0  0
  1  2  1  0
  1 21  1  0
  2 20  1  0
  2  3  1  0
  2 22  1  1
  3  4  2  0
  3 23  1  0
  5  4  1  6
  4 24  1  0
  5 17  1  0
  5 20  1  0
  5  6  1  0
  6 18  1  0
  6  7  1  0
  6 25  1  6
  7  8  1  0
  7 26  1  0
  7 27  1  0
  8 19  1  0
  8  9  1  0
  8 28  1  1
  9 10  1  0
 10 11  1  0
 10 29  1  0
 10 30  1  0
 11 12  1  0
 11 19  1  0
 11 31  1  1
 12 16  1  0
 12 13  1  0
 12 32  1  1
 13 16  1  0
 13 14  1  0
 13 33  1  1
 14 15  1  0
 14 34  1  0
 14 35  1  0
 15 16  1  0
 15 17  1  0
 15 36  1  1
 16 37  1  1
 17 18  1  0
 17 38  1  6
 18 39  1  0
 18 40  1  0
 19 20  1  0
 19 42  1  6
 20 41  1  6
M  CHG  1  19   1
M  END
>  <i_m_ct_stereo_status>  (243) 
1

>  <s_m_source_file>  (243) 
/var/tmp/pbs.5076255.sched01/tmprcd7yfff/907v12ihtf.sdf

>  <i_m_source_file_index>  (243) 
11

>  <i_lp_mmshare_version>  (243) 
48012

>  <i_f3d_flags>  (243) 
0

>  <s_epik_input>  (243) 
W0NIXTE9W0NIXVtDQEBIXShbT0hdKVtDQEBIXTJOKFtDQEhdM1tDSDJdW0NAQEhdNFtDQF0xMjUpW0NAQEhdKFtDSDJdTzMpW0NASF02W0NAQEhdN1tDQEhdNltDQEBIXShbQ0gyXTcpW0NAQEhdNVtDSDJdNA==

>  <s_epik_cmdline>  (243) 
J2VwaWtfcHl0aG9uJywgJy1waHQnLCAnMi4wJywgJy1waCcsICc3LjAnLCAnLXRuJywgJzgnLCAnLW1hJywgJzIwMCcsICctaW1hZScsICc8aW5maWxlLm1hZT4nLCAnLW9tYWUnLCAnPG91dGZpbGUubWFlPic=

>  <r_epik_Ionization_Penalty>  (243) 
0.0222973

>  <r_epik_Ionization_Penalty_Charging>  (243) 
0.0222972

>  <r_epik_Ionization_Penalty_Neutral>  (243) 
9.44645e-08

>  <r_epik_State_Penalty>  (243) 
0.0179821

>  <r_epik_Charging_Adjusted_Penalty>  (243) 
0.0402793

>  <i_epik_Tot_Q>  (243) 
1

>  <i_epik_Tot_abs_Q>  (243) 
1

>  <s_epik_Chemistry_Notes>  (243) 
This compound contains an acetal/aminal-like group ( X-CH(R)-Y where X, Y are N, S, or O) that may be acid/base labile, releasing an aldehyde.

>  <s_lp_Force_Field>  (243) 
OPLS3e

>  <r_lp_Energy>  (243) 
136.69

>  <b_lp_Chiralities_Consistent>  (243) 
1

>  <s_lp_Variant>  (243) 
70:0-1

>  <s_i_glide_gridfile>  (243) 
pfpi4k_grid

>  <i_i_glide_lignum>  (243) 
11

>  <i_i_glide_rotatable_bonds>  (243) 
1

>  <r_i_docking_score>  (243) 
-4.70628

>  <r_i_glide_ligand_efficiency>  (243) 
-0.235314

>  <r_i_glide_ligand_efficiency_sa>  (243) 
-0.63874

>  <r_i_glide_ligand_efficiency_ln>  (243) 
-1.17783

>  <r_i_glide_gscore>  (243) 
-4.70628

>  <r_i_glide_lipo>  (243) 
-0.731548

>  <r_i_glide_hbond>  (243) 
-0.234167

>  <r_i_glide_metal>  (243) 
-0

>  <r_i_glide_rewards>  (243) 
-1.55208

>  <r_i_glide_evdw>  (243) 
-23.2945

>  <r_i_glide_ecoul>  (243) 
-6.81157

>  <r_i_glide_erotb>  (243) 
0

>  <r_i_glide_esite>  (243) 
-0.00202766

>  <r_i_glide_emodel>  (243) 
-38.4892

>  <r_i_glide_energy>  (243) 
-30.1061

>  <r_i_glide_einternal>  (243) 
0.458457

>  <r_i_glide_intrahb_reward>  (243) 
-0

>  <i_i_glide_confnum>  (243) 
2

>  <i_i_glide_posenum>  (243) 
39

>  <r_i_glide_eff_state_penalty>  (243) 
0

>  <ligand_id>  (243) 
70

>  <original_smiles>  (243) 
OC1C=CC23C4CC5OCC(C6C7CC(C76)C2C4)N5C13

>  <smiles>  (243) 
[H]OC1([H])C([H])=C([H])C23C4([H])C([H])([H])C2([H])C2([H])C([H])([H])C5([H])C2([H])C5([H])C2([H])C([H])([H])OC([H])(C4([H])[H])[N+]2([H])C13[H]

$$$$
70:0:1
     RDKit          3D

 42 48  0  0  1  0  0  0  0  0999 V2000
    1.9166   -0.4367    1.7460 O   0  0  0  0  0  0  0  0  0  0  0  0
    2.3371   -1.7577    2.0094 C   0  0  2  0  0  0  0  0  0  0  0  0
    3.2216   -1.8288    3.2239 C   0  0  0  0  0  0  0  0  0  0  0  0
    4.2604   -2.6461    3.0423 C   0  0  0  0  0  0  0  0  0  0  0  0
    4.2474   -3.2439    1.6559 C   0  0  2  0  0  0  0  0  0  0  0  0
    3.7413   -4.7045    1.6675 C   0  0  1  0  0  0  0  0  0  0  0  0
    2.2820   -4.9098    1.1095 C   0  0  0  0  0  0  0  0  0  0  0  0
    2.3473   -4.3770   -0.3180 C   0  0  1  0  0  0  0  0  0  0  0  0
    1.3936   -4.2533   -1.3120 O   0  0  0  0  0  0  0  0  0  0  0  0
    2.1440   -3.4278   -2.3131 C   0  0  0  0  0  0  0  0  0  0  0  0
    3.4122   -2.9744   -1.5208 C   0  0  1  0  0  0  0  0  0  0  0  0
    4.4405   -1.9577   -1.9581 C   0  0  1  0  0  0  0  0  0  0  0  0
    5.4839   -1.0849   -1.2400 C   0  0  2  0  0  0  0  0  0  0  0  0
    6.2240   -1.2606    0.0846 C   0  0  0  0  0  0  0  0  0  0  0  0
    6.2956   -2.7628   -0.0920 C   0  0  2  0  0  0  0  0  0  0  0  0
    5.8044   -2.5135   -1.5363 C   0  0  1  0  0  0  0  0  0  0  0  0
    5.6102   -3.6273    1.0454 C   0  0  2  0  0  0  0  0  0  0  0  0
    5.0358   -5.0503    0.8375 C   0  0  0  0  0  0  0  0  0  0  0  0
    2.7522   -2.8592   -0.2475 N   0  0  2  0  0  0  0  0  0  0  0  0
    3.3374   -2.2662    0.9483 C   0  0  1  0  0  0  0  0  0  0  0  0
    1.4004   -0.4317    0.9493 H   0  0  0  0  0  0  0  0  0  0  0  0
    1.4752   -2.4018    2.1787 H   0  0  0  0  0  0  0  0  0  0  0  0
    3.0198   -1.2939    4.1338 H   0  0  0  0  0  0  0  0  0  0  0  0
    5.0293   -2.8634    3.7676 H   0  0  0  0  0  0  0  0  0  0  0  0
    3.8594   -5.1342    2.6643 H   0  0  0  0  0  0  0  0  0  0  0  0
    2.0432   -5.9709    1.0505 H   0  0  0  0  0  0  0  0  0  0  0  0
    1.5030   -4.4576    1.7203 H   0  0  0  0  0  0  0  0  0  0  0  0
    2.9860   -5.1410   -0.7164 H   0  0  0  0  0  0  0  0  0  0  0  0
    2.4406   -4.0175   -3.1868 H   0  0  0  0  0  0  0  0  0  0  0  0
    1.5553   -2.5775   -2.6759 H   0  0  0  0  0  0  0  0  0  0  0  0
    4.0621   -3.8515   -1.6077 H   0  0  0  0  0  0  0  0  0  0  0  0
    4.3424   -1.7643   -3.0263 H   0  0  0  0  0  0  0  0  0  0  0  0
    5.8597   -0.3078   -1.9017 H   0  0  0  0  0  0  0  0  0  0  0  0
    7.2161   -0.8270    0.0819 H   0  0  0  0  0  0  0  0  0  0  0  0
    5.7472   -0.9227    0.9922 H   0  0  0  0  0  0  0  0  0  0  0  0
    7.3394   -3.0678   -0.1457 H   0  0  0  0  0  0  0  0  0  0  0  0
    6.5296   -2.7073   -2.3234 H   0  0  0  0  0  0  0  0  0  0  0  0
    6.3361   -3.6859    1.8604 H   0  0  0  0  0  0  0  0  0  0  0  0
    5.6472   -5.8131    1.3270 H   0  0  0  0  0  0  0  0  0  0  0  0
    4.9200   -5.3149   -0.2167 H   0  0  0  0  0  0  0  0  0  0  0  0
    3.8202   -1.3523    0.6362 H   0  0  0  0  0  0  0  0  0  0  0  0
    1.9599   -2.2426   -0.4574 H   0  0  0  0  0  0  0  0  0  0  0  0
  1  2  1  0
  1 21  1  0
  2 20  1  0
  2  3  1  0
  2 22  1  1
  3  4  2  0
  3 23  1  0
  5  4  1  1
  4 24  1  0
  5 17  1  0
  5 20  1  0
  5  6  1  0
  6 18  1  0
  6  7  1  0
  6 25  1  1
  7  8  1  0
  7 26  1  0
  7 27  1  0
  8 19  1  0
  8  9  1  0
  8 28  1  6
  9 10  1  0
 10 11  1  0
 10 29  1  0
 10 30  1  0
 11 12  1  0
 11 19  1  0
 11 31  1  1
 12 16  1  0
 12 13  1  0
 12 32  1  6
 13 16  1  0
 13 14  1  0
 13 33  1  6
 14 15  1  0
 14 34  1  0
 14 35  1  0
 15 16  1  0
 15 17  1  0
 15 36  1  6
 16 37  1  6
 17 18  1  0
 17 38  1  1
 18 39  1  0
 18 40  1  0
 19 20  1  0
 19 42  1  6
 20 41  1  6
M  CHG  1  19   1
M  END
>  <i_m_ct_stereo_status>  (244) 
1

>  <s_m_source_file>  (244) 
/var/tmp/pbs.5076255.sched01/tmprcd7yfff/907v12ihtf.sdf

>  <i_m_source_file_index>  (244) 
11

>  <i_lp_mmshare_version>  (244) 
48012

>  <i_f3d_flags>  (244) 
0

>  <s_epik_input>  (244) 
W0NIXTE9W0NIXVtDQEBIXShbT0hdKVtDQEBIXTJOKFtDQEhdM1tDSDJdW0NAQEhdNFtDQF0xMjUpW0NAQEhdKFtDSDJdTzMpW0NASF02W0NAQEhdN1tDQEhdNltDQEBIXShbQ0gyXTcpW0NAQEhdNVtDSDJdNA==

>  <s_epik_cmdline>  (244) 
J2VwaWtfcHl0aG9uJywgJy1waHQnLCAnMi4wJywgJy1waCcsICc3LjAnLCAnLXRuJywgJzgnLCAnLW1hJywgJzIwMCcsICctaW1hZScsICc8aW5maWxlLm1hZT4nLCAnLW9tYWUnLCAnPG91dGZpbGUubWFlPic=

>  <r_epik_Ionization_Penalty>  (244) 
0.0222973

>  <r_epik_Ionization_Penalty_Charging>  (244) 
0.0222972

>  <r_epik_Ionization_Penalty_Neutral>  (244) 
9.44645e-08

>  <r_epik_State_Penalty>  (244) 
0.0179821

>  <r_epik_Charging_Adjusted_Penalty>  (244) 
0.0402793

>  <i_epik_Tot_Q>  (244) 
1

>  <i_epik_Tot_abs_Q>  (244) 
1

>  <s_epik_Chemistry_Notes>  (244) 
This compound contains an acetal/aminal-like group ( X-CH(R)-Y where X, Y are N, S, or O) that may be acid/base labile, releasing an aldehyde.

>  <s_lp_Force_Field>  (244) 
OPLS3e

>  <r_lp_Energy>  (244) 
136.69

>  <b_lp_Chiralities_Consistent>  (244) 
1

>  <s_lp_Variant>  (244) 
70:0-1

>  <s_i_glide_gridfile>  (244) 
pfpi4k_grid

>  <i_i_glide_lignum>  (244) 
11

>  <i_i_glide_rotatable_bonds>  (244) 
1

>  <r_i_docking_score>  (244) 
-4.65156

>  <r_i_glide_ligand_efficiency>  (244) 
-0.232578

>  <r_i_glide_ligand_efficiency_sa>  (244) 
-0.631313

>  <r_i_glide_ligand_efficiency_ln>  (244) 
-1.16413

>  <r_i_glide_gscore>  (244) 
-4.65156

>  <r_i_glide_lipo>  (244) 
-0.425524

>  <r_i_glide_hbond>  (244) 
-0.362757

>  <r_i_glide_metal>  (244) 
-0

>  <r_i_glide_rewards>  (244) 
-1.55208

>  <r_i_glide_evdw>  (244) 
-16.3015

>  <r_i_glide_ecoul>  (244) 
-9.23576

>  <r_i_glide_erotb>  (244) 
0

>  <r_i_glide_esite>  (244) 
-0.11076

>  <r_i_glide_emodel>  (244) 
-33.3518

>  <r_i_glide_energy>  (244) 
-25.5373

>  <r_i_glide_einternal>  (244) 
0.427003

>  <r_i_glide_intrahb_reward>  (244) 
-0

>  <i_i_glide_confnum>  (244) 
2

>  <i_i_glide_posenum>  (244) 
10

>  <r_i_glide_eff_state_penalty>  (244) 
0

>  <ligand_id>  (244) 
70

>  <original_smiles>  (244) 
OC1C=CC23C4CC5OCC(C6C7CC(C76)C2C4)N5C13

>  <smiles>  (244) 
[H]OC1([H])C([H])=C([H])C23C4([H])C([H])([H])C2([H])C2([H])C([H])([H])C5([H])C2([H])C5([H])C2([H])C([H])([H])OC([H])(C4([H])[H])[N+]2([H])C13[H]

$$$$
70:0:2
     RDKit          3D

 42 48  0  0  1  0  0  0  0  0999 V2000
    1.9487   -3.8595   -1.5145 O   0  0  0  0  0  0  0  0  0  0  0  0
    3.0737   -2.9978   -1.4115 C   0  0  2  0  0  0  0  0  0  0  0  0
    4.0632   -3.2414   -2.5196 C   0  0  0  0  0  0  0  0  0  0  0  0
    5.3367   -3.1683   -2.0560 C   0  0  0  0  0  0  0  0  0  0  0  0
    5.3539   -2.9024   -0.5661 C   0  0  2  0  0  0  0  0  0  0  0  0
    5.6724   -1.4226   -0.2620 C   0  0  1  0  0  0  0  0  0  0  0  0
    4.4537   -0.5609    0.2431 C   0  0  0  0  0  0  0  0  0  0  0  0
    3.9759   -1.2298    1.5112 C   0  0  1  0  0  0  0  0  0  0  0  0
    2.8779   -0.9938    2.3183 O   0  0  0  0  0  0  0  0  0  0  0  0
    2.9329   -2.2241    3.1600 C   0  0  0  0  0  0  0  0  0  0  0  0
    3.8889   -3.1867    2.3804 C   0  0  1  0  0  0  0  0  0  0  0  0
    4.1360   -4.6681    2.6119 C   0  0  1  0  0  0  0  0  0  0  0  0
    4.7202   -5.8579    1.8157 C   0  0  2  0  0  0  0  0  0  0  0  0
    5.6842   -5.8827    0.6310 C   0  0  0  0  0  0  0  0  0  0  0  0
    6.4685   -4.7013    1.1578 C   0  0  2  0  0  0  0  0  0  0  0  0
    5.6522   -4.8778    2.4646 C   0  0  1  0  0  0  0  0  0  0  0  0
    6.5699   -3.4318    0.2131 C   0  0  2  0  0  0  0  0  0  0  0  0
    6.7742   -1.9768    0.7180 C   0  0  0  0  0  0  0  0  0  0  0  0
    3.5414   -2.6900    1.0719 N   0  0  2  0  0  0  0  0  0  0  0  0
    3.9498   -3.3119   -0.1838 C   0  0  1  0  0  0  0  0  0  0  0  0
    2.2241   -4.6502   -1.9263 H   0  0  0  0  0  0  0  0  0  0  0  0
    2.7101   -1.9803   -1.4886 H   0  0  0  0  0  0  0  0  0  0  0  0
    3.8041   -3.4240   -3.5404 H   0  0  0  0  0  0  0  0  0  0  0  0
    6.2167   -3.2950   -2.6518 H   0  0  0  0  0  0  0  0  0  0  0  0
    6.1678   -0.9776   -1.1188 H   0  0  0  0  0  0  0  0  0  0  0  0
    4.7732    0.4429    0.5034 H   0  0  0  0  0  0  0  0  0  0  0  0
    3.6672   -0.4478   -0.4967 H   0  0  0  0  0  0  0  0  0  0  0  0
    4.7854   -1.0033    2.2018 H   0  0  0  0  0  0  0  0  0  0  0  0
    3.3538   -2.0069    4.1569 H   0  0  0  0  0  0  0  0  0  0  0  0
    1.9352   -2.6611    3.2791 H   0  0  0  0  0  0  0  0  0  0  0  0
    4.8733   -2.8509    2.7085 H   0  0  0  0  0  0  0  0  0  0  0  0
    3.7553   -4.9408    3.6074 H   0  0  0  0  0  0  0  0  0  0  0  0
    4.5988   -6.8278    2.2933 H   0  0  0  0  0  0  0  0  0  0  0  0
    6.2961   -6.7766    0.6433 H   0  0  0  0  0  0  0  0  0  0  0  0
    5.2882   -5.7532   -0.3653 H   0  0  0  0  0  0  0  0  0  0  0  0
    7.4935   -5.0210    1.3714 H   0  0  0  0  0  0  0  0  0  0  0  0
    6.2035   -5.2355    3.3150 H   0  0  0  0  0  0  0  0  0  0  0  0
    7.3659   -3.6387   -0.5057 H   0  0  0  0  0  0  0  0  0  0  0  0
    7.7709   -1.5934    0.4651 H   0  0  0  0  0  0  0  0  0  0  0  0
    6.5967   -1.8591    1.7860 H   0  0  0  0  0  0  0  0  0  0  0  0
    3.8270   -4.3814   -0.0729 H   0  0  0  0  0  0  0  0  0  0  0  0
    2.5298   -2.7366    1.0216 H   0  0  0  0  0  0  0  0  0  0  0  0
  1  2  1  0
  1 21  1  0
  2 20  1  0
  2  3  1  0
  2 22  1  1
  3  4  2  0
  3 23  1  0
  5  4  1  6
  4 24  1  0
  5 17  1  0
  5 20  1  0
  5  6  1  0
  6 18  1  0
  6  7  1  0
  6 25  1  6
  7  8  1  0
  7 26  1  0
  7 27  1  0
  8 19  1  0
  8  9  1  0
  8 28  1  1
  9 10  1  0
 10 11  1  0
 10 29  1  0
 10 30  1  0
 11 12  1  0
 11 19  1  0
 11 31  1  1
 12 16  1  0
 12 13  1  0
 12 32  1  1
 13 16  1  0
 13 14  1  0
 13 33  1  1
 14 15  1  0
 14 34  1  0
 14 35  1  0
 15 16  1  0
 15 17  1  0
 15 36  1  1
 16 37  1  1
 17 18  1  0
 17 38  1  6
 18 39  1  0
 18 40  1  0
 19 20  1  0
 19 42  1  1
 20 41  1  1
M  CHG  1  19   1
M  END
>  <i_m_ct_stereo_status>  (245) 
1

>  <s_m_source_file>  (245) 
/var/tmp/pbs.5076255.sched01/tmprcd7yfff/907v12ihtf.sdf

>  <i_m_source_file_index>  (245) 
11

>  <i_lp_mmshare_version>  (245) 
48012

>  <i_f3d_flags>  (245) 
0

>  <s_epik_input>  (245) 
W0NIXTE9W0NIXVtDQEBIXShbT0hdKVtDQEBIXTJOKFtDQEhdM1tDSDJdW0NAQEhdNFtDQF0xMjUpW0NAQEhdKFtDSDJdTzMpW0NASF02W0NAQEhdN1tDQEhdNltDQEBIXShbQ0gyXTcpW0NAQEhdNVtDSDJdNA==

>  <s_epik_cmdline>  (245) 
J2VwaWtfcHl0aG9uJywgJy1waHQnLCAnMi4wJywgJy1waCcsICc3LjAnLCAnLXRuJywgJzgnLCAnLW1hJywgJzIwMCcsICctaW1hZScsICc8aW5maWxlLm1hZT4nLCAnLW9tYWUnLCAnPG91dGZpbGUubWFlPic=

>  <r_epik_Ionization_Penalty>  (245) 
0.0222973

>  <r_epik_Ionization_Penalty_Charging>  (245) 
0.0222972

>  <r_epik_Ionization_Penalty_Neutral>  (245) 
9.44645e-08

>  <r_epik_State_Penalty>  (245) 
0.0179821

>  <r_epik_Charging_Adjusted_Penalty>  (245) 
0.0402793

>  <i_epik_Tot_Q>  (245) 
1

>  <i_epik_Tot_abs_Q>  (245) 
1

>  <s_epik_Chemistry_Notes>  (245) 
This compound contains an acetal/aminal-like group ( X-CH(R)-Y where X, Y are N, S, or O) that may be acid/base labile, releasing an aldehyde.

>  <s_lp_Force_Field>  (245) 
OPLS3e

>  <r_lp_Energy>  (245) 
136.69

>  <b_lp_Chiralities_Consistent>  (245) 
1

>  <s_lp_Variant>  (245) 
70:0-1

>  <s_i_glide_gridfile>  (245) 
pfpi4k_grid

>  <i_i_glide_lignum>  (245) 
11

>  <i_i_glide_rotatable_bonds>  (245) 
1

>  <r_i_docking_score>  (245) 
-4.47061

>  <r_i_glide_ligand_efficiency>  (245) 
-0.223531

>  <r_i_glide_ligand_efficiency_sa>  (245) 
-0.606755

>  <r_i_glide_ligand_efficiency_ln>  (245) 
-1.11885

>  <r_i_glide_gscore>  (245) 
-4.47061

>  <r_i_glide_lipo>  (245) 
-0.657293

>  <r_i_glide_hbond>  (245) 
-0.32

>  <r_i_glide_metal>  (245) 
-0

>  <r_i_glide_rewards>  (245) 
-1.55208

>  <r_i_glide_evdw>  (245) 
-20.7296

>  <r_i_glide_ecoul>  (245) 
-5.9247

>  <r_i_glide_erotb>  (245) 
0

>  <r_i_glide_esite>  (245) 
-0.0160557

>  <r_i_glide_emodel>  (245) 
-34.5203

>  <r_i_glide_energy>  (245) 
-26.6543

>  <r_i_glide_einternal>  (245) 
0.390648

>  <r_i_glide_intrahb_reward>  (245) 
-0

>  <i_i_glide_confnum>  (245) 
2

>  <i_i_glide_posenum>  (245) 
28

>  <r_i_glide_eff_state_penalty>  (245) 
0

>  <ligand_id>  (245) 
70

>  <original_smiles>  (245) 
OC1C=CC23C4CC5OCC(C6C7CC(C76)C2C4)N5C13

>  <smiles>  (245) 
[H]OC1([H])C([H])=C([H])C23C4([H])C([H])([H])C2([H])C2([H])C([H])([H])C5([H])C2([H])C5([H])C2([H])C([H])([H])OC([H])(C4([H])[H])[N+]2([H])C13[H]

$$$$
70:1:0
     RDKit          3D

 42 48  0  0  1  0  0  0  0  0999 V2000
    2.0614   -4.8362    1.4384 O   0  0  0  0  0  0  0  0  0  0  0  0
    2.8156   -3.7068    1.8293 C   0  0  2  0  0  0  0  0  0  0  0  0
    1.9365   -2.4952    2.0843 C   0  0  0  0  0  0  0  0  0  0  0  0
    2.4553   -1.3689    1.5731 C   0  0  0  0  0  0  0  0  0  0  0  0
    3.7704   -1.6717    0.9112 C   0  0  2  0  0  0  0  0  0  0  0  0
    4.9583   -1.3313    1.8355 C   0  0  1  0  0  0  0  0  0  0  0  0
    5.6002   -2.5938    2.5109 C   0  0  0  0  0  0  0  0  0  0  0  0
    5.9270   -3.8170    1.5633 C   0  0  1  0  0  0  0  0  0  0  0  0
    5.3828   -5.1156    1.7103 O   0  0  0  0  0  0  0  0  0  0  0  0
    5.1370   -5.6577    0.3490 C   0  0  0  0  0  0  0  0  0  0  0  0
    5.3908   -4.4340   -0.5533 C   0  0  1  0  0  0  0  0  0  0  0  0
    4.9134   -4.0822   -1.9689 C   0  0  1  0  0  0  0  0  0  0  0  0
    3.8654   -3.2246   -2.6955 C   0  0  2  0  0  0  0  0  0  0  0  0
    3.1336   -1.9624   -2.2920 C   0  0  0  0  0  0  0  0  0  0  0  0
    4.4034   -1.3439   -1.7227 C   0  0  2  0  0  0  0  0  0  0  0  0
    5.1662   -2.5973   -2.2672 C   0  0  1  0  0  0  0  0  0  0  0  0
    4.3453   -0.8018   -0.2327 C   0  0  2  0  0  0  0  0  0  0  0  0
    5.6417   -0.6659    0.6088 C   0  0  0  0  0  0  0  0  0  0  0  0
    5.0715   -3.4343    0.3795 N   0  0  1  0  0  0  0  0  0  0  0  0
    3.6556   -3.1358    0.6457 C   0  0  1  0  0  0  0  0  0  0  0  0
    2.6520   -5.5412    1.2391 H   0  0  0  0  0  0  0  0  0  0  0  0
    3.3465   -3.9424    2.7495 H   0  0  0  0  0  0  0  0  0  0  0  0
    0.9849   -2.5468    2.5919 H   0  0  0  0  0  0  0  0  0  0  0  0
    2.0110   -0.3803    1.6059 H   0  0  0  0  0  0  0  0  0  0  0  0
    4.6906   -0.5572    2.5581 H   0  0  0  0  0  0  0  0  0  0  0  0
    6.5546   -2.2478    2.8860 H   0  0  0  0  0  0  0  0  0  0  0  0
    5.0556   -2.9342    3.3866 H   0  0  0  0  0  0  0  0  0  0  0  0
    6.9843   -3.8410    1.3187 H   0  0  0  0  0  0  0  0  0  0  0  0
    5.8386   -6.4608    0.1018 H   0  0  0  0  0  0  0  0  0  0  0  0
    4.1165   -6.0450    0.2541 H   0  0  0  0  0  0  0  0  0  0  0  0
    6.4764   -4.3965   -0.6906 H   0  0  0  0  0  0  0  0  0  0  0  0
    5.3571   -4.7942   -2.6644 H   0  0  0  0  0  0  0  0  0  0  0  0
    3.7133   -3.5139   -3.7356 H   0  0  0  0  0  0  0  0  0  0  0  0
    2.7571   -1.4068   -3.1452 H   0  0  0  0  0  0  0  0  0  0  0  0
    2.3131   -2.1150   -1.6007 H   0  0  0  0  0  0  0  0  0  0  0  0
    4.6853   -0.4918   -2.3393 H   0  0  0  0  0  0  0  0  0  0  0  0
    5.9292   -2.3994   -3.0166 H   0  0  0  0  0  0  0  0  0  0  0  0
    3.8348    0.1464   -0.2019 H   0  0  0  0  0  0  0  0  0  0  0  0
    5.9244    0.3751    0.7831 H   0  0  0  0  0  0  0  0  0  0  0  0
    6.4941   -1.2444    0.2274 H   0  0  0  0  0  0  0  0  0  0  0  0
    3.0539   -3.3650   -0.2212 H   0  0  0  0  0  0  0  0  0  0  0  0
    5.4189   -2.5704   -0.0079 H   0  0  0  0  0  0  0  0  0  0  0  0
  1  2  1  0
  1 21  1  0
  2 20  1  0
  2  3  1  0
  2 22  1  1
  3  4  2  0
  3 23  1  0
  5  4  1  1
  4 24  1  0
  5 17  1  0
  5 20  1  0
  5  6  1  0
  6 18  1  0
  6  7  1  0
  6 25  1  1
  7  8  1  0
  7 26  1  0
  7 27  1  0
  8 19  1  0
  8  9  1  0
  8 28  1  6
  9 10  1  0
 10 11  1  0
 10 29  1  0
 10 30  1  0
 11 12  1  0
 11 19  1  0
 11 31  1  6
 12 16  1  0
 12 13  1  0
 12 32  1  6
 13 16  1  0
 13 14  1  0
 13 33  1  6
 14 15  1  0
 14 34  1  0
 14 35  1  0
 15 16  1  0
 15 17  1  0
 15 36  1  6
 16 37  1  6
 17 18  1  0
 17 38  1  6
 18 39  1  0
 18 40  1  0
 19 20  1  0
 19 42  1  6
 20 41  1  6
M  CHG  1  19   1
M  END
>  <i_m_ct_stereo_status>  (246) 
1

>  <s_m_source_file>  (246) 
/var/tmp/pbs.5076255.sched01/tmprcd7yfff/907v12ihtf.sdf

>  <i_m_source_file_index>  (246) 
12

>  <i_lp_mmshare_version>  (246) 
48012

>  <i_f3d_flags>  (246) 
0

>  <s_epik_input>  (246) 
W0NIXTE9W0NIXVtDQEBIXShbT0hdKVtDQEBIXTJOKFtDQEhdM1tDSDJdW0NAQEhdNFtDQF0xMjUpW0NAQEhdKFtDSDJdTzMpW0NASF02W0NAQEhdN1tDQEhdNltDQEBIXShbQ0gyXTcpW0NAQEhdNVtDSDJdNA==

>  <s_epik_cmdline>  (246) 
J2VwaWtfcHl0aG9uJywgJy1waHQnLCAnMi4wJywgJy1waCcsICc3LjAnLCAnLXRuJywgJzgnLCAnLW1hJywgJzIwMCcsICctaW1hZScsICc8aW5maWxlLm1hZT4nLCAnLW9tYWUnLCAnPG91dGZpbGUubWFlPic=

>  <r_epik_Ionization_Penalty>  (246) 
0.0222973

>  <r_epik_Ionization_Penalty_Charging>  (246) 
0.0222972

>  <r_epik_Ionization_Penalty_Neutral>  (246) 
9.44645e-08

>  <r_epik_State_Penalty>  (246) 
0.0179821

>  <r_epik_Charging_Adjusted_Penalty>  (246) 
0.0402793

>  <i_epik_Tot_Q>  (246) 
1

>  <i_epik_Tot_abs_Q>  (246) 
1

>  <s_epik_Chemistry_Notes>  (246) 
This compound contains an acetal/aminal-like group ( X-CH(R)-Y where X, Y are N, S, or O) that may be acid/base labile, releasing an aldehyde.

>  <s_lp_Force_Field>  (246) 
OPLS3e

>  <r_lp_Energy>  (246) 
131.418

>  <b_lp_Chiralities_Consistent>  (246) 
1

>  <s_lp_Variant>  (246) 
70:0-2

>  <s_i_glide_gridfile>  (246) 
pfpi4k_grid

>  <i_i_glide_lignum>  (246) 
12

>  <i_i_glide_rotatable_bonds>  (246) 
1

>  <r_i_docking_score>  (246) 
-3.10629

>  <r_i_glide_ligand_efficiency>  (246) 
-0.155314

>  <r_i_glide_ligand_efficiency_sa>  (246) 
-0.421588

>  <r_i_glide_ligand_efficiency_ln>  (246) 
-0.777401

>  <r_i_glide_gscore>  (246) 
-3.10629

>  <r_i_glide_lipo>  (246) 
-0.504716

>  <r_i_glide_hbond>  (246) 
0

>  <r_i_glide_metal>  (246) 
-0

>  <r_i_glide_rewards>  (246) 
-1.64278

>  <r_i_glide_evdw>  (246) 
-11.0678

>  <r_i_glide_ecoul>  (246) 
-2.70271

>  <r_i_glide_erotb>  (246) 
0

>  <r_i_glide_esite>  (246) 
0

>  <r_i_glide_emodel>  (246) 
-15.4107

>  <r_i_glide_energy>  (246) 
-13.7705

>  <r_i_glide_einternal>  (246) 
0.405054

>  <r_i_glide_intrahb_reward>  (246) 
-0

>  <i_i_glide_confnum>  (246) 
2

>  <i_i_glide_posenum>  (246) 
33

>  <r_i_glide_eff_state_penalty>  (246) 
0

>  <ligand_id>  (246) 
70

>  <original_smiles>  (246) 
OC1C=CC23C4CC5OCC(C6C7CC(C76)C2C4)N5C13

>  <smiles>  (246) 
[H]OC1([H])C([H])=C([H])C23C4([H])C([H])([H])C2([H])C2([H])C([H])([H])C5([H])C2([H])C5([H])C2([H])C([H])([H])OC([H])(C4([H])[H])[N+]2([H])C13[H]

$$$$
70:1:1
     RDKit          3D

 42 48  0  0  1  0  0  0  0  0999 V2000
    2.2170   -4.4385    1.4439 O   0  0  0  0  0  0  0  0  0  0  0  0
    3.3189   -3.6255    1.7657 C   0  0  2  0  0  0  0  0  0  0  0  0
    2.8988   -2.3183    2.3888 C   0  0  0  0  0  0  0  0  0  0  0  0
    3.6139   -1.2752    1.9296 C   0  0  0  0  0  0  0  0  0  0  0  0
    4.6247   -1.7575    0.9273 C   0  0  2  0  0  0  0  0  0  0  0  0
    6.0331   -1.9393    1.5352 C   0  0  1  0  0  0  0  0  0  0  0  0
    6.3869   -3.4582    1.8211 C   0  0  0  0  0  0  0  0  0  0  0  0
    6.1518   -4.4718    0.6738 C   0  0  1  0  0  0  0  0  0  0  0  0
    5.3146   -5.5871    0.8043 O   0  0  0  0  0  0  0  0  0  0  0  0
    4.5964   -5.7407   -0.4620 C   0  0  0  0  0  0  0  0  0  0  0  0
    4.9612   -4.4709   -1.2548 C   0  0  1  0  0  0  0  0  0  0  0  0
    4.3290   -3.7390   -2.4309 C   0  0  1  0  0  0  0  0  0  0  0  0
    3.4812   -2.5026   -2.7466 C   0  0  2  0  0  0  0  0  0  0  0  0
    3.3086   -1.1969   -2.0087 C   0  0  0  0  0  0  0  0  0  0  0  0
    4.7810   -1.0708   -1.7199 C   0  0  2  0  0  0  0  0  0  0  0  0
    4.9718   -2.3565   -2.5919 C   0  0  1  0  0  0  0  0  0  0  0  0
    5.1781   -0.8484   -0.1997 C   0  0  2  0  0  0  0  0  0  0  0  0
    6.6035   -1.2213    0.2842 C   0  0  0  0  0  0  0  0  0  0  0  0
    5.2009   -3.6367   -0.1645 N   0  0  1  0  0  0  0  0  0  0  0  0
    4.0202   -3.0500    0.5083 C   0  0  1  0  0  0  0  0  0  0  0  0
    2.5564   -5.2725    1.1778 H   0  0  0  0  0  0  0  0  0  0  0  0
    3.9452   -4.1564    2.4832 H   0  0  0  0  0  0  0  0  0  0  0  0
    2.1177   -2.2376    3.1143 H   0  0  0  0  0  0  0  0  0  0  0  0
    3.5047   -0.2520    2.2354 H   0  0  0  0  0  0  0  0  0  0  0  0
    6.1608   -1.3071    2.4109 H   0  0  0  0  0  0  0  0  0  0  0  0
    7.4518   -3.5329    1.9792 H   0  0  0  0  0  0  0  0  0  0  0  0
    5.9393   -3.8441    2.7359 H   0  0  0  0  0  0  0  0  0  0  0  0
    7.0779   -4.7210    0.1442 H   0  0  0  0  0  0  0  0  0  0  0  0
    4.9407   -6.6078   -1.0105 H   0  0  0  0  0  0  0  0  0  0  0  0
    3.5229   -5.8310   -0.2881 H   0  0  0  0  0  0  0  0  0  0  0  0
    5.9382   -4.6447   -1.6797 H   0  0  0  0  0  0  0  0  0  0  0  0
    4.4492   -4.3765   -3.3058 H   0  0  0  0  0  0  0  0  0  0  0  0
    3.0782   -2.4877   -3.7510 H   0  0  0  0  0  0  0  0  0  0  0  0
    2.9281   -0.4209   -2.6707 H   0  0  0  0  0  0  0  0  0  0  0  0
    2.6879   -1.2342   -1.1264 H   0  0  0  0  0  0  0  0  0  0  0  0
    5.1497   -0.2101   -2.2798 H   0  0  0  0  0  0  0  0  0  0  0  0
    5.5636   -2.2455   -3.4899 H   0  0  0  0  0  0  0  0  0  0  0  0
    4.9520    0.1769    0.0894 H   0  0  0  0  0  0  0  0  0  0  0  0
    7.2068   -0.3407    0.5028 H   0  0  0  0  0  0  0  0  0  0  0  0
    7.1502   -1.8986   -0.3800 H   0  0  0  0  0  0  0  0  0  0  0  0
    3.2113   -2.9410   -0.1988 H   0  0  0  0  0  0  0  0  0  0  0  0
    5.7015   -2.8245   -0.5105 H   0  0  0  0  0  0  0  0  0  0  0  0
  1  2  1  0
  1 21  1  0
  2 20  1  0
  2  3  1  0
  2 22  1  1
  3  4  2  0
  3 23  1  0
  5  4  1  1
  4 24  1  0
  5 17  1  0
  5 20  1  0
  5  6  1  0
  6 18  1  0
  6  7  1  0
  6 25  1  1
  7  8  1  0
  7 26  1  0
  7 27  1  0
  8 19  1  0
  8  9  1  0
  8 28  1  6
  9 10  1  0
 10 11  1  0
 10 29  1  0
 10 30  1  0
 11 12  1  0
 11 19  1  0
 11 31  1  6
 12 16  1  0
 12 13  1  0
 12 32  1  6
 13 16  1  0
 13 14  1  0
 13 33  1  6
 14 15  1  0
 14 34  1  0
 14 35  1  0
 15 16  1  0
 15 17  1  0
 15 36  1  6
 16 37  1  6
 17 18  1  0
 17 38  1  1
 18 39  1  0
 18 40  1  0
 19 20  1  0
 19 42  1  6
 20 41  1  6
M  CHG  1  19   1
M  END
>  <i_m_ct_stereo_status>  (247) 
1

>  <s_m_source_file>  (247) 
/var/tmp/pbs.5076255.sched01/tmprcd7yfff/907v12ihtf.sdf

>  <i_m_source_file_index>  (247) 
12

>  <i_lp_mmshare_version>  (247) 
48012

>  <i_f3d_flags>  (247) 
0

>  <s_epik_input>  (247) 
W0NIXTE9W0NIXVtDQEBIXShbT0hdKVtDQEBIXTJOKFtDQEhdM1tDSDJdW0NAQEhdNFtDQF0xMjUpW0NAQEhdKFtDSDJdTzMpW0NASF02W0NAQEhdN1tDQEhdNltDQEBIXShbQ0gyXTcpW0NAQEhdNVtDSDJdNA==

>  <s_epik_cmdline>  (247) 
J2VwaWtfcHl0aG9uJywgJy1waHQnLCAnMi4wJywgJy1waCcsICc3LjAnLCAnLXRuJywgJzgnLCAnLW1hJywgJzIwMCcsICctaW1hZScsICc8aW5maWxlLm1hZT4nLCAnLW9tYWUnLCAnPG91dGZpbGUubWFlPic=

>  <r_epik_Ionization_Penalty>  (247) 
0.0222973

>  <r_epik_Ionization_Penalty_Charging>  (247) 
0.0222972

>  <r_epik_Ionization_Penalty_Neutral>  (247) 
9.44645e-08

>  <r_epik_State_Penalty>  (247) 
0.0179821

>  <r_epik_Charging_Adjusted_Penalty>  (247) 
0.0402793

>  <i_epik_Tot_Q>  (247) 
1

>  <i_epik_Tot_abs_Q>  (247) 
1

>  <s_epik_Chemistry_Notes>  (247) 
This compound contains an acetal/aminal-like group ( X-CH(R)-Y where X, Y are N, S, or O) that may be acid/base labile, releasing an aldehyde.

>  <s_lp_Force_Field>  (247) 
OPLS3e

>  <r_lp_Energy>  (247) 
131.418

>  <b_lp_Chiralities_Consistent>  (247) 
1

>  <s_lp_Variant>  (247) 
70:0-2

>  <s_i_glide_gridfile>  (247) 
pfpi4k_grid

>  <i_i_glide_lignum>  (247) 
12

>  <i_i_glide_rotatable_bonds>  (247) 
1

>  <r_i_docking_score>  (247) 
-2.72011

>  <r_i_glide_ligand_efficiency>  (247) 
-0.136006

>  <r_i_glide_ligand_efficiency_sa>  (247) 
-0.369176

>  <r_i_glide_ligand_efficiency_ln>  (247) 
-0.680755

>  <r_i_glide_gscore>  (247) 
-2.72011

>  <r_i_glide_lipo>  (247) 
-0.367802

>  <r_i_glide_hbond>  (247) 
0

>  <r_i_glide_metal>  (247) 
-0

>  <r_i_glide_rewards>  (247) 
-1.68727

>  <r_i_glide_evdw>  (247) 
-5.59763

>  <r_i_glide_ecoul>  (247) 
-2.56772

>  <r_i_glide_erotb>  (247) 
0

>  <r_i_glide_esite>  (247) 
0

>  <r_i_glide_emodel>  (247) 
-9.42578

>  <r_i_glide_energy>  (247) 
-8.16535

>  <r_i_glide_einternal>  (247) 
0.455099

>  <r_i_glide_intrahb_reward>  (247) 
-0

>  <i_i_glide_confnum>  (247) 
1

>  <i_i_glide_posenum>  (247) 
13

>  <r_i_glide_eff_state_penalty>  (247) 
0

>  <ligand_id>  (247) 
70

>  <original_smiles>  (247) 
OC1C=CC23C4CC5OCC(C6C7CC(C76)C2C4)N5C13

>  <smiles>  (247) 
[H]OC1([H])C([H])=C([H])C23C4([H])C([H])([H])C2([H])C2([H])C([H])([H])C5([H])C2([H])C5([H])C2([H])C([H])([H])OC([H])(C4([H])[H])[N+]2([H])C13[H]

$$$$
70:2:0
     RDKit          3D

 41 47  0  0  1  0  0  0  0  0999 V2000
    6.2171   -2.8130   -2.4244 O   0  0  0  0  0  0  0  0  0  0  0  0
    5.1930   -3.6197   -1.8585 C   0  0  2  0  0  0  0  0  0  0  0  0
    3.8688   -3.3532   -2.5645 C   0  0  0  0  0  0  0  0  0  0  0  0
    2.8527   -3.2799   -1.7036 C   0  0  0  0  0  0  0  0  0  0  0  0
    3.3450   -3.4662   -0.2921 C   0  0  2  0  0  0  0  0  0  0  0  0
    3.0823   -4.9034    0.2381 C   0  0  1  0  0  0  0  0  0  0  0  0
    4.3416   -5.8268    0.2543 C   0  0  0  0  0  0  0  0  0  0  0  0
    5.5620   -5.0609    0.8741 C   0  0  1  0  0  0  0  0  0  0  0  0
    6.8427   -5.0818    0.2818 O   0  0  0  0  0  0  0  0  0  0  0  0
    7.4728   -3.7878    0.6667 C   0  0  0  0  0  0  0  0  0  0  0  0
    6.3405   -3.0976    1.4182 C   0  0  1  0  0  0  0  0  0  0  0  0
    6.1118   -1.6124    1.7547 C   0  0  1  0  0  0  0  0  0  0  0  0
    5.1480   -0.4635    1.3662 C   0  0  2  0  0  0  0  0  0  0  0  0
    3.7778   -0.3941    0.7680 C   0  0  0  0  0  0  0  0  0  0  0  0
    3.2876   -1.5514    1.6481 C   0  0  2  0  0  0  0  0  0  0  0  0
    4.6757   -1.4800    2.3381 C   0  0  1  0  0  0  0  0  0  0  0  0
    2.6381   -2.7943    0.9149 C   0  0  2  0  0  0  0  0  0  0  0  0
    2.5766   -4.2165    1.5382 C   0  0  0  0  0  0  0  0  0  0  0  0
    5.2794   -3.7007    0.8576 N   0  0  0  0  0  0  0  0  0  0  0  0
    4.7928   -3.1616   -0.4197 C   0  0  1  0  0  0  0  0  0  0  0  0
    6.6703   -3.3224   -3.0624 H   0  0  0  0  0  0  0  0  0  0  0  0
    5.4180   -4.6599   -1.9686 H   0  0  0  0  0  0  0  0  0  0  0  0
    3.7807   -3.2903   -3.6425 H   0  0  0  0  0  0  0  0  0  0  0  0
    1.8204   -3.1045   -1.9925 H   0  0  0  0  0  0  0  0  0  0  0  0
    2.2129   -5.3504   -0.2754 H   0  0  0  0  0  0  0  0  0  0  0  0
    4.1729   -6.7191    0.8595 H   0  0  0  0  0  0  0  0  0  0  0  0
    4.6080   -6.1906   -0.7276 H   0  0  0  0  0  0  0  0  0  0  0  0
    5.6573   -5.3716    1.9125 H   0  0  0  0  0  0  0  0  0  0  0  0
    8.3535   -3.9563    1.2974 H   0  0  0  0  0  0  0  0  0  0  0  0
    7.7937   -3.2404   -0.2237 H   0  0  0  0  0  0  0  0  0  0  0  0
    6.4071   -3.5186    2.4331 H   0  0  0  0  0  0  0  0  0  0  0  0
    6.8851   -1.2386    2.4032 H   0  0  0  0  0  0  0  0  0  0  0  0
    5.4701    0.5337    1.7196 H   0  0  0  0  0  0  0  0  0  0  0  0
    3.2445    0.5145    0.9992 H   0  0  0  0  0  0  0  0  0  0  0  0
    3.6776   -0.6108   -0.3011 H   0  0  0  0  0  0  0  0  0  0  0  0
    2.5264   -1.1726    2.3262 H   0  0  0  0  0  0  0  0  0  0  0  0
    4.6082   -1.2082    3.4090 H   0  0  0  0  0  0  0  0  0  0  0  0
    1.6359   -2.5157    0.5773 H   0  0  0  0  0  0  0  0  0  0  0  0
    1.5776   -4.5218    1.8632 H   0  0  0  0  0  0  0  0  0  0  0  0
    3.2647   -4.3226    2.3804 H   0  0  0  0  0  0  0  0  0  0  0  0
    4.9860   -2.1058   -0.4767 H   0  0  0  0  0  0  0  0  0  0  0  0
  1  2  1  0
  1 21  1  0
  2 20  1  0
  2  3  1  0
  2 22  1  1
  3  4  2  0
  3 23  1  0
  5  4  1  6
  4 24  1  0
  5 17  1  0
  5 20  1  0
  5  6  1  0
  6 18  1  0
  6  7  1  0
  6 25  1  6
  7  8  1  0
  7 26  1  0
  7 27  1  0
  8 19  1  0
  8  9  1  0
  8 28  1  1
  9 10  1  0
 10 11  1  0
 10 29  1  0
 10 30  1  0
 11 12  1  0
 11 19  1  0
 11 31  1  1
 12 16  1  0
 12 13  1  0
 12 32  1  1
 13 16  1  0
 13 14  1  0
 13 33  1  1
 14 15  1  0
 14 34  1  0
 14 35  1  0
 15 16  1  0
 15 17  1  0
 15 36  1  1
 16 37  1  1
 17 18  1  0
 17 38  1  6
 18 39  1  0
 18 40  1  0
 19 20  1  0
 20 41  1  6
M  END
>  <i_m_ct_stereo_status>  (248) 
1

>  <s_m_source_file>  (248) 
/var/tmp/pbs.5076255.sched01/tmprcd7yfff/907v12ihtf.sdf

>  <i_m_source_file_index>  (248) 
13

>  <i_lp_mmshare_version>  (248) 
48012

>  <i_f3d_flags>  (248) 
0

>  <s_epik_input>  (248) 
W0NIXTE9W0NIXVtDQEBIXShbT0hdKVtDQEBIXTJOKFtDQEhdM1tDSDJdW0NAQEhdNFtDQF0xMjUpW0NAQEhdKFtDSDJdTzMpW0NASF02W0NAQEhdN1tDQEhdNltDQEBIXShbQ0gyXTcpW0NAQEhdNVtDSDJdNA==

>  <s_epik_cmdline>  (248) 
J2VwaWtfcHl0aG9uJywgJy1waHQnLCAnMi4wJywgJy1waCcsICc3LjAnLCAnLXRuJywgJzgnLCAnLW1hJywgJzIwMCcsICctaW1hZScsICc8aW5maWxlLm1hZT4nLCAnLW9tYWUnLCAnPG91dGZpbGUubWFlPic=

>  <r_epik_Ionization_Penalty>  (248) 
1.95439

>  <r_epik_Ionization_Penalty_Charging>  (248) 
0

>  <r_epik_Ionization_Penalty_Neutral>  (248) 
1.95439

>  <r_epik_State_Penalty>  (248) 
2.07968

>  <r_epik_Charging_Adjusted_Penalty>  (248) 
2.07968

>  <i_epik_Tot_Q>  (248) 
0

>  <i_epik_Tot_abs_Q>  (248) 
0

>  <s_epik_Chemistry_Notes>  (248) 
This compound contains an acetal/aminal-like group ( X-CH(R)-Y where X, Y are N, S, or O) that may be acid/base labile, releasing an aldehyde.

>  <s_lp_Force_Field>  (248) 
OPLS3e

>  <r_lp_Energy>  (248) 
123.084

>  <b_lp_Chiralities_Consistent>  (248) 
1

>  <s_lp_Variant>  (248) 
70:0-3

>  <s_i_glide_gridfile>  (248) 
pfpi4k_grid

>  <i_i_glide_lignum>  (248) 
13

>  <i_i_glide_rotatable_bonds>  (248) 
1

>  <r_i_docking_score>  (248) 
-3.72565

>  <r_i_glide_ligand_efficiency>  (248) 
-0.186282

>  <r_i_glide_ligand_efficiency_sa>  (248) 
-0.505648

>  <r_i_glide_ligand_efficiency_ln>  (248) 
-0.932407

>  <r_i_glide_gscore>  (248) 
-3.72565

>  <r_i_glide_lipo>  (248) 
-0.901963

>  <r_i_glide_hbond>  (248) 
-0.0467604

>  <r_i_glide_metal>  (248) 
-0

>  <r_i_glide_rewards>  (248) 
-1.67111

>  <r_i_glide_evdw>  (248) 
-18.1955

>  <r_i_glide_ecoul>  (248) 
-1.3069

>  <r_i_glide_erotb>  (248) 
0

>  <r_i_glide_esite>  (248) 
0

>  <r_i_glide_emodel>  (248) 
-24.361

>  <r_i_glide_energy>  (248) 
-19.5024

>  <r_i_glide_einternal>  (248) 
0.482154

>  <r_i_glide_intrahb_reward>  (248) 
-0

>  <i_i_glide_confnum>  (248) 
2

>  <i_i_glide_posenum>  (248) 
5

>  <r_i_glide_eff_state_penalty>  (248) 
0

>  <ligand_id>  (248) 
70

>  <original_smiles>  (248) 
OC1C=CC23C4CC5OCC(C6C7CC(C76)C2C4)N5C13

>  <smiles>  (248) 
[H]OC1([H])C([H])=C([H])C23C1([H])N1C4([H])OC([H])([H])C1([H])C1([H])C5([H])C([H])([H])C([H])(C51[H])C2([H])C([H])([H])C3([H])C4([H])[H]

$$$$
70:2:1
     RDKit          3D

 41 47  0  0  1  0  0  0  0  0999 V2000
    4.8215   -1.0427   -2.0843 O   0  0  0  0  0  0  0  0  0  0  0  0
    4.6157   -2.3504   -1.5713 C   0  0  2  0  0  0  0  0  0  0  0  0
    3.2496   -2.8669   -1.9878 C   0  0  0  0  0  0  0  0  0  0  0  0
    2.6157   -3.4965   -0.9915 C   0  0  0  0  0  0  0  0  0  0  0  0
    3.4556   -3.4987    0.2549 C   0  0  2  0  0  0  0  0  0  0  0  0
    4.1671   -4.8678    0.4631 C   0  0  1  0  0  0  0  0  0  0  0  0
    5.6761   -4.8639    0.0787 C   0  0  0  0  0  0  0  0  0  0  0  0
    6.3950   -3.6022    0.6597 C   0  0  1  0  0  0  0  0  0  0  0  0
    7.2589   -2.8048   -0.1227 O   0  0  0  0  0  0  0  0  0  0  0  0
    7.1623   -1.4506    0.4798 C   0  0  0  0  0  0  0  0  0  0  0  0
    6.0867   -1.6347    1.5496 C   0  0  1  0  0  0  0  0  0  0  0  0
    5.1990   -0.6270    2.2699 C   0  0  1  0  0  0  0  0  0  0  0  0
    3.7017   -0.2130    2.3163 C   0  0  2  0  0  0  0  0  0  0  0  0
    2.4091   -0.8927    1.9513 C   0  0  0  0  0  0  0  0  0  0  0  0
    2.8722   -2.2158    2.5861 C   0  0  2  0  0  0  0  0  0  0  0  0
    4.1268   -1.4302    3.0658 C   0  0  1  0  0  0  0  0  0  0  0  0
    2.8265   -3.5124    1.6774 C   0  0  2  0  0  0  0  0  0  0  0  0
    3.7080   -4.7604    1.9439 C   0  0  0  0  0  0  0  0  0  0  0  0
    5.4206   -2.6709    1.0181 N   0  0  0  0  0  0  0  0  0  0  0  0
    4.4153   -2.3854   -0.0095 C   0  0  1  0  0  0  0  0  0  0  0  0
    4.0856   -0.5151   -1.8588 H   0  0  0  0  0  0  0  0  0  0  0  0
    5.3721   -3.0277   -1.9580 H   0  0  0  0  0  0  0  0  0  0  0  0
    2.8459   -2.7424   -2.9876 H   0  0  0  0  0  0  0  0  0  0  0  0
    1.6303   -3.9254   -1.0845 H   0  0  0  0  0  0  0  0  0  0  0  0
    3.5949   -5.6803   -0.0078 H   0  0  0  0  0  0  0  0  0  0  0  0
    6.1943   -5.7428    0.4574 H   0  0  0  0  0  0  0  0  0  0  0  0
    5.8081   -4.8804   -0.9980 H   0  0  0  0  0  0  0  0  0  0  0  0
    6.9207   -3.8998    1.5600 H   0  0  0  0  0  0  0  0  0  0  0  0
    8.1181   -1.1199    0.8883 H   0  0  0  0  0  0  0  0  0  0  0  0
    6.8438   -0.7263   -0.2728 H   0  0  0  0  0  0  0  0  0  0  0  0
    6.6137   -2.0428    2.4152 H   0  0  0  0  0  0  0  0  0  0  0  0
    5.8048    0.0426    2.8664 H   0  0  0  0  0  0  0  0  0  0  0  0
    3.5227    0.7214    2.8642 H   0  0  0  0  0  0  0  0  0  0  0  0
    1.5368   -0.5067    2.4637 H   0  0  0  0  0  0  0  0  0  0  0  0
    2.1830   -0.9892    0.8868 H   0  0  0  0  0  0  0  0  0  0  0  0
    2.2377   -2.4303    3.4449 H   0  0  0  0  0  0  0  0  0  0  0  0
    4.1964   -1.3543    4.1633 H   0  0  0  0  0  0  0  0  0  0  0  0
    1.8103   -3.8652    1.5868 H   0  0  0  0  0  0  0  0  0  0  0  0
    3.1624   -5.6271    2.3251 H   0  0  0  0  0  0  0  0  0  0  0  0
    4.5415   -4.5353    2.6289 H   0  0  0  0  0  0  0  0  0  0  0  0
    3.9702   -1.4199    0.1613 H   0  0  0  0  0  0  0  0  0  0  0  0
  1  2  1  0
  1 21  1  0
  2 20  1  0
  2  3  1  0
  2 22  1  1
  3  4  2  0
  3 23  1  0
  5  4  1  6
  4 24  1  0
  5 17  1  0
  5 20  1  0
  5  6  1  0
  6 18  1  0
  6  7  1  0
  6 25  1  6
  7  8  1  0
  7 26  1  0
  7 27  1  0
  8 19  1  0
  8  9  1  0
  8 28  1  1
  9 10  1  0
 10 11  1  0
 10 29  1  0
 10 30  1  0
 11 12  1  0
 11 19  1  0
 11 31  1  1
 12 16  1  0
 12 13  1  0
 12 32  1  1
 13 16  1  0
 13 14  1  0
 13 33  1  1
 14 15  1  0
 14 34  1  0
 14 35  1  0
 15 16  1  0
 15 17  1  0
 15 36  1  1
 16 37  1  1
 17 18  1  0
 17 38  1  6
 18 39  1  0
 18 40  1  0
 19 20  1  0
 20 41  1  1
M  END
>  <i_m_ct_stereo_status>  (249) 
1

>  <s_m_source_file>  (249) 
/var/tmp/pbs.5076255.sched01/tmprcd7yfff/907v12ihtf.sdf

>  <i_m_source_file_index>  (249) 
13

>  <i_lp_mmshare_version>  (249) 
48012

>  <i_f3d_flags>  (249) 
0

>  <s_epik_input>  (249) 
W0NIXTE9W0NIXVtDQEBIXShbT0hdKVtDQEBIXTJOKFtDQEhdM1tDSDJdW0NAQEhdNFtDQF0xMjUpW0NAQEhdKFtDSDJdTzMpW0NASF02W0NAQEhdN1tDQEhdNltDQEBIXShbQ0gyXTcpW0NAQEhdNVtDSDJdNA==

>  <s_epik_cmdline>  (249) 
J2VwaWtfcHl0aG9uJywgJy1waHQnLCAnMi4wJywgJy1waCcsICc3LjAnLCAnLXRuJywgJzgnLCAnLW1hJywgJzIwMCcsICctaW1hZScsICc8aW5maWxlLm1hZT4nLCAnLW9tYWUnLCAnPG91dGZpbGUubWFlPic=

>  <r_epik_Ionization_Penalty>  (249) 
1.95439

>  <r_epik_Ionization_Penalty_Charging>  (249) 
0

>  <r_epik_Ionization_Penalty_Neutral>  (249) 
1.95439

>  <r_epik_State_Penalty>  (249) 
2.07968

>  <r_epik_Charging_Adjusted_Penalty>  (249) 
2.07968

>  <i_epik_Tot_Q>  (249) 
0

>  <i_epik_Tot_abs_Q>  (249) 
0

>  <s_epik_Chemistry_Notes>  (249) 
This compound contains an acetal/aminal-like group ( X-CH(R)-Y where X, Y are N, S, or O) that may be acid/base labile, releasing an aldehyde.

>  <s_lp_Force_Field>  (249) 
OPLS3e

>  <r_lp_Energy>  (249) 
123.084

>  <b_lp_Chiralities_Consistent>  (249) 
1

>  <s_lp_Variant>  (249) 
70:0-3

>  <s_i_glide_gridfile>  (249) 
pfpi4k_grid

>  <i_i_glide_lignum>  (249) 
13

>  <i_i_glide_rotatable_bonds>  (249) 
1

>  <r_i_docking_score>  (249) 
-3.49317

>  <r_i_glide_ligand_efficiency>  (249) 
-0.174658

>  <r_i_glide_ligand_efficiency_sa>  (249) 
-0.474096

>  <r_i_glide_ligand_efficiency_ln>  (249) 
-0.874224

>  <r_i_glide_gscore>  (249) 
-3.49317

>  <r_i_glide_lipo>  (249) 
-0.44266

>  <r_i_glide_hbond>  (249) 
0

>  <r_i_glide_metal>  (249) 
-0

>  <r_i_glide_rewards>  (249) 
-1.68253

>  <r_i_glide_evdw>  (249) 
-22.3626

>  <r_i_glide_ecoul>  (249) 
-1.66565

>  <r_i_glide_erotb>  (249) 
0

>  <r_i_glide_esite>  (249) 
0

>  <r_i_glide_emodel>  (249) 
-28.9898

>  <r_i_glide_energy>  (249) 
-24.0282

>  <r_i_glide_einternal>  (249) 
0.023275

>  <r_i_glide_intrahb_reward>  (249) 
-0

>  <i_i_glide_confnum>  (249) 
1

>  <i_i_glide_posenum>  (249) 
1

>  <r_i_glide_eff_state_penalty>  (249) 
0

>  <ligand_id>  (249) 
70

>  <original_smiles>  (249) 
OC1C=CC23C4CC5OCC(C6C7CC(C76)C2C4)N5C13

>  <smiles>  (249) 
[H]OC1([H])C([H])=C([H])C23C1([H])N1C4([H])OC([H])([H])C1([H])C1([H])C5([H])C([H])([H])C([H])(C51[H])C2([H])C([H])([H])C3([H])C4([H])[H]

$$$$
70:2:2
     RDKit          3D

 41 47  0  0  1  0  0  0  0  0999 V2000
    5.9203   -5.8738    0.8115 O   0  0  0  0  0  0  0  0  0  0  0  0
    5.5597   -4.6160    1.3624 C   0  0  2  0  0  0  0  0  0  0  0  0
    4.2087   -4.7332    2.0414 C   0  0  0  0  0  0  0  0  0  0  0  0
    3.4199   -3.6792    1.7952 C   0  0  0  0  0  0  0  0  0  0  0  0
    4.1388   -2.7017    0.9049 C   0  0  2  0  0  0  0  0  0  0  0  0
    4.6636   -1.5035    1.7189 C   0  0  1  0  0  0  0  0  0  0  0  0
    6.1977   -1.5683    1.9677 C   0  0  0  0  0  0  0  0  0  0  0  0
    6.9750   -1.9341    0.6586 C   0  0  1  0  0  0  0  0  0  0  0  0
    7.9869   -2.9072    0.6357 O   0  0  0  0  0  0  0  0  0  0  0  0
    7.9892   -3.4701   -0.7311 C   0  0  0  0  0  0  0  0  0  0  0  0
    6.7777   -2.7723   -1.3551 C   0  0  1  0  0  0  0  0  0  0  0  0
    5.8845   -3.0950   -2.5594 C   0  0  1  0  0  0  0  0  0  0  0  0
    4.4371   -3.5071   -2.8770 C   0  0  2  0  0  0  0  0  0  0  0  0
    3.1301   -3.4181   -2.1111 C   0  0  0  0  0  0  0  0  0  0  0  0
    3.4294   -2.0357   -1.6353 C   0  0  2  0  0  0  0  0  0  0  0  0
    4.6982   -2.0779   -2.5417 C   0  0  1  0  0  0  0  0  0  0  0  0
    3.3645   -1.8004   -0.0605 C   0  0  2  0  0  0  0  0  0  0  0  0
    4.0758   -0.5940    0.6097 C   0  0  0  0  0  0  0  0  0  0  0  0
    6.0656   -2.4761   -0.2433 N   0  0  0  0  0  0  0  0  0  0  0  0
    5.2093   -3.5361    0.2881 C   0  0  1  0  0  0  0  0  0  0  0  0
    5.2537   -6.1341    0.1971 H   0  0  0  0  0  0  0  0  0  0  0  0
    6.2943   -4.3227    2.1123 H   0  0  0  0  0  0  0  0  0  0  0  0
    3.9211   -5.5765    2.6447 H   0  0  0  0  0  0  0  0  0  0  0  0
    2.4066   -3.5965    2.1660 H   0  0  0  0  0  0  0  0  0  0  0  0
    4.0639   -1.3551    2.6162 H   0  0  0  0  0  0  0  0  0  0  0  0
    6.5870   -0.6298    2.3474 H   0  0  0  0  0  0  0  0  0  0  0  0
    6.3735   -2.3124    2.7263 H   0  0  0  0  0  0  0  0  0  0  0  0
    7.3664   -1.0111    0.2326 H   0  0  0  0  0  0  0  0  0  0  0  0
    8.9027   -3.2507   -1.2850 H   0  0  0  0  0  0  0  0  0  0  0  0
    7.8905   -4.5492   -0.6514 H   0  0  0  0  0  0  0  0  0  0  0  0
    7.2015   -1.8516   -1.7127 H   0  0  0  0  0  0  0  0  0  0  0  0
    6.4952   -3.0983   -3.4569 H   0  0  0  0  0  0  0  0  0  0  0  0
    4.2460   -3.7092   -3.9295 H   0  0  0  0  0  0  0  0  0  0  0  0
    2.2652   -3.4482   -2.7788 H   0  0  0  0  0  0  0  0  0  0  0  0
    2.9828   -4.1336   -1.2985 H   0  0  0  0  0  0  0  0  0  0  0  0
    2.7012   -1.3623   -2.0911 H   0  0  0  0  0  0  0  0  0  0  0  0
    4.5822   -1.4268   -3.3994 H   0  0  0  0  0  0  0  0  0  0  0  0
    2.3434   -1.8575    0.3096 H   0  0  0  0  0  0  0  0  0  0  0  0
    3.3909    0.1696    0.9745 H   0  0  0  0  0  0  0  0  0  0  0  0
    4.8378   -0.1507   -0.0338 H   0  0  0  0  0  0  0  0  0  0  0  0
    4.8239   -4.1424   -0.5158 H   0  0  0  0  0  0  0  0  0  0  0  0
  1  2  1  0
  1 21  1  0
  2 20  1  0
  2  3  1  0
  2 22  1  1
  3  4  2  0
  3 23  1  0
  5  4  1  1
  4 24  1  0
  5 17  1  0
  5 20  1  0
  5  6  1  0
  6 18  1  0
  6  7  1  0
  6 25  1  1
  7  8  1  0
  7 26  1  0
  7 27  1  0
  8 19  1  0
  8  9  1  0
  8 28  1  6
  9 10  1  0
 10 11  1  0
 10 29  1  0
 10 30  1  0
 11 12  1  0
 11 19  1  0
 11 31  1  6
 12 16  1  0
 12 13  1  0
 12 32  1  6
 13 16  1  0
 13 14  1  0
 13 33  1  6
 14 15  1  0
 14 34  1  0
 14 35  1  0
 15 16  1  0
 15 17  1  0
 15 36  1  6
 16 37  1  6
 17 18  1  0
 17 38  1  1
 18 39  1  0
 18 40  1  0
 19 20  1  0
 20 41  1  6
M  END
>  <i_m_ct_stereo_status>  (250) 
1

>  <s_m_source_file>  (250) 
/var/tmp/pbs.5076255.sched01/tmprcd7yfff/907v12ihtf.sdf

>  <i_m_source_file_index>  (250) 
13

>  <i_lp_mmshare_version>  (250) 
48012

>  <i_f3d_flags>  (250) 
0

>  <s_epik_input>  (250) 
W0NIXTE9W0NIXVtDQEBIXShbT0hdKVtDQEBIXTJOKFtDQEhdM1tDSDJdW0NAQEhdNFtDQF0xMjUpW0NAQEhdKFtDSDJdTzMpW0NASF02W0NAQEhdN1tDQEhdNltDQEBIXShbQ0gyXTcpW0NAQEhdNVtDSDJdNA==

>  <s_epik_cmdline>  (250) 
J2VwaWtfcHl0aG9uJywgJy1waHQnLCAnMi4wJywgJy1waCcsICc3LjAnLCAnLXRuJywgJzgnLCAnLW1hJywgJzIwMCcsICctaW1hZScsICc8aW5maWxlLm1hZT4nLCAnLW9tYWUnLCAnPG91dGZpbGUubWFlPic=

>  <r_epik_Ionization_Penalty>  (250) 
1.95439

>  <r_epik_Ionization_Penalty_Charging>  (250) 
0

>  <r_epik_Ionization_Penalty_Neutral>  (250) 
1.95439

>  <r_epik_State_Penalty>  (250) 
2.07968

>  <r_epik_Charging_Adjusted_Penalty>  (250) 
2.07968

>  <i_epik_Tot_Q>  (250) 
0

>  <i_epik_Tot_abs_Q>  (250) 
0

>  <s_epik_Chemistry_Notes>  (250) 
This compound contains an acetal/aminal-like group ( X-CH(R)-Y where X, Y are N, S, or O) that may be acid/base labile, releasing an aldehyde.

>  <s_lp_Force_Field>  (250) 
OPLS3e

>  <r_lp_Energy>  (250) 
123.084

>  <b_lp_Chiralities_Consistent>  (250) 
1

>  <s_lp_Variant>  (250) 
70:0-3

>  <s_i_glide_gridfile>  (250) 
pfpi4k_grid

>  <i_i_glide_lignum>  (250) 
13

>  <i_i_glide_rotatable_bonds>  (250) 
1

>  <r_i_docking_score>  (250) 
-3.46193

>  <r_i_glide_ligand_efficiency>  (250) 
-0.173097

>  <r_i_glide_ligand_efficiency_sa>  (250) 
-0.469856

>  <r_i_glide_ligand_efficiency_ln>  (250) 
-0.866407

>  <r_i_glide_gscore>  (250) 
-3.46193

>  <r_i_glide_lipo>  (250) 
-0.813809

>  <r_i_glide_hbond>  (250) 
0

>  <r_i_glide_metal>  (250) 
-0

>  <r_i_glide_rewards>  (250) 
-1.57775

>  <r_i_glide_evdw>  (250) 
-20.0326

>  <r_i_glide_ecoul>  (250) 
-0.458291

>  <r_i_glide_erotb>  (250) 
0

>  <r_i_glide_esite>  (250) 
0

>  <r_i_glide_emodel>  (250) 
-25.3322

>  <r_i_glide_energy>  (250) 
-20.4909

>  <r_i_glide_einternal>  (250) 
4.44087e-05

>  <r_i_glide_intrahb_reward>  (250) 
-0

>  <i_i_glide_confnum>  (250) 
1

>  <i_i_glide_posenum>  (250) 
6

>  <r_i_glide_eff_state_penalty>  (250) 
0

>  <ligand_id>  (250) 
70

>  <original_smiles>  (250) 
OC1C=CC23C4CC5OCC(C6C7CC(C76)C2C4)N5C13

>  <smiles>  (250) 
[H]OC1([H])C([H])=C([H])C23C1([H])N1C4([H])OC([H])([H])C1([H])C1([H])C5([H])C([H])([H])C([H])(C51[H])C2([H])C([H])([H])C3([H])C4([H])[H]

$$$$
72:0:0
     RDKit          3D

 30 32  0  0  1  0  0  0  0  0999 V2000
   -1.2291   -8.7134    3.0351 C   0  0  0  0  0  0  0  0  0  0  0  0
   -1.4807   -7.4730    2.6083 N   0  0  0  0  0  0  0  0  0  0  0  0
   -0.3066   -7.0497    2.0014 N   0  0  0  0  0  0  0  0  0  0  0  0
    0.5689   -8.0553    2.1612 C   0  0  0  0  0  0  0  0  0  0  0  0
    0.0295   -9.1322    2.7801 N   0  0  0  0  0  0  0  0  0  0  0  0
    0.6664  -10.4070    3.0537 C   0  0  0  0  0  0  0  0  0  0  0  0
    2.1981  -10.2841    2.9201 C   0  0  0  0  0  0  0  0  0  0  0  0
    2.5669   -9.4099    1.7168 C   0  0  0  0  0  0  0  0  0  0  0  0
    1.9328   -8.0781    1.8218 N   0  0  0  0  0  0  0  0  0  0  0  0
    2.9301   -7.0435    2.1843 C   0  0  0  0  0  0  0  0  0  0  0  0
    2.4090   -5.5908    2.1391 C   0  0  0  0  0  0  0  0  0  0  0  0
    2.7294   -5.1286    0.7271 C   0  0  0  0  0  0  0  0  0  0  0  0
    4.1256   -5.6909    0.4745 C   0  0  0  0  0  0  0  0  0  0  0  0
    4.1717   -7.0092    1.2447 C   0  0  0  0  0  0  0  0  0  0  0  0
   -1.9444   -9.3343    3.5665 H   0  0  0  0  0  0  0  0  0  0  0  0
    0.3855  -10.7617    4.0452 H   0  0  0  0  0  0  0  0  0  0  0  0
    0.3031  -11.1146    2.3045 H   0  0  0  0  0  0  0  0  0  0  0  0
    2.6103   -9.8051    3.8079 H   0  0  0  0  0  0  0  0  0  0  0  0
    2.6779  -11.2699    2.8553 H   0  0  0  0  0  0  0  0  0  0  0  0
    3.6457   -9.4147    1.6410 H   0  0  0  0  0  0  0  0  0  0  0  0
    2.2040   -9.8714    0.8001 H   0  0  0  0  0  0  0  0  0  0  0  0
    3.2468   -7.2671    3.2075 H   0  0  0  0  0  0  0  0  0  0  0  0
    1.3599   -5.4068    2.4064 H   0  0  0  0  0  0  0  0  0  0  0  0
    2.9978   -4.9990    2.8412 H   0  0  0  0  0  0  0  0  0  0  0  0
    2.0292   -5.5731    0.0202 H   0  0  0  0  0  0  0  0  0  0  0  0
    2.6873   -4.0471    0.6081 H   0  0  0  0  0  0  0  0  0  0  0  0
    4.3195   -5.8536   -0.5849 H   0  0  0  0  0  0  0  0  0  0  0  0
    4.8831   -5.0040    0.8521 H   0  0  0  0  0  0  0  0  0  0  0  0
    5.0812   -7.0586    1.8452 H   0  0  0  0  0  0  0  0  0  0  0  0
    4.2358   -7.8190    0.5141 H   0  0  0  0  0  0  0  0  0  0  0  0
  1  5  1  0
  1  2  2  0
  1 15  1  0
  2  3  1  0
  3  4  2  0
  4  9  1  0
  4  5  1  0
  5  6  1  0
  6  7  1  0
  6 16  1  0
  6 17  1  0
  7  8  1  0
  7 18  1  0
  7 19  1  0
  8  9  1  0
  8 20  1  0
  8 21  1  0
  9 10  1  0
 10 14  1  0
 10 11  1  0
 10 22  1  0
 11 12  1  0
 11 23  1  0
 11 24  1  0
 12 13  1  0
 12 25  1  0
 12 26  1  0
 13 14  1  0
 13 27  1  0
 13 28  1  0
 14 29  1  0
 14 30  1  0
M  END
>  <i_m_ct_stereo_status>  (251) 
1

>  <s_m_source_file>  (251) 
/var/tmp/pbs.5076255.sched01/tmprcd7yfff/907v12ihtf.sdf

>  <i_m_source_file_index>  (251) 
15

>  <i_lp_mmshare_version>  (251) 
48012

>  <i_f3d_flags>  (251) 
0

>  <s_epik_input>  (251) 
bjFuW2NIXW4oYzEyKVtDSDJdW0NIMl1bQ0gyXU4yW0NIXTNbQ0gyXVtDSDJdW0NIMl1bQ0gyXTM=

>  <s_epik_cmdline>  (251) 
J2VwaWtfcHl0aG9uJywgJy1waHQnLCAnMi4wJywgJy1waCcsICc3LjAnLCAnLXRuJywgJzgnLCAnLW1hJywgJzIwMCcsICctaW1hZScsICc8aW5maWxlLm1hZT4nLCAnLW9tYWUnLCAnPG91dGZpbGUubWFlPic=

>  <r_lp_tautomer_probability>  (251) 
1

>  <r_epik_Ionization_Penalty>  (251) 
0.136215

>  <r_epik_Ionization_Penalty_Charging>  (251) 
0

>  <r_epik_Ionization_Penalty_Neutral>  (251) 
0.136215

>  <r_epik_State_Penalty>  (251) 
0.0203697

>  <r_epik_Charging_Adjusted_Penalty>  (251) 
0.0203697

>  <i_epik_Tot_Q>  (251) 
0

>  <i_epik_Tot_abs_Q>  (251) 
0

>  <s_lp_Force_Field>  (251) 
OPLS3e

>  <r_lp_Energy>  (251) 
37.1667

>  <b_lp_Chiralities_Consistent>  (251) 
1

>  <s_lp_Variant>  (251) 
72:0-1

>  <s_i_glide_gridfile>  (251) 
pfpi4k_grid

>  <i_i_glide_lignum>  (251) 
15

>  <i_i_glide_rotatable_bonds>  (251) 
1

>  <r_i_docking_score>  (251) 
-4.06051

>  <r_i_glide_ligand_efficiency>  (251) 
-0.290037

>  <r_i_glide_ligand_efficiency_sa>  (251) 
-0.69903

>  <r_i_glide_ligand_efficiency_ln>  (251) 
-1.11581

>  <r_i_glide_gscore>  (251) 
-4.06051

>  <r_i_glide_lipo>  (251) 
-0.304849

>  <r_i_glide_hbond>  (251) 
0

>  <r_i_glide_metal>  (251) 
-0

>  <r_i_glide_rewards>  (251) 
-2.09822

>  <r_i_glide_evdw>  (251) 
-22.2586

>  <r_i_glide_ecoul>  (251) 
-4.39246

>  <r_i_glide_erotb>  (251) 
0.436018

>  <r_i_glide_esite>  (251) 
-0.321662

>  <r_i_glide_emodel>  (251) 
-29.5424

>  <r_i_glide_energy>  (251) 
-26.6511

>  <r_i_glide_einternal>  (251) 
8.44743

>  <r_i_glide_intrahb_reward>  (251) 
-0

>  <i_i_glide_confnum>  (251) 
4

>  <i_i_glide_posenum>  (251) 
34

>  <r_i_glide_eff_state_penalty>  (251) 
0

>  <ligand_id>  (251) 
72

>  <original_smiles>  (251) 
c1nnc2n1CCCN2C1CCCC1

>  <smiles>  (251) 
[H]c1nnc2n1C([H])([H])C([H])([H])C([H])([H])N2C1([H])C([H])([H])C([H])([H])C([H])([H])C1([H])[H]

$$$$
72:0:1
     RDKit          3D

 30 32  0  0  1  0  0  0  0  0999 V2000
    7.8711   -3.4153    0.7957 C   0  0  0  0  0  0  0  0  0  0  0  0
    8.2332   -3.8169   -0.4255 N   0  0  0  0  0  0  0  0  0  0  0  0
    7.3516   -3.1723   -1.2800 N   0  0  0  0  0  0  0  0  0  0  0  0
    6.5290   -2.4796   -0.4906 C   0  0  0  0  0  0  0  0  0  0  0  0
    6.8342   -2.5625    0.8193 N   0  0  0  0  0  0  0  0  0  0  0  0
    6.1881   -1.8598    1.9137 C   0  0  0  0  0  0  0  0  0  0  0  0
    4.8190   -1.2957    1.4931 C   0  0  0  0  0  0  0  0  0  0  0  0
    4.9159   -0.6979    0.0814 C   0  0  0  0  0  0  0  0  0  0  0  0
    5.4081   -1.7167   -0.8562 N   0  0  0  0  0  0  0  0  0  0  0  0
    4.3236   -2.1850   -1.7327 C   0  0  0  0  0  0  0  0  0  0  0  0
    4.7799   -3.2142   -2.7753 C   0  0  0  0  0  0  0  0  0  0  0  0
    3.7862   -3.1148   -3.9058 C   0  0  0  0  0  0  0  0  0  0  0  0
    3.4507   -1.6258   -3.9654 C   0  0  0  0  0  0  0  0  0  0  0  0
    3.6134   -1.0878   -2.5461 C   0  0  0  0  0  0  0  0  0  0  0  0
    8.3907   -3.7533    1.6832 H   0  0  0  0  0  0  0  0  0  0  0  0
    6.0852   -2.5319    2.7652 H   0  0  0  0  0  0  0  0  0  0  0  0
    6.8422   -1.0256    2.1964 H   0  0  0  0  0  0  0  0  0  0  0  0
    4.0891   -2.1017    1.4638 H   0  0  0  0  0  0  0  0  0  0  0  0
    4.4461   -0.5625    2.2161 H   0  0  0  0  0  0  0  0  0  0  0  0
    3.9578   -0.2752   -0.1942 H   0  0  0  0  0  0  0  0  0  0  0  0
    5.6235    0.1276    0.0901 H   0  0  0  0  0  0  0  0  0  0  0  0
    3.5713   -2.6758   -1.0965 H   0  0  0  0  0  0  0  0  0  0  0  0
    5.7472   -2.9285   -3.1982 H   0  0  0  0  0  0  0  0  0  0  0  0
    4.8602   -4.2250   -2.3651 H   0  0  0  0  0  0  0  0  0  0  0  0
    4.2460   -3.4976   -4.8083 H   0  0  0  0  0  0  0  0  0  0  0  0
    2.8983   -3.7165   -3.7006 H   0  0  0  0  0  0  0  0  0  0  0  0
    4.1586   -1.1086   -4.6109 H   0  0  0  0  0  0  0  0  0  0  0  0
    2.4516   -1.4484   -4.3572 H   0  0  0  0  0  0  0  0  0  0  0  0
    2.6365   -0.8860   -2.1031 H   0  0  0  0  0  0  0  0  0  0  0  0
    4.1686   -0.1432   -2.5586 H   0  0  0  0  0  0  0  0  0  0  0  0
  1  5  1  0
  1  2  2  0
  1 15  1  0
  2  3  1  0
  3  4  2  0
  4  9  1  0
  4  5  1  0
  5  6  1  0
  6  7  1  0
  6 16  1  0
  6 17  1  0
  7  8  1  0
  7 18  1  0
  7 19  1  0
  8  9  1  0
  8 20  1  0
  8 21  1  0
  9 10  1  0
 10 14  1  0
 10 11  1  0
 10 22  1  0
 11 12  1  0
 11 23  1  0
 11 24  1  0
 12 13  1  0
 12 25  1  0
 12 26  1  0
 13 14  1  0
 13 27  1  0
 13 28  1  0
 14 29  1  0
 14 30  1  0
M  END
>  <i_m_ct_stereo_status>  (252) 
1

>  <s_m_source_file>  (252) 
/var/tmp/pbs.5076255.sched01/tmprcd7yfff/907v12ihtf.sdf

>  <i_m_source_file_index>  (252) 
15

>  <i_lp_mmshare_version>  (252) 
48012

>  <i_f3d_flags>  (252) 
0

>  <s_epik_input>  (252) 
bjFuW2NIXW4oYzEyKVtDSDJdW0NIMl1bQ0gyXU4yW0NIXTNbQ0gyXVtDSDJdW0NIMl1bQ0gyXTM=

>  <s_epik_cmdline>  (252) 
J2VwaWtfcHl0aG9uJywgJy1waHQnLCAnMi4wJywgJy1waCcsICc3LjAnLCAnLXRuJywgJzgnLCAnLW1hJywgJzIwMCcsICctaW1hZScsICc8aW5maWxlLm1hZT4nLCAnLW9tYWUnLCAnPG91dGZpbGUubWFlPic=

>  <r_lp_tautomer_probability>  (252) 
1

>  <r_epik_Ionization_Penalty>  (252) 
0.136215

>  <r_epik_Ionization_Penalty_Charging>  (252) 
0

>  <r_epik_Ionization_Penalty_Neutral>  (252) 
0.136215

>  <r_epik_State_Penalty>  (252) 
0.0203697

>  <r_epik_Charging_Adjusted_Penalty>  (252) 
0.0203697

>  <i_epik_Tot_Q>  (252) 
0

>  <i_epik_Tot_abs_Q>  (252) 
0

>  <s_lp_Force_Field>  (252) 
OPLS3e

>  <r_lp_Energy>  (252) 
37.1667

>  <b_lp_Chiralities_Consistent>  (252) 
1

>  <s_lp_Variant>  (252) 
72:0-1

>  <s_i_glide_gridfile>  (252) 
pfpi4k_grid

>  <i_i_glide_lignum>  (252) 
15

>  <i_i_glide_rotatable_bonds>  (252) 
1

>  <r_i_docking_score>  (252) 
-3.85156

>  <r_i_glide_ligand_efficiency>  (252) 
-0.275111

>  <r_i_glide_ligand_efficiency_sa>  (252) 
-0.663057

>  <r_i_glide_ligand_efficiency_ln>  (252) 
-1.05839

>  <r_i_glide_gscore>  (252) 
-3.85156

>  <r_i_glide_lipo>  (252) 
-0.504857

>  <r_i_glide_hbond>  (252) 
0

>  <r_i_glide_metal>  (252) 
-0

>  <r_i_glide_rewards>  (252) 
-2.3898

>  <r_i_glide_evdw>  (252) 
-22.4726

>  <r_i_glide_ecoul>  (252) 
-1.4126

>  <r_i_glide_erotb>  (252) 
0.436018

>  <r_i_glide_esite>  (252) 
-0.0573995

>  <r_i_glide_emodel>  (252) 
-30.3121

>  <r_i_glide_energy>  (252) 
-23.8852

>  <r_i_glide_einternal>  (252) 
0.612915

>  <r_i_glide_intrahb_reward>  (252) 
-0

>  <i_i_glide_confnum>  (252) 
1

>  <i_i_glide_posenum>  (252) 
17

>  <r_i_glide_eff_state_penalty>  (252) 
0

>  <ligand_id>  (252) 
72

>  <original_smiles>  (252) 
c1nnc2n1CCCN2C1CCCC1

>  <smiles>  (252) 
[H]c1nnc2n1C([H])([H])C([H])([H])C([H])([H])N2C1([H])C([H])([H])C([H])([H])C([H])([H])C1([H])[H]

$$$$
72:0:2
     RDKit          3D

 30 32  0  0  1  0  0  0  0  0999 V2000
    1.3315   -7.1120    2.2169 C   0  0  0  0  0  0  0  0  0  0  0  0
    0.5589   -6.5771    1.2901 N   0  0  0  0  0  0  0  0  0  0  0  0
    1.4153   -5.8680    0.4635 N   0  0  0  0  0  0  0  0  0  0  0  0
    2.6404   -6.0385    0.9837 C   0  0  0  0  0  0  0  0  0  0  0  0
    2.6546   -6.8089    2.1139 N   0  0  0  0  0  0  0  0  0  0  0  0
    3.7870   -7.1638    2.9298 C   0  0  0  0  0  0  0  0  0  0  0  0
    5.0109   -6.2814    2.6021 C   0  0  0  0  0  0  0  0  0  0  0  0
    5.1153   -6.0798    1.0905 C   0  0  0  0  0  0  0  0  0  0  0  0
    3.8512   -5.4760    0.5990 N   0  0  0  0  0  0  0  0  0  0  0  0
    4.0579   -4.0661    0.2056 C   0  0  0  0  0  0  0  0  0  0  0  0
    2.8552   -3.4559   -0.5308 C   0  0  0  0  0  0  0  0  0  0  0  0
    3.4167   -2.3062   -1.3507 C   0  0  0  0  0  0  0  0  0  0  0  0
    4.7863   -2.8057   -1.7962 C   0  0  0  0  0  0  0  0  0  0  0  0
    5.2576   -3.7793   -0.7183 C   0  0  0  0  0  0  0  0  0  0  0  0
    0.9558   -7.6919    3.0578 H   0  0  0  0  0  0  0  0  0  0  0  0
    3.5225   -7.0761    3.9840 H   0  0  0  0  0  0  0  0  0  0  0  0
    4.0366   -8.2096    2.7147 H   0  0  0  0  0  0  0  0  0  0  0  0
    4.8913   -5.3000    3.0549 H   0  0  0  0  0  0  0  0  0  0  0  0
    5.9391   -6.6985    3.0119 H   0  0  0  0  0  0  0  0  0  0  0  0
    6.0050   -5.5111    0.8718 H   0  0  0  0  0  0  0  0  0  0  0  0
    5.2404   -7.0412    0.5968 H   0  0  0  0  0  0  0  0  0  0  0  0
    4.1961   -3.4954    1.1309 H   0  0  0  0  0  0  0  0  0  0  0  0
    2.4268   -4.1721   -1.2298 H   0  0  0  0  0  0  0  0  0  0  0  0
    2.0754   -3.1268    0.1615 H   0  0  0  0  0  0  0  0  0  0  0  0
    2.7631   -2.0714   -2.1882 H   0  0  0  0  0  0  0  0  0  0  0  0
    3.5073   -1.4178   -0.7295 H   0  0  0  0  0  0  0  0  0  0  0  0
    4.6804   -3.3588   -2.7273 H   0  0  0  0  0  0  0  0  0  0  0  0
    5.4881   -1.9926   -1.9646 H   0  0  0  0  0  0  0  0  0  0  0  0
    6.0670   -3.3504   -0.1236 H   0  0  0  0  0  0  0  0  0  0  0  0
    5.6439   -4.6759   -1.2060 H   0  0  0  0  0  0  0  0  0  0  0  0
  1  5  1  0
  1  2  2  0
  1 15  1  0
  2  3  1  0
  3  4  2  0
  4  9  1  0
  4  5  1  0
  5  6  1  0
  6  7  1  0
  6 16  1  0
  6 17  1  0
  7  8  1  0
  7 18  1  0
  7 19  1  0
  8  9  1  0
  8 20  1  0
  8 21  1  0
  9 10  1  0
 10 14  1  0
 10 11  1  0
 10 22  1  0
 11 12  1  0
 11 23  1  0
 11 24  1  0
 12 13  1  0
 12 25  1  0
 12 26  1  0
 13 14  1  0
 13 27  1  0
 13 28  1  0
 14 29  1  0
 14 30  1  0
M  END
>  <i_m_ct_stereo_status>  (253) 
1

>  <s_m_source_file>  (253) 
/var/tmp/pbs.5076255.sched01/tmprcd7yfff/907v12ihtf.sdf

>  <i_m_source_file_index>  (253) 
15

>  <i_lp_mmshare_version>  (253) 
48012

>  <i_f3d_flags>  (253) 
0

>  <s_epik_input>  (253) 
bjFuW2NIXW4oYzEyKVtDSDJdW0NIMl1bQ0gyXU4yW0NIXTNbQ0gyXVtDSDJdW0NIMl1bQ0gyXTM=

>  <s_epik_cmdline>  (253) 
J2VwaWtfcHl0aG9uJywgJy1waHQnLCAnMi4wJywgJy1waCcsICc3LjAnLCAnLXRuJywgJzgnLCAnLW1hJywgJzIwMCcsICctaW1hZScsICc8aW5maWxlLm1hZT4nLCAnLW9tYWUnLCAnPG91dGZpbGUubWFlPic=

>  <r_lp_tautomer_probability>  (253) 
1

>  <r_epik_Ionization_Penalty>  (253) 
0.136215

>  <r_epik_Ionization_Penalty_Charging>  (253) 
0

>  <r_epik_Ionization_Penalty_Neutral>  (253) 
0.136215

>  <r_epik_State_Penalty>  (253) 
0.0203697

>  <r_epik_Charging_Adjusted_Penalty>  (253) 
0.0203697

>  <i_epik_Tot_Q>  (253) 
0

>  <i_epik_Tot_abs_Q>  (253) 
0

>  <s_lp_Force_Field>  (253) 
OPLS3e

>  <r_lp_Energy>  (253) 
37.1667

>  <b_lp_Chiralities_Consistent>  (253) 
1

>  <s_lp_Variant>  (253) 
72:0-1

>  <s_i_glide_gridfile>  (253) 
pfpi4k_grid

>  <i_i_glide_lignum>  (253) 
15

>  <i_i_glide_rotatable_bonds>  (253) 
1

>  <r_i_docking_score>  (253) 
-3.46577

>  <r_i_glide_ligand_efficiency>  (253) 
-0.247555

>  <r_i_glide_ligand_efficiency_sa>  (253) 
-0.596642

>  <r_i_glide_ligand_efficiency_ln>  (253) 
-0.95238

>  <r_i_glide_gscore>  (253) 
-3.46577

>  <r_i_glide_lipo>  (253) 
-0.161196

>  <r_i_glide_hbond>  (253) 
0

>  <r_i_glide_metal>  (253) 
-0

>  <r_i_glide_rewards>  (253) 
-2.12614

>  <r_i_glide_evdw>  (253) 
-17.0991

>  <r_i_glide_ecoul>  (253) 
-3.36693

>  <r_i_glide_erotb>  (253) 
0.436018

>  <r_i_glide_esite>  (253) 
-0.25446

>  <r_i_glide_emodel>  (253) 
-26.6872

>  <r_i_glide_energy>  (253) 
-20.466

>  <r_i_glide_einternal>  (253) 
0.0064223

>  <r_i_glide_intrahb_reward>  (253) 
-0

>  <i_i_glide_confnum>  (253) 
1

>  <i_i_glide_posenum>  (253) 
2

>  <r_i_glide_eff_state_penalty>  (253) 
0

>  <ligand_id>  (253) 
72

>  <original_smiles>  (253) 
c1nnc2n1CCCN2C1CCCC1

>  <smiles>  (253) 
[H]c1nnc2n1C([H])([H])C([H])([H])C([H])([H])N2C1([H])C([H])([H])C([H])([H])C([H])([H])C1([H])[H]

$$$$
72:1:0
     RDKit          3D

 31 33  0  0  1  0  0  0  0  0999 V2000
    3.6876   -0.5117    2.7259 C   0  0  0  0  0  0  0  0  0  0  0  0
    2.5142   -0.1932    2.2002 N   0  0  0  0  0  0  0  0  0  0  0  0
    2.6249   -0.4172    0.8831 N   0  0  0  0  0  0  0  0  0  0  0  0
    3.8400   -0.8631    0.6280 C   0  0  0  0  0  0  0  0  0  0  0  0
    4.5566   -0.9385    1.7523 N   0  0  0  0  0  0  0  0  0  0  0  0
    5.9215   -1.4613    1.8545 C   0  0  0  0  0  0  0  0  0  0  0  0
    6.6029   -1.5144    0.4657 C   0  0  0  0  0  0  0  0  0  0  0  0
    5.6329   -2.0449   -0.5996 C   0  0  0  0  0  0  0  0  0  0  0  0
    4.3567   -1.3140   -0.5860 N   0  0  0  0  0  0  0  0  0  0  0  0
    3.5396   -1.4898   -1.7919 C   0  0  0  0  0  0  0  0  0  0  0  0
    3.0246   -2.9331   -1.9362 C   0  0  0  0  0  0  0  0  0  0  0  0
    2.8084   -3.1096   -3.4237 C   0  0  0  0  0  0  0  0  0  0  0  0
    3.8873   -2.2393   -4.0651 C   0  0  0  0  0  0  0  0  0  0  0  0
    4.1797   -1.0750   -3.1258 C   0  0  0  0  0  0  0  0  0  0  0  0
    3.9662   -0.4908    3.7727 H   0  0  0  0  0  0  0  0  0  0  0  0
    6.4928   -0.8280    2.5323 H   0  0  0  0  0  0  0  0  0  0  0  0
    5.8585   -2.4715    2.2719 H   0  0  0  0  0  0  0  0  0  0  0  0
    6.9148   -0.5115    0.1805 H   0  0  0  0  0  0  0  0  0  0  0  0
    7.5029   -2.1364    0.4903 H   0  0  0  0  0  0  0  0  0  0  0  0
    6.1152   -2.0588   -1.5790 H   0  0  0  0  0  0  0  0  0  0  0  0
    5.4409   -3.0899   -0.3579 H   0  0  0  0  0  0  0  0  0  0  0  0
    2.6591   -0.8510   -1.7285 H   0  0  0  0  0  0  0  0  0  0  0  0
    3.7729   -3.6630   -1.6433 H   0  0  0  0  0  0  0  0  0  0  0  0
    2.1356   -3.1162   -1.3261 H   0  0  0  0  0  0  0  0  0  0  0  0
    2.9092   -4.1575   -3.7120 H   0  0  0  0  0  0  0  0  0  0  0  0
    1.8146   -2.7728   -3.7066 H   0  0  0  0  0  0  0  0  0  0  0  0
    4.7891   -2.8404   -4.1686 H   0  0  0  0  0  0  0  0  0  0  0  0
    3.5792   -1.8927   -5.0473 H   0  0  0  0  0  0  0  0  0  0  0  0
    3.7319   -0.1509   -3.4927 H   0  0  0  0  0  0  0  0  0  0  0  0
    5.2375   -0.8814   -3.0581 H   0  0  0  0  0  0  0  0  0  0  0  0
    1.8112   -0.3590    0.2606 H   0  0  0  0  0  0  0  0  0  0  0  0
  1  5  1  0
  1  2  2  0
  1 15  1  0
  2  3  1  0
  3  4  2  0
  3 31  1  0
  4  9  1  0
  4  5  1  0
  5  6  1  0
  6  7  1  0
  6 16  1  0
  6 17  1  0
  7  8  1  0
  7 18  1  0
  7 19  1  0
  8  9  1  0
  8 20  1  0
  8 21  1  0
  9 10  1  0
 10 14  1  0
 10 11  1  0
 10 22  1  0
 11 12  1  0
 11 23  1  0
 11 24  1  0
 12 13  1  0
 12 25  1  0
 12 26  1  0
 13 14  1  0
 13 27  1  0
 13 28  1  0
 14 29  1  0
 14 30  1  0
M  CHG  1   3   1
M  END
>  <i_m_ct_stereo_status>  (254) 
1

>  <s_m_source_file>  (254) 
/var/tmp/pbs.5076255.sched01/tmprcd7yfff/907v12ihtf.sdf

>  <i_m_source_file_index>  (254) 
16

>  <i_lp_mmshare_version>  (254) 
48012

>  <i_f3d_flags>  (254) 
0

>  <s_epik_input>  (254) 
bjFuW2NIXW4oYzEyKVtDSDJdW0NIMl1bQ0gyXU4yW0NIXTNbQ0gyXVtDSDJdW0NIMl1bQ0gyXTM=

>  <s_epik_cmdline>  (254) 
J2VwaWtfcHl0aG9uJywgJy1waHQnLCAnMi4wJywgJy1waCcsICc3LjAnLCAnLXRuJywgJzgnLCAnLW1hJywgJzIwMCcsICctaW1hZScsICc8aW5maWxlLm1hZT4nLCAnLW9tYWUnLCAnPG91dGZpbGUubWFlPic=

>  <r_lp_tautomer_probability>  (254) 
0.974008

>  <r_epik_Ionization_Penalty>  (254) 
3.77363

>  <r_epik_Ionization_Penalty_Charging>  (254) 
3.77363

>  <r_epik_Ionization_Penalty_Neutral>  (254) 
1.00591e-06

>  <r_epik_State_Penalty>  (254) 
2.22739

>  <r_epik_Charging_Adjusted_Penalty>  (254) 
6.00102

>  <i_epik_Tot_Q>  (254) 
1

>  <i_epik_Tot_abs_Q>  (254) 
1

>  <s_lp_Force_Field>  (254) 
OPLS3e

>  <r_lp_Energy>  (254) 
36.1649

>  <b_lp_Chiralities_Consistent>  (254) 
1

>  <s_lp_Variant>  (254) 
72:0-2

>  <s_i_glide_gridfile>  (254) 
pfpi4k_grid

>  <i_i_glide_lignum>  (254) 
16

>  <i_i_glide_rotatable_bonds>  (254) 
1

>  <r_i_docking_score>  (254) 
-4.26291

>  <r_i_glide_ligand_efficiency>  (254) 
-0.304494

>  <r_i_glide_ligand_efficiency_sa>  (254) 
-0.733873

>  <r_i_glide_ligand_efficiency_ln>  (254) 
-1.17143

>  <r_i_glide_gscore>  (254) 
-4.26291

>  <r_i_glide_lipo>  (254) 
-0.439228

>  <r_i_glide_hbond>  (254) 
-0.2

>  <r_i_glide_metal>  (254) 
-0

>  <r_i_glide_rewards>  (254) 
-2.21498

>  <r_i_glide_evdw>  (254) 
-19.9762

>  <r_i_glide_ecoul>  (254) 
-4.79175

>  <r_i_glide_erotb>  (254) 
0.432254

>  <r_i_glide_esite>  (254) 
-0.123382

>  <r_i_glide_emodel>  (254) 
-32.2104

>  <r_i_glide_energy>  (254) 
-24.768

>  <r_i_glide_einternal>  (254) 
0.00843822

>  <r_i_glide_intrahb_reward>  (254) 
-0

>  <i_i_glide_confnum>  (254) 
1

>  <i_i_glide_posenum>  (254) 
38

>  <r_i_glide_eff_state_penalty>  (254) 
0

>  <ligand_id>  (254) 
72

>  <original_smiles>  (254) 
c1nnc2n1CCCN2C1CCCC1

>  <smiles>  (254) 
[H]c1n[n+]([H])c2n1C([H])([H])C([H])([H])C([H])([H])N2C1([H])C([H])([H])C([H])([H])C([H])([H])C1([H])[H]

$$$$
72:1:1
     RDKit          3D

 31 33  0  0  1  0  0  0  0  0999 V2000
    3.4578   -2.4519    2.8723 C   0  0  0  0  0  0  0  0  0  0  0  0
    2.3941   -1.7853    2.4500 N   0  0  0  0  0  0  0  0  0  0  0  0
    2.6149   -1.5260    1.1586 N   0  0  0  0  0  0  0  0  0  0  0  0
    3.8039   -2.0297    0.8138 C   0  0  0  0  0  0  0  0  0  0  0  0
    4.3682   -2.6241    1.8600 N   0  0  0  0  0  0  0  0  0  0  0  0
    5.6436   -3.3535    1.8392 C   0  0  0  0  0  0  0  0  0  0  0  0
    6.4594   -2.9942    0.5749 C   0  0  0  0  0  0  0  0  0  0  0  0
    5.5511   -2.9406   -0.6707 C   0  0  0  0  0  0  0  0  0  0  0  0
    4.3875   -2.0661   -0.4527 N   0  0  0  0  0  0  0  0  0  0  0  0
    3.6847   -1.6657   -1.6657 C   0  0  0  0  0  0  0  0  0  0  0  0
    3.0108   -2.8598   -2.3588 C   0  0  0  0  0  0  0  0  0  0  0  0
    2.9409   -2.4653   -3.8212 C   0  0  0  0  0  0  0  0  0  0  0  0
    4.1761   -1.5900   -4.0404 C   0  0  0  0  0  0  0  0  0  0  0  0
    4.5061   -0.9075   -2.7135 C   0  0  0  0  0  0  0  0  0  0  0  0
    3.6181   -2.8550    3.8610 H   0  0  0  0  0  0  0  0  0  0  0  0
    6.2041   -3.1129    2.7396 H   0  0  0  0  0  0  0  0  0  0  0  0
    5.4119   -4.4214    1.8417 H   0  0  0  0  0  0  0  0  0  0  0  0
    6.9317   -2.0166    0.7049 H   0  0  0  0  0  0  0  0  0  0  0  0
    7.2677   -3.7123    0.4127 H   0  0  0  0  0  0  0  0  0  0  0  0
    6.1424   -2.6676   -1.5478 H   0  0  0  0  0  0  0  0  0  0  0  0
    5.2005   -3.9603   -0.8493 H   0  0  0  0  0  0  0  0  0  0  0  0
    2.8995   -0.9641   -1.3929 H   0  0  0  0  0  0  0  0  0  0  0  0
    3.6289   -3.7585   -2.3080 H   0  0  0  0  0  0  0  0  0  0  0  0
    2.0408   -3.1063   -1.9195 H   0  0  0  0  0  0  0  0  0  0  0  0
    2.9317   -3.3507   -4.4564 H   0  0  0  0  0  0  0  0  0  0  0  0
    2.0333   -1.8962   -4.0149 H   0  0  0  0  0  0  0  0  0  0  0  0
    5.0093   -2.2369   -4.2834 H   0  0  0  0  0  0  0  0  0  0  0  0
    4.0408   -0.8802   -4.8529 H   0  0  0  0  0  0  0  0  0  0  0  0
    4.2241    0.1480   -2.7269 H   0  0  0  0  0  0  0  0  0  0  0  0
    5.5713   -0.9192   -2.5075 H   0  0  0  0  0  0  0  0  0  0  0  0
    1.9150   -1.0733    0.5712 H   0  0  0  0  0  0  0  0  0  0  0  0
  1  5  1  0
  1  2  2  0
  1 15  1  0
  2  3  1  0
  3  4  2  0
  3 31  1  0
  4  9  1  0
  4  5  1  0
  5  6  1  0
  6  7  1  0
  6 16  1  0
  6 17  1  0
  7  8  1  0
  7 18  1  0
  7 19  1  0
  8  9  1  0
  8 20  1  0
  8 21  1  0
  9 10  1  0
 10 14  1  0
 10 11  1  0
 10 22  1  0
 11 12  1  0
 11 23  1  0
 11 24  1  0
 12 13  1  0
 12 25  1  0
 12 26  1  0
 13 14  1  0
 13 27  1  0
 13 28  1  0
 14 29  1  0
 14 30  1  0
M  CHG  1   3   1
M  END
>  <i_m_ct_stereo_status>  (255) 
1

>  <s_m_source_file>  (255) 
/var/tmp/pbs.5076255.sched01/tmprcd7yfff/907v12ihtf.sdf

>  <i_m_source_file_index>  (255) 
16

>  <i_lp_mmshare_version>  (255) 
48012

>  <i_f3d_flags>  (255) 
0

>  <s_epik_input>  (255) 
bjFuW2NIXW4oYzEyKVtDSDJdW0NIMl1bQ0gyXU4yW0NIXTNbQ0gyXVtDSDJdW0NIMl1bQ0gyXTM=

>  <s_epik_cmdline>  (255) 
J2VwaWtfcHl0aG9uJywgJy1waHQnLCAnMi4wJywgJy1waCcsICc3LjAnLCAnLXRuJywgJzgnLCAnLW1hJywgJzIwMCcsICctaW1hZScsICc8aW5maWxlLm1hZT4nLCAnLW9tYWUnLCAnPG91dGZpbGUubWFlPic=

>  <r_lp_tautomer_probability>  (255) 
0.974008

>  <r_epik_Ionization_Penalty>  (255) 
3.77363

>  <r_epik_Ionization_Penalty_Charging>  (255) 
3.77363

>  <r_epik_Ionization_Penalty_Neutral>  (255) 
1.00591e-06

>  <r_epik_State_Penalty>  (255) 
2.22739

>  <r_epik_Charging_Adjusted_Penalty>  (255) 
6.00102

>  <i_epik_Tot_Q>  (255) 
1

>  <i_epik_Tot_abs_Q>  (255) 
1

>  <s_lp_Force_Field>  (255) 
OPLS3e

>  <r_lp_Energy>  (255) 
36.1649

>  <b_lp_Chiralities_Consistent>  (255) 
1

>  <s_lp_Variant>  (255) 
72:0-2

>  <s_i_glide_gridfile>  (255) 
pfpi4k_grid

>  <i_i_glide_lignum>  (255) 
16

>  <i_i_glide_rotatable_bonds>  (255) 
1

>  <r_i_docking_score>  (255) 
-3.7829

>  <r_i_glide_ligand_efficiency>  (255) 
-0.270207

>  <r_i_glide_ligand_efficiency_sa>  (255) 
-0.651237

>  <r_i_glide_ligand_efficiency_ln>  (255) 
-1.03953

>  <r_i_glide_gscore>  (255) 
-3.7829

>  <r_i_glide_lipo>  (255) 
-0.322004

>  <r_i_glide_hbond>  (255) 
-0.2

>  <r_i_glide_metal>  (255) 
-0

>  <r_i_glide_rewards>  (255) 
-2.11016

>  <r_i_glide_evdw>  (255) 
-17.5038

>  <r_i_glide_ecoul>  (255) 
-4.02767

>  <r_i_glide_erotb>  (255) 
0.432254

>  <r_i_glide_esite>  (255) 
-0.103641

>  <r_i_glide_emodel>  (255) 
-28.1473

>  <r_i_glide_energy>  (255) 
-21.5315

>  <r_i_glide_einternal>  (255) 
0.00218661

>  <r_i_glide_intrahb_reward>  (255) 
-0

>  <i_i_glide_confnum>  (255) 
1

>  <i_i_glide_posenum>  (255) 
31

>  <r_i_glide_eff_state_penalty>  (255) 
0

>  <ligand_id>  (255) 
72

>  <original_smiles>  (255) 
c1nnc2n1CCCN2C1CCCC1

>  <smiles>  (255) 
[H]c1n[n+]([H])c2n1C([H])([H])C([H])([H])C([H])([H])N2C1([H])C([H])([H])C([H])([H])C([H])([H])C1([H])[H]

$$$$
72:1:2
     RDKit          3D

 31 33  0  0  1  0  0  0  0  0999 V2000
    3.4684   -4.4248    0.6571 C   0  0  0  0  0  0  0  0  0  0  0  0
    2.5049   -3.5520    0.8936 N   0  0  0  0  0  0  0  0  0  0  0  0
    2.6065   -2.6434   -0.0828 N   0  0  0  0  0  0  0  0  0  0  0  0
    3.6687   -2.9057   -0.8475 C   0  0  0  0  0  0  0  0  0  0  0  0
    4.2528   -4.0074   -0.3795 N   0  0  0  0  0  0  0  0  0  0  0  0
    5.4102   -4.6383   -1.0018 C   0  0  0  0  0  0  0  0  0  0  0  0
    6.1392   -3.6208   -1.9234 C   0  0  0  0  0  0  0  0  0  0  0  0
    5.1514   -2.8839   -2.7870 C   0  0  0  0  0  0  0  0  0  0  0  0
    4.1155   -2.2422   -1.9748 N   0  0  0  0  0  0  0  0  0  0  0  0
    3.4068   -1.1501   -2.6338 C   0  0  0  0  0  0  0  0  0  0  0  0
    2.7210   -1.6041   -3.9210 C   0  0  0  0  0  0  0  0  0  0  0  0
    2.6352   -0.3048   -4.7272 C   0  0  0  0  0  0  0  0  0  0  0  0
    3.8877    0.4538   -4.4017 C   0  0  0  0  0  0  0  0  0  0  0  0
    4.2877    0.0302   -2.9854 C   0  0  0  0  0  0  0  0  0  0  0  0
    3.6517   -5.3543    1.1842 H   0  0  0  0  0  0  0  0  0  0  0  0
    6.0660   -5.0267   -0.2222 H   0  0  0  0  0  0  0  0  0  0  0  0
    5.0224   -5.4806   -1.5966 H   0  0  0  0  0  0  0  0  0  0  0  0
    6.7894   -2.9579   -1.3484 H   0  0  0  0  0  0  0  0  0  0  0  0
    6.7370   -4.0849   -2.7076 H   0  0  0  0  0  0  0  0  0  0  0  0
    5.7030   -2.2253   -3.4342 H   0  0  0  0  0  0  0  0  0  0  0  0
    4.6892   -3.6205   -3.4458 H   0  0  0  0  0  0  0  0  0  0  0  0
    2.6565   -0.7350   -1.9573 H   0  0  0  0  0  0  0  0  0  0  0  0
    3.3209   -2.3005   -4.5122 H   0  0  0  0  0  0  0  0  0  0  0  0
    1.7855   -2.1099   -3.6776 H   0  0  0  0  0  0  0  0  0  0  0  0
    2.6405   -0.5129   -5.7889 H   0  0  0  0  0  0  0  0  0  0  0  0
    1.7962    0.3366   -4.4836 H   0  0  0  0  0  0  0  0  0  0  0  0
    4.6121    0.1095   -5.1180 H   0  0  0  0  0  0  0  0  0  0  0  0
    3.7493    1.5280   -4.5479 H   0  0  0  0  0  0  0  0  0  0  0  0
    4.2152    0.8894   -2.3265 H   0  0  0  0  0  0  0  0  0  0  0  0
    5.3223   -0.2614   -2.8290 H   0  0  0  0  0  0  0  0  0  0  0  0
    1.9380   -1.8867   -0.2439 H   0  0  0  0  0  0  0  0  0  0  0  0
  1  5  1  0
  1  2  2  0
  1 15  1  0
  2  3  1  0
  3  4  2  0
  3 31  1  0
  4  9  1  0
  4  5  1  0
  5  6  1  0
  6  7  1  0
  6 16  1  0
  6 17  1  0
  7  8  1  0
  7 18  1  0
  7 19  1  0
  8  9  1  0
  8 20  1  0
  8 21  1  0
  9 10  1  0
 10 14  1  0
 10 11  1  0
 10 22  1  0
 11 12  1  0
 11 23  1  0
 11 24  1  0
 12 13  1  0
 12 25  1  0
 12 26  1  0
 13 14  1  0
 13 27  1  0
 13 28  1  0
 14 29  1  0
 14 30  1  0
M  CHG  1   3   1
M  END
>  <i_m_ct_stereo_status>  (256) 
1

>  <s_m_source_file>  (256) 
/var/tmp/pbs.5076255.sched01/tmprcd7yfff/907v12ihtf.sdf

>  <i_m_source_file_index>  (256) 
16

>  <i_lp_mmshare_version>  (256) 
48012

>  <i_f3d_flags>  (256) 
0

>  <s_epik_input>  (256) 
bjFuW2NIXW4oYzEyKVtDSDJdW0NIMl1bQ0gyXU4yW0NIXTNbQ0gyXVtDSDJdW0NIMl1bQ0gyXTM=

>  <s_epik_cmdline>  (256) 
J2VwaWtfcHl0aG9uJywgJy1waHQnLCAnMi4wJywgJy1waCcsICc3LjAnLCAnLXRuJywgJzgnLCAnLW1hJywgJzIwMCcsICctaW1hZScsICc8aW5maWxlLm1hZT4nLCAnLW9tYWUnLCAnPG91dGZpbGUubWFlPic=

>  <r_lp_tautomer_probability>  (256) 
0.974008

>  <r_epik_Ionization_Penalty>  (256) 
3.77363

>  <r_epik_Ionization_Penalty_Charging>  (256) 
3.77363

>  <r_epik_Ionization_Penalty_Neutral>  (256) 
1.00591e-06

>  <r_epik_State_Penalty>  (256) 
2.22739

>  <r_epik_Charging_Adjusted_Penalty>  (256) 
6.00102

>  <i_epik_Tot_Q>  (256) 
1

>  <i_epik_Tot_abs_Q>  (256) 
1

>  <s_lp_Force_Field>  (256) 
OPLS3e

>  <r_lp_Energy>  (256) 
36.1649

>  <b_lp_Chiralities_Consistent>  (256) 
1

>  <s_lp_Variant>  (256) 
72:0-2

>  <s_i_glide_gridfile>  (256) 
pfpi4k_grid

>  <i_i_glide_lignum>  (256) 
16

>  <i_i_glide_rotatable_bonds>  (256) 
1

>  <r_i_docking_score>  (256) 
-3.65462

>  <r_i_glide_ligand_efficiency>  (256) 
-0.261044

>  <r_i_glide_ligand_efficiency_sa>  (256) 
-0.629154

>  <r_i_glide_ligand_efficiency_ln>  (256) 
-1.00428

>  <r_i_glide_gscore>  (256) 
-3.65462

>  <r_i_glide_lipo>  (256) 
-0.78045

>  <r_i_glide_hbond>  (256) 
-0.2

>  <r_i_glide_metal>  (256) 
-0

>  <r_i_glide_rewards>  (256) 
-2.09135

>  <r_i_glide_evdw>  (256) 
0.038655

>  <r_i_glide_ecoul>  (256) 
-6.13121

>  <r_i_glide_erotb>  (256) 
0.432254

>  <r_i_glide_esite>  (256) 
-0.0973235

>  <r_i_glide_emodel>  (256) 
-11.2874

>  <r_i_glide_energy>  (256) 
-6.09256

>  <r_i_glide_einternal>  (256) 
0.667505

>  <r_i_glide_intrahb_reward>  (256) 
-0

>  <i_i_glide_confnum>  (256) 
1

>  <i_i_glide_posenum>  (256) 
7

>  <r_i_glide_eff_state_penalty>  (256) 
0

>  <ligand_id>  (256) 
72

>  <original_smiles>  (256) 
c1nnc2n1CCCN2C1CCCC1

>  <smiles>  (256) 
[H]c1n[n+]([H])c2n1C([H])([H])C([H])([H])C([H])([H])N2C1([H])C([H])([H])C([H])([H])C([H])([H])C1([H])[H]

$$$$
72:2:0
     RDKit          3D

 31 33  0  0  1  0  0  0  0  0999 V2000
   -4.4554  -10.2700   -5.7148 C   0  0  0  0  0  0  0  0  0  0  0  0
   -4.2083   -9.3363   -4.7688 N   0  0  0  0  0  0  0  0  0  0  0  0
   -5.0139   -8.2766   -4.8888 N   0  0  0  0  0  0  0  0  0  0  0  0
   -5.7625   -8.5580   -5.9233 C   0  0  0  0  0  0  0  0  0  0  0  0
   -5.4523   -9.7837   -6.4841 N   0  0  0  0  0  0  0  0  0  0  0  0
   -6.1309  -10.3801   -7.6253 C   0  0  0  0  0  0  0  0  0  0  0  0
   -6.8679   -9.2888   -8.4177 C   0  0  0  0  0  0  0  0  0  0  0  0
   -7.6219   -8.3464   -7.4654 C   0  0  0  0  0  0  0  0  0  0  0  0
   -6.7347   -7.6960   -6.4975 N   0  0  0  0  0  0  0  0  0  0  0  0
   -7.2204   -6.5441   -5.7381 C   0  0  0  0  0  0  0  0  0  0  0  0
   -8.0565   -5.5972   -6.6171 C   0  0  0  0  0  0  0  0  0  0  0  0
   -7.8957   -4.2245   -6.0135 C   0  0  0  0  0  0  0  0  0  0  0  0
   -6.4680   -4.2459   -5.4834 C   0  0  0  0  0  0  0  0  0  0  0  0
   -6.1287   -5.6592   -5.1029 C   0  0  0  0  0  0  0  0  0  0  0  0
   -3.9313  -11.2145   -5.8454 H   0  0  0  0  0  0  0  0  0  0  0  0
   -5.4013  -10.9028   -8.2468 H   0  0  0  0  0  0  0  0  0  0  0  0
   -6.8668  -11.0732   -7.2172 H   0  0  0  0  0  0  0  0  0  0  0  0
   -6.1555   -8.6862   -8.9865 H   0  0  0  0  0  0  0  0  0  0  0  0
   -7.5588   -9.7205   -9.1467 H   0  0  0  0  0  0  0  0  0  0  0  0
   -8.0811   -7.6080   -8.1258 H   0  0  0  0  0  0  0  0  0  0  0  0
   -8.4433   -8.8674   -6.9535 H   0  0  0  0  0  0  0  0  0  0  0  0
   -7.8321   -6.9009   -4.9099 H   0  0  0  0  0  0  0  0  0  0  0  0
   -7.6338   -5.5400   -7.6168 H   0  0  0  0  0  0  0  0  0  0  0  0
   -9.1073   -5.8822   -6.6938 H   0  0  0  0  0  0  0  0  0  0  0  0
   -8.0409   -3.4594   -6.7790 H   0  0  0  0  0  0  0  0  0  0  0  0
   -8.6025   -4.0485   -5.2031 H   0  0  0  0  0  0  0  0  0  0  0  0
   -5.7928   -3.9450   -6.2873 H   0  0  0  0  0  0  0  0  0  0  0  0
   -6.3130   -3.5382   -4.6675 H   0  0  0  0  0  0  0  0  0  0  0  0
   -6.1126   -5.7860   -4.0137 H   0  0  0  0  0  0  0  0  0  0  0  0
   -5.1270   -5.8356   -5.4939 H   0  0  0  0  0  0  0  0  0  0  0  0
   -3.5132   -9.3598   -4.0268 H   0  0  0  0  0  0  0  0  0  0  0  0
  1  5  1  0
  1  2  2  0
  1 15  1  0
  2  3  1  0
  2 31  1  0
  3  4  2  0
  4  9  1  0
  4  5  1  0
  5  6  1  0
  6  7  1  0
  6 16  1  0
  6 17  1  0
  7  8  1  0
  7 18  1  0
  7 19  1  0
  8  9  1  0
  8 20  1  0
  8 21  1  0
  9 10  1  0
 10 14  1  0
 10 11  1  0
 10 22  1  0
 11 12  1  0
 11 23  1  0
 11 24  1  0
 12 13  1  0
 12 25  1  0
 12 26  1  0
 13 14  1  0
 13 27  1  0
 13 28  1  0
 14 29  1  0
 14 30  1  0
M  CHG  1   2   1
M  END
>  <i_m_ct_stereo_status>  (257) 
1

>  <s_m_source_file>  (257) 
/var/tmp/pbs.5076255.sched01/tmprcd7yfff/907v12ihtf.sdf

>  <i_m_source_file_index>  (257) 
17

>  <i_lp_mmshare_version>  (257) 
48012

>  <i_f3d_flags>  (257) 
0

>  <s_epik_input>  (257) 
bjFuW2NIXW4oYzEyKVtDSDJdW0NIMl1bQ0gyXU4yW0NIXTNbQ0gyXVtDSDJdW0NIMl1bQ0gyXTM=

>  <s_epik_cmdline>  (257) 
J2VwaWtfcHl0aG9uJywgJy1waHQnLCAnMi4wJywgJy1waCcsICc3LjAnLCAnLXRuJywgJzgnLCAnLW1hJywgJzIwMCcsICctaW1hZScsICc8aW5maWxlLm1hZT4nLCAnLW9tYWUnLCAnPG91dGZpbGUubWFlPic=

>  <r_lp_tautomer_probability>  (257) 
0.0259916

>  <r_epik_Ionization_Penalty>  (257) 
0.94176

>  <r_epik_Ionization_Penalty_Charging>  (257) 
0.94176

>  <r_epik_Ionization_Penalty_Neutral>  (257) 
1.25926e-08

>  <r_epik_State_Penalty>  (257) 
2.6997

>  <r_epik_Charging_Adjusted_Penalty>  (257) 
3.64146

>  <i_epik_Tot_Q>  (257) 
1

>  <i_epik_Tot_abs_Q>  (257) 
1

>  <s_lp_Force_Field>  (257) 
OPLS3e

>  <r_lp_Energy>  (257) 
39.6057

>  <b_lp_Chiralities_Consistent>  (257) 
1

>  <s_lp_Variant>  (257) 
72:0-3

>  <s_i_glide_gridfile>  (257) 
pfpi4k_grid

>  <i_i_glide_lignum>  (257) 
17

>  <i_i_glide_rotatable_bonds>  (257) 
1

>  <r_i_docking_score>  (257) 
-6.62

>  <r_i_glide_ligand_efficiency>  (257) 
-0.472857

>  <r_i_glide_ligand_efficiency_sa>  (257) 
-1.13965

>  <r_i_glide_ligand_efficiency_ln>  (257) 
-1.81915

>  <r_i_glide_gscore>  (257) 
-6.62

>  <r_i_glide_lipo>  (257) 
-1.86673

>  <r_i_glide_hbond>  (257) 
0

>  <r_i_glide_metal>  (257) 
-0

>  <r_i_glide_rewards>  (257) 
-3.37748

>  <r_i_glide_evdw>  (257) 
-23.3938

>  <r_i_glide_ecoul>  (257) 
-4.01351

>  <r_i_glide_erotb>  (257) 
0.432254

>  <r_i_glide_esite>  (257) 
-0.0363205

>  <r_i_glide_emodel>  (257) 
-35.9728

>  <r_i_glide_energy>  (257) 
-27.4073

>  <r_i_glide_einternal>  (257) 
2.9416

>  <r_i_glide_intrahb_reward>  (257) 
-0

>  <i_i_glide_confnum>  (257) 
3

>  <i_i_glide_posenum>  (257) 
33

>  <r_i_glide_eff_state_penalty>  (257) 
0

>  <ligand_id>  (257) 
72

>  <original_smiles>  (257) 
c1nnc2n1CCCN2C1CCCC1

>  <smiles>  (257) 
[H]c1n2c(n[n+]1[H])N(C1([H])C([H])([H])C([H])([H])C([H])([H])C1([H])[H])C([H])([H])C([H])([H])C2([H])[H]

$$$$
72:2:1
     RDKit          3D

 31 33  0  0  1  0  0  0  0  0999 V2000
   -9.1933   -8.2256   -9.1969 C   0  0  0  0  0  0  0  0  0  0  0  0
   -8.0890   -8.6965   -8.6089 N   0  0  0  0  0  0  0  0  0  0  0  0
   -7.7307   -7.9349   -7.5685 N   0  0  0  0  0  0  0  0  0  0  0  0
   -8.5887   -6.9468   -7.5692 C   0  0  0  0  0  0  0  0  0  0  0  0
   -9.5461   -7.1081   -8.5359 N   0  0  0  0  0  0  0  0  0  0  0  0
  -10.6981   -6.2363   -8.7249 C   0  0  0  0  0  0  0  0  0  0  0  0
  -10.4435   -4.8856   -8.0405 C   0  0  0  0  0  0  0  0  0  0  0  0
   -9.8387   -5.0452   -6.6682 C   0  0  0  0  0  0  0  0  0  0  0  0
   -8.5825   -5.8063   -6.6957 N   0  0  0  0  0  0  0  0  0  0  0  0
   -7.7619   -5.8167   -5.4816 C   0  0  0  0  0  0  0  0  0  0  0  0
   -7.6815   -4.4221   -4.8392 C   0  0  0  0  0  0  0  0  0  0  0  0
   -6.3313   -4.3187   -4.1766 C   0  0  0  0  0  0  0  0  0  0  0  0
   -5.4254   -5.1212   -5.0885 C   0  0  0  0  0  0  0  0  0  0  0  0
   -6.2993   -6.2174   -5.6909 C   0  0  0  0  0  0  0  0  0  0  0  0
   -9.7069   -8.6485  -10.0460 H   0  0  0  0  0  0  0  0  0  0  0  0
  -10.8971   -6.1129   -9.7947 H   0  0  0  0  0  0  0  0  0  0  0  0
  -11.5498   -6.7160   -8.2366 H   0  0  0  0  0  0  0  0  0  0  0  0
   -9.7339   -4.3064   -8.6310 H   0  0  0  0  0  0  0  0  0  0  0  0
  -11.3609   -4.3054   -7.9308 H   0  0  0  0  0  0  0  0  0  0  0  0
   -9.6915   -4.0317   -6.3152 H   0  0  0  0  0  0  0  0  0  0  0  0
  -10.5614   -5.4562   -5.9667 H   0  0  0  0  0  0  0  0  0  0  0  0
   -8.1813   -6.5222   -4.7474 H   0  0  0  0  0  0  0  0  0  0  0  0
   -7.6927   -3.6437   -5.5961 H   0  0  0  0  0  0  0  0  0  0  0  0
   -8.5045   -4.2611   -4.1426 H   0  0  0  0  0  0  0  0  0  0  0  0
   -6.0027   -3.2829   -4.0946 H   0  0  0  0  0  0  0  0  0  0  0  0
   -6.3770   -4.7615   -3.1864 H   0  0  0  0  0  0  0  0  0  0  0  0
   -5.0599   -4.4566   -5.8749 H   0  0  0  0  0  0  0  0  0  0  0  0
   -4.5839   -5.5437   -4.5611 H   0  0  0  0  0  0  0  0  0  0  0  0
   -6.0805   -7.2081   -5.2851 H   0  0  0  0  0  0  0  0  0  0  0  0
   -6.1061   -6.2722   -6.7463 H   0  0  0  0  0  0  0  0  0  0  0  0
   -7.5258   -9.5004   -8.8424 H   0  0  0  0  0  0  0  0  0  0  0  0
  1  5  1  0
  1  2  2  0
  1 15  1  0
  2  3  1  0
  2 31  1  0
  3  4  2  0
  4  9  1  0
  4  5  1  0
  5  6  1  0
  6  7  1  0
  6 16  1  0
  6 17  1  0
  7  8  1  0
  7 18  1  0
  7 19  1  0
  8  9  1  0
  8 20  1  0
  8 21  1  0
  9 10  1  0
 10 14  1  0
 10 11  1  0
 10 22  1  0
 11 12  1  0
 11 23  1  0
 11 24  1  0
 12 13  1  0
 12 25  1  0
 12 26  1  0
 13 14  1  0
 13 27  1  0
 13 28  1  0
 14 29  1  0
 14 30  1  0
M  CHG  1   2   1
M  END
>  <i_m_ct_stereo_status>  (258) 
1

>  <s_m_source_file>  (258) 
/var/tmp/pbs.5076255.sched01/tmprcd7yfff/907v12ihtf.sdf

>  <i_m_source_file_index>  (258) 
17

>  <i_lp_mmshare_version>  (258) 
48012

>  <i_f3d_flags>  (258) 
0

>  <s_epik_input>  (258) 
bjFuW2NIXW4oYzEyKVtDSDJdW0NIMl1bQ0gyXU4yW0NIXTNbQ0gyXVtDSDJdW0NIMl1bQ0gyXTM=

>  <s_epik_cmdline>  (258) 
J2VwaWtfcHl0aG9uJywgJy1waHQnLCAnMi4wJywgJy1waCcsICc3LjAnLCAnLXRuJywgJzgnLCAnLW1hJywgJzIwMCcsICctaW1hZScsICc8aW5maWxlLm1hZT4nLCAnLW9tYWUnLCAnPG91dGZpbGUubWFlPic=

>  <r_lp_tautomer_probability>  (258) 
0.0259916

>  <r_epik_Ionization_Penalty>  (258) 
0.94176

>  <r_epik_Ionization_Penalty_Charging>  (258) 
0.94176

>  <r_epik_Ionization_Penalty_Neutral>  (258) 
1.25926e-08

>  <r_epik_State_Penalty>  (258) 
2.6997

>  <r_epik_Charging_Adjusted_Penalty>  (258) 
3.64146

>  <i_epik_Tot_Q>  (258) 
1

>  <i_epik_Tot_abs_Q>  (258) 
1

>  <s_lp_Force_Field>  (258) 
OPLS3e

>  <r_lp_Energy>  (258) 
39.6057

>  <b_lp_Chiralities_Consistent>  (258) 
1

>  <s_lp_Variant>  (258) 
72:0-3

>  <s_i_glide_gridfile>  (258) 
pfpi4k_grid

>  <i_i_glide_lignum>  (258) 
17

>  <i_i_glide_rotatable_bonds>  (258) 
1

>  <r_i_docking_score>  (258) 
-4.64312

>  <r_i_glide_ligand_efficiency>  (258) 
-0.331652

>  <r_i_glide_ligand_efficiency_sa>  (258) 
-0.799327

>  <r_i_glide_ligand_efficiency_ln>  (258) 
-1.27591

>  <r_i_glide_gscore>  (258) 
-4.64312

>  <r_i_glide_lipo>  (258) 
-1.55779

>  <r_i_glide_hbond>  (258) 
0

>  <r_i_glide_metal>  (258) 
-0

>  <r_i_glide_rewards>  (258) 
-2.65923

>  <r_i_glide_evdw>  (258) 
-16.8732

>  <r_i_glide_ecoul>  (258) 
-0.0979867

>  <r_i_glide_erotb>  (258) 
0.432254

>  <r_i_glide_esite>  (258) 
0

>  <r_i_glide_emodel>  (258) 
-22.2223

>  <r_i_glide_energy>  (258) 
-16.9712

>  <r_i_glide_einternal>  (258) 
2.91684

>  <r_i_glide_intrahb_reward>  (258) 
-0

>  <i_i_glide_confnum>  (258) 
3

>  <i_i_glide_posenum>  (258) 
19

>  <r_i_glide_eff_state_penalty>  (258) 
0

>  <ligand_id>  (258) 
72

>  <original_smiles>  (258) 
c1nnc2n1CCCN2C1CCCC1

>  <smiles>  (258) 
[H]c1n2c(n[n+]1[H])N(C1([H])C([H])([H])C([H])([H])C([H])([H])C1([H])[H])C([H])([H])C([H])([H])C2([H])[H]

$$$$
72:2:2
     RDKit          3D

 31 33  0  0  1  0  0  0  0  0999 V2000
   -9.6526   -7.4870   -9.6615 C   0  0  0  0  0  0  0  0  0  0  0  0
   -8.3660   -7.8712   -9.7008 N   0  0  0  0  0  0  0  0  0  0  0  0
   -7.6465   -7.2608   -8.7476 N   0  0  0  0  0  0  0  0  0  0  0  0
   -8.5138   -6.4857   -8.1360 C   0  0  0  0  0  0  0  0  0  0  0  0
   -9.7676   -6.5937   -8.6686 N   0  0  0  0  0  0  0  0  0  0  0  0
  -10.9467   -5.8862   -8.1797 C   0  0  0  0  0  0  0  0  0  0  0  0
  -10.5209   -4.6366   -7.3800 C   0  0  0  0  0  0  0  0  0  0  0  0
   -9.3882   -4.9600   -6.4126 C   0  0  0  0  0  0  0  0  0  0  0  0
   -8.2338   -5.5826   -7.0715 N   0  0  0  0  0  0  0  0  0  0  0  0
   -6.9880   -5.7170   -6.3183 C   0  0  0  0  0  0  0  0  0  0  0  0
   -7.1271   -6.6107   -5.0881 C   0  0  0  0  0  0  0  0  0  0  0  0
   -6.1857   -6.0000   -4.0379 C   0  0  0  0  0  0  0  0  0  0  0  0
   -6.2238   -4.4998   -4.3201 C   0  0  0  0  0  0  0  0  0  0  0  0
   -6.4779   -4.3473   -5.8112 C   0  0  0  0  0  0  0  0  0  0  0  0
  -10.4589   -7.8241  -10.3087 H   0  0  0  0  0  0  0  0  0  0  0  0
  -11.5768   -5.6240   -9.0340 H   0  0  0  0  0  0  0  0  0  0  0  0
  -11.4794   -6.5829   -7.5265 H   0  0  0  0  0  0  0  0  0  0  0  0
  -10.1586   -3.8560   -8.0459 H   0  0  0  0  0  0  0  0  0  0  0  0
  -11.3575   -4.2229   -6.8160 H   0  0  0  0  0  0  0  0  0  0  0  0
   -9.1269   -4.0513   -5.8882 H   0  0  0  0  0  0  0  0  0  0  0  0
   -9.7865   -5.6241   -5.6577 H   0  0  0  0  0  0  0  0  0  0  0  0
   -6.2138   -6.2131   -6.9036 H   0  0  0  0  0  0  0  0  0  0  0  0
   -8.1430   -6.5442   -4.7280 H   0  0  0  0  0  0  0  0  0  0  0  0
   -6.9231   -7.6745   -5.2832 H   0  0  0  0  0  0  0  0  0  0  0  0
   -6.5236   -6.2164   -3.0260 H   0  0  0  0  0  0  0  0  0  0  0  0
   -5.1763   -6.3889   -4.1497 H   0  0  0  0  0  0  0  0  0  0  0  0
   -7.0520   -4.0377   -3.7755 H   0  0  0  0  0  0  0  0  0  0  0  0
   -5.3225   -3.9686   -4.0169 H   0  0  0  0  0  0  0  0  0  0  0  0
   -5.5366   -4.0648   -6.3180 H   0  0  0  0  0  0  0  0  0  0  0  0
   -7.1902   -3.5524   -5.9732 H   0  0  0  0  0  0  0  0  0  0  0  0
   -7.9123   -8.5290  -10.3292 H   0  0  0  0  0  0  0  0  0  0  0  0
  1  5  1  0
  1  2  2  0
  1 15  1  0
  2  3  1  0
  2 31  1  0
  3  4  2  0
  4  9  1  0
  4  5  1  0
  5  6  1  0
  6  7  1  0
  6 16  1  0
  6 17  1  0
  7  8  1  0
  7 18  1  0
  7 19  1  0
  8  9  1  0
  8 20  1  0
  8 21  1  0
  9 10  1  0
 10 14  1  0
 10 11  1  0
 10 22  1  0
 11 12  1  0
 11 23  1  0
 11 24  1  0
 12 13  1  0
 12 25  1  0
 12 26  1  0
 13 14  1  0
 13 27  1  0
 13 28  1  0
 14 29  1  0
 14 30  1  0
M  CHG  1   2   1
M  END
>  <i_m_ct_stereo_status>  (259) 
1

>  <s_m_source_file>  (259) 
/var/tmp/pbs.5076255.sched01/tmprcd7yfff/907v12ihtf.sdf

>  <i_m_source_file_index>  (259) 
17

>  <i_lp_mmshare_version>  (259) 
48012

>  <i_f3d_flags>  (259) 
0

>  <s_epik_input>  (259) 
bjFuW2NIXW4oYzEyKVtDSDJdW0NIMl1bQ0gyXU4yW0NIXTNbQ0gyXVtDSDJdW0NIMl1bQ0gyXTM=

>  <s_epik_cmdline>  (259) 
J2VwaWtfcHl0aG9uJywgJy1waHQnLCAnMi4wJywgJy1waCcsICc3LjAnLCAnLXRuJywgJzgnLCAnLW1hJywgJzIwMCcsICctaW1hZScsICc8aW5maWxlLm1hZT4nLCAnLW9tYWUnLCAnPG91dGZpbGUubWFlPic=

>  <r_lp_tautomer_probability>  (259) 
0.0259916

>  <r_epik_Ionization_Penalty>  (259) 
0.94176

>  <r_epik_Ionization_Penalty_Charging>  (259) 
0.94176

>  <r_epik_Ionization_Penalty_Neutral>  (259) 
1.25926e-08

>  <r_epik_State_Penalty>  (259) 
2.6997

>  <r_epik_Charging_Adjusted_Penalty>  (259) 
3.64146

>  <i_epik_Tot_Q>  (259) 
1

>  <i_epik_Tot_abs_Q>  (259) 
1

>  <s_lp_Force_Field>  (259) 
OPLS3e

>  <r_lp_Energy>  (259) 
39.6057

>  <b_lp_Chiralities_Consistent>  (259) 
1

>  <s_lp_Variant>  (259) 
72:0-3

>  <s_i_glide_gridfile>  (259) 
pfpi4k_grid

>  <i_i_glide_lignum>  (259) 
17

>  <i_i_glide_rotatable_bonds>  (259) 
1

>  <r_i_docking_score>  (259) 
-4.46979

>  <r_i_glide_ligand_efficiency>  (259) 
-0.319271

>  <r_i_glide_ligand_efficiency_sa>  (259) 
-0.769488

>  <r_i_glide_ligand_efficiency_ln>  (259) 
-1.22828

>  <r_i_glide_gscore>  (259) 
-4.46979

>  <r_i_glide_lipo>  (259) 
-1.52914

>  <r_i_glide_hbond>  (259) 
0

>  <r_i_glide_metal>  (259) 
-0

>  <r_i_glide_rewards>  (259) 
-2.67494

>  <r_i_glide_evdw>  (259) 
-11.5892

>  <r_i_glide_ecoul>  (259) 
-0.79

>  <r_i_glide_erotb>  (259) 
0.432254

>  <r_i_glide_esite>  (259) 
0

>  <r_i_glide_emodel>  (259) 
-18.3147

>  <r_i_glide_energy>  (259) 
-12.3792

>  <r_i_glide_einternal>  (259) 
1.6802

>  <r_i_glide_intrahb_reward>  (259) 
-0

>  <i_i_glide_confnum>  (259) 
3

>  <i_i_glide_posenum>  (259) 
7

>  <r_i_glide_eff_state_penalty>  (259) 
0

>  <ligand_id>  (259) 
72

>  <original_smiles>  (259) 
c1nnc2n1CCCN2C1CCCC1

>  <smiles>  (259) 
[H]c1n2c(n[n+]1[H])N(C1([H])C([H])([H])C([H])([H])C([H])([H])C1([H])[H])C([H])([H])C([H])([H])C2([H])[H]

$$$$
74:0:0
     RDKit          3D

 19 21  0  0  1  0  0  0  0  0999 V2000
    1.4536    0.1897    1.6808 N   0  0  0  0  0  0  0  0  0  0  0  0
    2.5329    0.2492    2.5837 C   0  0  0  0  0  0  0  0  0  0  0  0
    2.3885    0.7678    3.7778 N   0  0  0  0  0  0  0  0  0  0  0  0
    3.6423    0.6246    4.3889 O   0  0  0  0  0  0  0  0  0  0  0  0
    4.5503   -0.0021    3.5177 N   0  0  0  0  0  0  0  0  0  0  0  0
    3.8786   -0.2221    2.4101 C   0  0  0  0  0  0  0  0  0  0  0  0
    4.5263   -0.8672    1.2398 C   0  0  0  0  0  0  0  0  0  0  0  0
    3.7536   -1.0544    0.1401 N   0  0  0  0  0  0  0  0  0  0  0  0
    4.3116   -1.6510   -0.9397 C   0  0  0  0  0  0  0  0  0  0  0  0
    5.6613   -2.0700   -0.9371 C   0  0  0  0  0  0  0  0  0  0  0  0
    6.5287   -2.6475   -1.7759 N   0  0  0  0  0  0  0  0  0  0  0  0
    7.7495   -2.7453   -1.1016 N   0  0  0  0  0  0  0  0  0  0  0  0
    7.5914   -2.2545    0.1312 C   0  0  0  0  0  0  0  0  0  0  0  0
    6.3173   -1.8075    0.2603 N   0  0  0  0  0  0  0  0  0  0  0  0
    5.8372   -1.2256    1.3632 N   0  0  0  0  0  0  0  0  0  0  0  0
    1.5279   -0.1878    0.7327 H   0  0  0  0  0  0  0  0  0  0  0  0
    3.6965   -1.7956   -1.8145 H   0  0  0  0  0  0  0  0  0  0  0  0
    8.3668   -2.1925    0.8819 H   0  0  0  0  0  0  0  0  0  0  0  0
    0.5616    0.6178    1.8946 H   0  0  0  0  0  0  0  0  0  0  0  0
  1  2  1  0
  1 16  1  0
  1 19  1  0
  2  6  1  0
  2  3  2  0
  3  4  1  0
  4  5  1  0
  5  6  2  0
  6  7  1  0
  7 15  2  0
  7  8  1  0
  8  9  2  0
  9 10  1  0
  9 17  1  0
 10 14  1  0
 10 11  2  0
 11 12  1  0
 12 13  2  0
 13 14  1  0
 13 18  1  0
 14 15  1  0
M  END
>  <i_m_ct_stereo_status>  (260) 
1

>  <s_m_source_file>  (260) 
/var/tmp/pbs.5076255.sched01/tmprcd7yfff/907v12ihtf.sdf

>  <i_m_source_file_index>  (260) 
19

>  <i_lp_mmshare_version>  (260) 
48012

>  <i_f3d_flags>  (260) 
0

>  <s_epik_input>  (260) 
W0hdL049YzFcW25IXW9uYzEtYyhuW2NIXTIpbm4oYzIzKVtjSF1ubjM=

>  <s_epik_cmdline>  (260) 
J2VwaWtfcHl0aG9uJywgJy1waHQnLCAnMi4wJywgJy1waCcsICc3LjAnLCAnLXRuJywgJzgnLCAnLW1hJywgJzIwMCcsICctaW1hZScsICc8aW5maWxlLm1hZT4nLCAnLW9tYWUnLCAnPG91dGZpbGUubWFlPic=

>  <r_lp_tautomer_probability>  (260) 
1

>  <r_epik_Ionization_Penalty>  (260) 
1.1654e-05

>  <r_epik_Ionization_Penalty_Charging>  (260) 
0

>  <r_epik_Ionization_Penalty_Neutral>  (260) 
1.1654e-05

>  <r_epik_State_Penalty>  (260) 
-0

>  <r_epik_Charging_Adjusted_Penalty>  (260) 
0

>  <i_epik_Tot_Q>  (260) 
0

>  <i_epik_Tot_abs_Q>  (260) 
0

>  <s_lp_Force_Field>  (260) 
OPLS3e

>  <r_lp_Energy>  (260) 
11.9443

>  <b_lp_Chiralities_Consistent>  (260) 
1

>  <s_lp_Variant>  (260) 
74:0-1

>  <s_i_glide_gridfile>  (260) 
pfpi4k_grid

>  <i_i_glide_lignum>  (260) 
19

>  <i_i_glide_rotatable_bonds>  (260) 
1

>  <r_i_docking_score>  (260) 
-3.68146

>  <r_i_glide_ligand_efficiency>  (260) 
-0.245431

>  <r_i_glide_ligand_efficiency_sa>  (260) 
-0.605284

>  <r_i_glide_ligand_efficiency_ln>  (260) 
-0.992829

>  <r_i_glide_gscore>  (260) 
-3.68146

>  <r_i_glide_lipo>  (260) 
-0.0324737

>  <r_i_glide_hbond>  (260) 
-0.156962

>  <r_i_glide_metal>  (260) 
-0

>  <r_i_glide_rewards>  (260) 
-2.2469

>  <r_i_glide_evdw>  (260) 
-20.5996

>  <r_i_glide_ecoul>  (260) 
-2.69335

>  <r_i_glide_erotb>  (260) 
0.394578

>  <r_i_glide_esite>  (260) 
-0.205714

>  <r_i_glide_emodel>  (260) 
-28.9841

>  <r_i_glide_energy>  (260) 
-23.293

>  <r_i_glide_einternal>  (260) 
0.0248481

>  <r_i_glide_intrahb_reward>  (260) 
-0

>  <i_i_glide_confnum>  (260) 
2

>  <i_i_glide_posenum>  (260) 
29

>  <r_i_glide_eff_state_penalty>  (260) 
0

>  <ligand_id>  (260) 
74

>  <original_smiles>  (260) 
N=c1[nH]onc1-c1ncc2nncn2n1

>  <smiles>  (260) 
[H]c1nc(-c2nonc2N([H])[H])nn2c([H])nnc12

$$$$
74:0:1
     RDKit          3D

 19 21  0  0  1  0  0  0  0  0999 V2000
    4.1470    0.1406    0.9225 N   0  0  0  0  0  0  0  0  0  0  0  0
    3.8638   -1.2287    0.9719 C   0  0  0  0  0  0  0  0  0  0  0  0
    4.6041   -2.0960    0.3324 N   0  0  0  0  0  0  0  0  0  0  0  0
    4.0678   -3.3424    0.6838 O   0  0  0  0  0  0  0  0  0  0  0  0
    2.9769   -3.1893    1.5578 N   0  0  0  0  0  0  0  0  0  0  0  0
    2.8381   -1.8932    1.7213 C   0  0  0  0  0  0  0  0  0  0  0  0
    1.7747   -1.3379    2.5933 C   0  0  0  0  0  0  0  0  0  0  0  0
    1.5143   -0.0046    2.4796 N   0  0  0  0  0  0  0  0  0  0  0  0
    0.5314    0.5111    3.2567 C   0  0  0  0  0  0  0  0  0  0  0  0
   -0.1853   -0.2833    4.1852 C   0  0  0  0  0  0  0  0  0  0  0  0
   -1.1758   -0.1398    5.0749 N   0  0  0  0  0  0  0  0  0  0  0  0
   -1.3823   -1.3906    5.6711 N   0  0  0  0  0  0  0  0  0  0  0  0
   -0.5152   -2.2568    5.1315 C   0  0  0  0  0  0  0  0  0  0  0  0
    0.2272   -1.6110    4.1995 N   0  0  0  0  0  0  0  0  0  0  0  0
    1.1681   -2.2011    3.4556 N   0  0  0  0  0  0  0  0  0  0  0  0
    3.5319    0.8208    1.3617 H   0  0  0  0  0  0  0  0  0  0  0  0
    0.3070    1.5606    3.1386 H   0  0  0  0  0  0  0  0  0  0  0  0
   -0.4444   -3.3068    5.3732 H   0  0  0  0  0  0  0  0  0  0  0  0
    4.8381    0.5322    0.2933 H   0  0  0  0  0  0  0  0  0  0  0  0
  1  2  1  0
  1 16  1  0
  1 19  1  0
  2  6  1  0
  2  3  2  0
  3  4  1  0
  4  5  1  0
  5  6  2  0
  6  7  1  0
  7 15  2  0
  7  8  1  0
  8  9  2  0
  9 10  1  0
  9 17  1  0
 10 14  1  0
 10 11  2  0
 11 12  1  0
 12 13  2  0
 13 14  1  0
 13 18  1  0
 14 15  1  0
M  END
>  <i_m_ct_stereo_status>  (261) 
1

>  <s_m_source_file>  (261) 
/var/tmp/pbs.5076255.sched01/tmprcd7yfff/907v12ihtf.sdf

>  <i_m_source_file_index>  (261) 
19

>  <i_lp_mmshare_version>  (261) 
48012

>  <i_f3d_flags>  (261) 
0

>  <s_epik_input>  (261) 
W0hdL049YzFcW25IXW9uYzEtYyhuW2NIXTIpbm4oYzIzKVtjSF1ubjM=

>  <s_epik_cmdline>  (261) 
J2VwaWtfcHl0aG9uJywgJy1waHQnLCAnMi4wJywgJy1waCcsICc3LjAnLCAnLXRuJywgJzgnLCAnLW1hJywgJzIwMCcsICctaW1hZScsICc8aW5maWxlLm1hZT4nLCAnLW9tYWUnLCAnPG91dGZpbGUubWFlPic=

>  <r_lp_tautomer_probability>  (261) 
1

>  <r_epik_Ionization_Penalty>  (261) 
1.1654e-05

>  <r_epik_Ionization_Penalty_Charging>  (261) 
0

>  <r_epik_Ionization_Penalty_Neutral>  (261) 
1.1654e-05

>  <r_epik_State_Penalty>  (261) 
-0

>  <r_epik_Charging_Adjusted_Penalty>  (261) 
0

>  <i_epik_Tot_Q>  (261) 
0

>  <i_epik_Tot_abs_Q>  (261) 
0

>  <s_lp_Force_Field>  (261) 
OPLS3e

>  <r_lp_Energy>  (261) 
11.9443

>  <b_lp_Chiralities_Consistent>  (261) 
1

>  <s_lp_Variant>  (261) 
74:0-1

>  <s_i_glide_gridfile>  (261) 
pfpi4k_grid

>  <i_i_glide_lignum>  (261) 
19

>  <i_i_glide_rotatable_bonds>  (261) 
1

>  <r_i_docking_score>  (261) 
-3.56435

>  <r_i_glide_ligand_efficiency>  (261) 
-0.237623

>  <r_i_glide_ligand_efficiency_sa>  (261) 
-0.586029

>  <r_i_glide_ligand_efficiency_ln>  (261) 
-0.961246

>  <r_i_glide_gscore>  (261) 
-3.56435

>  <r_i_glide_lipo>  (261) 
0

>  <r_i_glide_hbond>  (261) 
-0.241461

>  <r_i_glide_metal>  (261) 
-0

>  <r_i_glide_rewards>  (261) 
-2.01717

>  <r_i_glide_evdw>  (261) 
-16.7818

>  <r_i_glide_ecoul>  (261) 
-4.66067

>  <r_i_glide_erotb>  (261) 
0.394578

>  <r_i_glide_esite>  (261) 
-0.162105

>  <r_i_glide_emodel>  (261) 
-26.7533

>  <r_i_glide_energy>  (261) 
-21.4425

>  <r_i_glide_einternal>  (261) 
0.384207

>  <r_i_glide_intrahb_reward>  (261) 
-0

>  <i_i_glide_confnum>  (261) 
2

>  <i_i_glide_posenum>  (261) 
11

>  <r_i_glide_eff_state_penalty>  (261) 
0

>  <ligand_id>  (261) 
74

>  <original_smiles>  (261) 
N=c1[nH]onc1-c1ncc2nncn2n1

>  <smiles>  (261) 
[H]c1nc(-c2nonc2N([H])[H])nn2c([H])nnc12

$$$$
74:0:2
     RDKit          3D

 19 21  0  0  1  0  0  0  0  0999 V2000
   -0.4690    2.5426    2.8795 N   0  0  0  0  0  0  0  0  0  0  0  0
   -1.1516    2.4680    4.1011 C   0  0  0  0  0  0  0  0  0  0  0  0
   -1.8191    3.4849    4.5904 N   0  0  0  0  0  0  0  0  0  0  0  0
   -2.3258    3.0166    5.8101 O   0  0  0  0  0  0  0  0  0  0  0  0
   -1.9393    1.6856    6.0359 N   0  0  0  0  0  0  0  0  0  0  0  0
   -1.2322    1.3444    4.9822 C   0  0  0  0  0  0  0  0  0  0  0  0
   -0.6658   -0.0201    4.8583 C   0  0  0  0  0  0  0  0  0  0  0  0
   -1.1108   -0.9422    5.7641 N   0  0  0  0  0  0  0  0  0  0  0  0
   -0.6025   -2.1948    5.6858 C   0  0  0  0  0  0  0  0  0  0  0  0
    0.3428   -2.5533    4.6994 C   0  0  0  0  0  0  0  0  0  0  0  0
    1.0201   -3.6449    4.3349 N   0  0  0  0  0  0  0  0  0  0  0  0
    1.8118   -3.2847    3.2399 N   0  0  0  0  0  0  0  0  0  0  0  0
    1.5902   -1.9951    2.9637 C   0  0  0  0  0  0  0  0  0  0  0  0
    0.6819   -1.5092    3.8488 N   0  0  0  0  0  0  0  0  0  0  0  0
    0.2309   -0.2487    3.8556 N   0  0  0  0  0  0  0  0  0  0  0  0
    0.0030    1.7506    2.4699 H   0  0  0  0  0  0  0  0  0  0  0  0
   -0.9415   -2.9263    6.4006 H   0  0  0  0  0  0  0  0  0  0  0  0
    2.0540   -1.4399    2.1628 H   0  0  0  0  0  0  0  0  0  0  0  0
   -0.4776    3.3729    2.2805 H   0  0  0  0  0  0  0  0  0  0  0  0
  1  2  1  0
  1 16  1  0
  1 19  1  0
  2  6  1  0
  2  3  2  0
  3  4  1  0
  4  5  1  0
  5  6  2  0
  6  7  1  0
  7 15  2  0
  7  8  1  0
  8  9  2  0
  9 10  1  0
  9 17  1  0
 10 14  1  0
 10 11  2  0
 11 12  1  0
 12 13  2  0
 13 14  1  0
 13 18  1  0
 14 15  1  0
M  END
>  <i_m_ct_stereo_status>  (262) 
1

>  <s_m_source_file>  (262) 
/var/tmp/pbs.5076255.sched01/tmprcd7yfff/907v12ihtf.sdf

>  <i_m_source_file_index>  (262) 
19

>  <i_lp_mmshare_version>  (262) 
48012

>  <i_f3d_flags>  (262) 
0

>  <s_epik_input>  (262) 
W0hdL049YzFcW25IXW9uYzEtYyhuW2NIXTIpbm4oYzIzKVtjSF1ubjM=

>  <s_epik_cmdline>  (262) 
J2VwaWtfcHl0aG9uJywgJy1waHQnLCAnMi4wJywgJy1waCcsICc3LjAnLCAnLXRuJywgJzgnLCAnLW1hJywgJzIwMCcsICctaW1hZScsICc8aW5maWxlLm1hZT4nLCAnLW9tYWUnLCAnPG91dGZpbGUubWFlPic=

>  <r_lp_tautomer_probability>  (262) 
1

>  <r_epik_Ionization_Penalty>  (262) 
1.1654e-05

>  <r_epik_Ionization_Penalty_Charging>  (262) 
0

>  <r_epik_Ionization_Penalty_Neutral>  (262) 
1.1654e-05

>  <r_epik_State_Penalty>  (262) 
-0

>  <r_epik_Charging_Adjusted_Penalty>  (262) 
0

>  <i_epik_Tot_Q>  (262) 
0

>  <i_epik_Tot_abs_Q>  (262) 
0

>  <s_lp_Force_Field>  (262) 
OPLS3e

>  <r_lp_Energy>  (262) 
11.9443

>  <b_lp_Chiralities_Consistent>  (262) 
1

>  <s_lp_Variant>  (262) 
74:0-1

>  <s_i_glide_gridfile>  (262) 
pfpi4k_grid

>  <i_i_glide_lignum>  (262) 
19

>  <i_i_glide_rotatable_bonds>  (262) 
1

>  <r_i_docking_score>  (262) 
-3.5353

>  <r_i_glide_ligand_efficiency>  (262) 
-0.235687

>  <r_i_glide_ligand_efficiency_sa>  (262) 
-0.581253

>  <r_i_glide_ligand_efficiency_ln>  (262) 
-0.953412

>  <r_i_glide_gscore>  (262) 
-3.5353

>  <r_i_glide_lipo>  (262) 
0

>  <r_i_glide_hbond>  (262) 
-0.16

>  <r_i_glide_metal>  (262) 
-0

>  <r_i_glide_rewards>  (262) 
-2.06224

>  <r_i_glide_evdw>  (262) 
-16.4985

>  <r_i_glide_ecoul>  (262) 
-4.6628

>  <r_i_glide_erotb>  (262) 
0.394578

>  <r_i_glide_esite>  (262) 
-0.183295

>  <r_i_glide_emodel>  (262) 
-26.5256

>  <r_i_glide_energy>  (262) 
-21.1613

>  <r_i_glide_einternal>  (262) 
0.143807

>  <r_i_glide_intrahb_reward>  (262) 
-0

>  <i_i_glide_confnum>  (262) 
1

>  <i_i_glide_posenum>  (262) 
7

>  <r_i_glide_eff_state_penalty>  (262) 
0

>  <ligand_id>  (262) 
74

>  <original_smiles>  (262) 
N=c1[nH]onc1-c1ncc2nncn2n1

>  <smiles>  (262) 
[H]c1nc(-c2nonc2N([H])[H])nn2c([H])nnc12

$$$$
77:0:0
     RDKit          3D

 33 36  0  0  1  0  0  0  0  0999 V2000
    0.3607  -10.5343    3.0993 C   0  0  0  0  0  0  0  0  0  0  0  0
    0.7804   -9.0774    2.9982 C   0  0  0  0  0  0  0  0  0  0  0  0
   -0.0368   -8.0991    3.5220 C   0  0  0  0  0  0  0  0  0  0  0  0
    0.3653   -6.7428    3.4508 C   0  0  0  0  0  0  0  0  0  0  0  0
    1.5634   -6.3997    2.8667 C   0  0  0  0  0  0  0  0  0  0  0  0
    2.3686   -7.3633    2.3206 N   0  0  0  0  0  0  0  0  0  0  0  0
    3.5957   -7.2979    1.6576 C   0  0  0  0  0  0  0  0  0  0  0  0
    4.3118   -6.0854    1.3633 C   0  0  0  0  0  0  0  0  0  0  0  0
    3.9210   -4.9410    0.7484 C   0  0  0  0  0  0  0  0  0  0  0  0
    2.6138   -4.6996    0.1238 C   0  0  0  0  0  0  0  0  0  0  0  0
    1.6462   -5.4610    0.0507 O   0  0  0  0  0  0  0  0  0  0  0  0
    2.6364   -3.4463   -0.3669 N   0  0  0  0  0  0  0  0  0  0  0  0
    3.8686   -2.8359   -0.1432 C   0  0  0  0  0  0  0  0  0  0  0  0
    4.3086   -1.5586   -0.5134 C   0  0  0  0  0  0  0  0  0  0  0  0
    5.6336   -1.2426   -0.1436 C   0  0  0  0  0  0  0  0  0  0  0  0
    6.4139   -2.2056    0.5495 C   0  0  0  0  0  0  0  0  0  0  0  0
    5.9621   -3.4393    0.8956 N   0  0  0  0  0  0  0  0  0  0  0  0
    4.6933   -3.7165    0.5333 C   0  0  0  0  0  0  0  0  0  0  0  0
    3.9467   -8.5924    1.3695 C   0  0  0  0  0  0  0  0  0  0  0  0
    2.9680   -9.4742    1.8044 N   0  0  0  0  0  0  0  0  0  0  0  0
    2.0158   -8.7364    2.3729 C   0  0  0  0  0  0  0  0  0  0  0  0
   -0.5740  -10.6390    3.6507 H   0  0  0  0  0  0  0  0  0  0  0  0
    1.1207  -11.1219    3.6192 H   0  0  0  0  0  0  0  0  0  0  0  0
    0.2147  -10.9588    2.1054 H   0  0  0  0  0  0  0  0  0  0  0  0
   -0.9763   -8.3686    4.0037 H   0  0  0  0  0  0  0  0  0  0  0  0
   -0.2595   -5.9579    3.8686 H   0  0  0  0  0  0  0  0  0  0  0  0
    1.9118   -5.3761    2.7926 H   0  0  0  0  0  0  0  0  0  0  0  0
    5.3192   -6.0911    1.7471 H   0  0  0  0  0  0  0  0  0  0  0  0
    1.8830   -2.9685   -0.8421 H   0  0  0  0  0  0  0  0  0  0  0  0
    3.6719   -0.8643   -1.0405 H   0  0  0  0  0  0  0  0  0  0  0  0
    6.0349   -0.2696   -0.3697 H   0  0  0  0  0  0  0  0  0  0  0  0
    7.4276   -1.9675    0.8360 H   0  0  0  0  0  0  0  0  0  0  0  0
    4.8265   -8.9669    0.8631 H   0  0  0  0  0  0  0  0  0  0  0  0
  1  2  1  0
  1 22  1  0
  1 23  1  0
  1 24  1  0
  2 21  1  0
  2  3  2  0
  3  4  1  0
  3 25  1  0
  4  5  2  0
  4 26  1  0
  5  6  1  0
  5 27  1  0
  6 21  1  0
  6  7  1  0
  7  8  1  0
  7 19  2  0
  8  9  2  3
  8 28  1  0
  9 18  1  0
  9 10  1  0
 10 11  2  0
 10 12  1  0
 12 13  1  0
 12 29  1  0
 13 18  2  0
 13 14  1  0
 14 15  2  0
 14 30  1  0
 15 16  1  0
 15 31  1  0
 16 17  2  0
 16 32  1  0
 17 18  1  0
 19 20  1  0
 19 33  1  0
 20 21  2  0
M  END
>  <i_m_ct_stereo_status>  (263) 
1

>  <s_m_source_file>  (263) 
/var/tmp/pbs.5076255.sched01/tmprcd7yfff/907v12ihtf.sdf

>  <i_m_source_file_index>  (263) 
23

>  <i_lp_mmshare_version>  (263) 
48012

>  <i_f3d_flags>  (263) 
0

>  <s_epik_input>  (263) 
W2NIXTFbY0hdW2NIXWMoW0NIM10pYyhuMTIpbltjSF1jMi9bQ0hdPUMoXEMoPU8pW05IXTMpYyhjMzQpbltjSF1bY0hdW2NIXTQ=

>  <s_epik_cmdline>  (263) 
J2VwaWtfcHl0aG9uJywgJy1waHQnLCAnMi4wJywgJy1waCcsICc3LjAnLCAnLXRuJywgJzgnLCAnLW1hJywgJzIwMCcsICctaW1hZScsICc8aW5maWxlLm1hZT4nLCAnLW9tYWUnLCAnPG91dGZpbGUubWFlPic=

>  <r_epik_Ionization_Penalty>  (263) 
0.0260425

>  <r_epik_Ionization_Penalty_Charging>  (263) 
0.0260351

>  <r_epik_Ionization_Penalty_Neutral>  (263) 
7.43417e-06

>  <r_epik_State_Penalty>  (263) 
0.0212295

>  <r_epik_Charging_Adjusted_Penalty>  (263) 
0.0472646

>  <i_epik_Tot_Q>  (263) 
0

>  <i_epik_Tot_abs_Q>  (263) 
0

>  <s_lp_Force_Field>  (263) 
OPLS3e

>  <r_lp_Energy>  (263) 
30.6163

>  <b_lp_Chiralities_Consistent>  (263) 
1

>  <s_lp_Variant>  (263) 
77:0-1

>  <s_i_glide_gridfile>  (263) 
pfpi4k_grid

>  <i_i_glide_lignum>  (263) 
23

>  <i_i_glide_rotatable_bonds>  (263) 
1

>  <r_i_docking_score>  (263) 
-3.57159

>  <r_i_glide_ligand_efficiency>  (263) 
-0.170076

>  <r_i_glide_ligand_efficiency_sa>  (263) 
-0.469226

>  <r_i_glide_ligand_efficiency_ln>  (263) 
-0.883068

>  <r_i_glide_gscore>  (263) 
-3.57159

>  <r_i_glide_lipo>  (263) 
-0.266872

>  <r_i_glide_hbond>  (263) 
-0.162592

>  <r_i_glide_metal>  (263) 
-0

>  <r_i_glide_rewards>  (263) 
-1.52528

>  <r_i_glide_evdw>  (263) 
-24.8459

>  <r_i_glide_ecoul>  (263) 
-3.5124

>  <r_i_glide_erotb>  (263) 
0.235652

>  <r_i_glide_esite>  (263) 
-0.083346

>  <r_i_glide_emodel>  (263) 
-32.4735

>  <r_i_glide_energy>  (263) 
-28.3583

>  <r_i_glide_einternal>  (263) 
4.0875

>  <r_i_glide_intrahb_reward>  (263) 
-0

>  <i_i_glide_confnum>  (263) 
5

>  <i_i_glide_posenum>  (263) 
38

>  <r_i_glide_eff_state_penalty>  (263) 
0

>  <ligand_id>  (263) 
77

>  <original_smiles>  (263) 
Cc1cccn2c(C=C3C(=O)Nc4cccnc43)cnc12

>  <smiles>  (263) 
[H]C(=C1C(=O)N([H])c2c1nc([H])c([H])c2[H])c1c([H])nc2c(C([H])([H])[H])c([H])c([H])c([H])n12

$$$$
77:0:1
     RDKit          3D

 33 36  0  0  1  0  0  0  0  0999 V2000
    0.4719   -9.9659    4.0727 C   0  0  0  0  0  0  0  0  0  0  0  0
    0.9925   -8.6056    3.6326 C   0  0  0  0  0  0  0  0  0  0  0  0
    0.3513   -7.4638    4.0648 C   0  0  0  0  0  0  0  0  0  0  0  0
    0.8440   -6.1935    3.6866 C   0  0  0  0  0  0  0  0  0  0  0  0
    1.9617   -6.0895    2.8971 C   0  0  0  0  0  0  0  0  0  0  0  0
    2.5835   -7.2194    2.4264 N   0  0  0  0  0  0  0  0  0  0  0  0
    3.6802   -7.4063    1.5948 C   0  0  0  0  0  0  0  0  0  0  0  0
    4.4078   -6.3374    0.9432 C   0  0  0  0  0  0  0  0  0  0  0  0
    3.9960   -5.2079    0.3082 C   0  0  0  0  0  0  0  0  0  0  0  0
    2.6085   -4.8331    0.0265 C   0  0  0  0  0  0  0  0  0  0  0  0
    1.5746   -5.4729    0.2197 O   0  0  0  0  0  0  0  0  0  0  0  0
    2.6319   -3.6333   -0.5740 N   0  0  0  0  0  0  0  0  0  0  0  0
    3.9307   -3.2052   -0.7890 C   0  0  0  0  0  0  0  0  0  0  0  0
    4.3944   -2.0604   -1.4362 C   0  0  0  0  0  0  0  0  0  0  0  0
    5.7937   -1.9129   -1.5035 C   0  0  0  0  0  0  0  0  0  0  0  0
    6.6225   -2.9067   -0.9286 C   0  0  0  0  0  0  0  0  0  0  0  0
    6.1447   -4.0168   -0.3119 N   0  0  0  0  0  0  0  0  0  0  0  0
    4.8029   -4.1387   -0.2680 C   0  0  0  0  0  0  0  0  0  0  0  0
    3.8596   -8.7692    1.5038 C   0  0  0  0  0  0  0  0  0  0  0  0
    2.9110   -9.4548    2.2315 N   0  0  0  0  0  0  0  0  0  0  0  0
    2.1387   -8.5187    2.7841 C   0  0  0  0  0  0  0  0  0  0  0  0
   -0.3617   -9.8583    4.7624 H   0  0  0  0  0  0  0  0  0  0  0  0
    1.2606  -10.5195    4.5803 H   0  0  0  0  0  0  0  0  0  0  0  0
    0.1412  -10.5417    3.2097 H   0  0  0  0  0  0  0  0  0  0  0  0
   -0.5293   -7.5317    4.7000 H   0  0  0  0  0  0  0  0  0  0  0  0
    0.3377   -5.2893    4.0168 H   0  0  0  0  0  0  0  0  0  0  0  0
    2.3929   -5.1314    2.6162 H   0  0  0  0  0  0  0  0  0  0  0  0
    5.4766   -6.4627    1.0227 H   0  0  0  0  0  0  0  0  0  0  0  0
    1.8301   -3.1275   -0.9149 H   0  0  0  0  0  0  0  0  0  0  0  0
    3.7184   -1.3341   -1.8568 H   0  0  0  0  0  0  0  0  0  0  0  0
    6.2070   -1.0526   -1.9862 H   0  0  0  0  0  0  0  0  0  0  0  0
    7.6954   -2.7983   -0.9713 H   0  0  0  0  0  0  0  0  0  0  0  0
    4.6017   -9.3085    0.9459 H   0  0  0  0  0  0  0  0  0  0  0  0
  1  2  1  0
  1 22  1  0
  1 23  1  0
  1 24  1  0
  2 21  1  0
  2  3  2  0
  3  4  1  0
  3 25  1  0
  4  5  2  0
  4 26  1  0
  5  6  1  0
  5 27  1  0
  6 21  1  0
  6  7  1  0
  7  8  1  0
  7 19  2  0
  8  9  2  3
  8 28  1  0
  9 18  1  0
  9 10  1  0
 10 11  2  0
 10 12  1  0
 12 13  1  0
 12 29  1  0
 13 18  2  0
 13 14  1  0
 14 15  2  0
 14 30  1  0
 15 16  1  0
 15 31  1  0
 16 17  2  0
 16 32  1  0
 17 18  1  0
 19 20  1  0
 19 33  1  0
 20 21  2  0
M  END
>  <i_m_ct_stereo_status>  (264) 
1

>  <s_m_source_file>  (264) 
/var/tmp/pbs.5076255.sched01/tmprcd7yfff/907v12ihtf.sdf

>  <i_m_source_file_index>  (264) 
23

>  <i_lp_mmshare_version>  (264) 
48012

>  <i_f3d_flags>  (264) 
0

>  <s_epik_input>  (264) 
W2NIXTFbY0hdW2NIXWMoW0NIM10pYyhuMTIpbltjSF1jMi9bQ0hdPUMoXEMoPU8pW05IXTMpYyhjMzQpbltjSF1bY0hdW2NIXTQ=

>  <s_epik_cmdline>  (264) 
J2VwaWtfcHl0aG9uJywgJy1waHQnLCAnMi4wJywgJy1waCcsICc3LjAnLCAnLXRuJywgJzgnLCAnLW1hJywgJzIwMCcsICctaW1hZScsICc8aW5maWxlLm1hZT4nLCAnLW9tYWUnLCAnPG91dGZpbGUubWFlPic=

>  <r_epik_Ionization_Penalty>  (264) 
0.0260425

>  <r_epik_Ionization_Penalty_Charging>  (264) 
0.0260351

>  <r_epik_Ionization_Penalty_Neutral>  (264) 
7.43417e-06

>  <r_epik_State_Penalty>  (264) 
0.0212295

>  <r_epik_Charging_Adjusted_Penalty>  (264) 
0.0472646

>  <i_epik_Tot_Q>  (264) 
0

>  <i_epik_Tot_abs_Q>  (264) 
0

>  <s_lp_Force_Field>  (264) 
OPLS3e

>  <r_lp_Energy>  (264) 
30.6163

>  <b_lp_Chiralities_Consistent>  (264) 
1

>  <s_lp_Variant>  (264) 
77:0-1

>  <s_i_glide_gridfile>  (264) 
pfpi4k_grid

>  <i_i_glide_lignum>  (264) 
23

>  <i_i_glide_rotatable_bonds>  (264) 
1

>  <r_i_docking_score>  (264) 
-3.4042

>  <r_i_glide_ligand_efficiency>  (264) 
-0.162105

>  <r_i_glide_ligand_efficiency_sa>  (264) 
-0.447235

>  <r_i_glide_ligand_efficiency_ln>  (264) 
-0.841682

>  <r_i_glide_gscore>  (264) 
-3.4042

>  <r_i_glide_lipo>  (264) 
-0.231458

>  <r_i_glide_hbond>  (264) 
-0.132357

>  <r_i_glide_metal>  (264) 
-0

>  <r_i_glide_rewards>  (264) 
-1.52528

>  <r_i_glide_evdw>  (264) 
-22.1864

>  <r_i_glide_ecoul>  (264) 
-3.61529

>  <r_i_glide_erotb>  (264) 
0.235652

>  <r_i_glide_esite>  (264) 
-0.0991489

>  <r_i_glide_emodel>  (264) 
-29.4418

>  <r_i_glide_energy>  (264) 
-25.8017

>  <r_i_glide_einternal>  (264) 
3.78553

>  <r_i_glide_intrahb_reward>  (264) 
-0

>  <i_i_glide_confnum>  (264) 
2

>  <i_i_glide_posenum>  (264) 
39

>  <r_i_glide_eff_state_penalty>  (264) 
0

>  <ligand_id>  (264) 
77

>  <original_smiles>  (264) 
Cc1cccn2c(C=C3C(=O)Nc4cccnc43)cnc12

>  <smiles>  (264) 
[H]C(=C1C(=O)N([H])c2c1nc([H])c([H])c2[H])c1c([H])nc2c(C([H])([H])[H])c([H])c([H])c([H])n12

$$$$
77:0:2
     RDKit          3D

 33 36  0  0  1  0  0  0  0  0999 V2000
   -0.8949   -7.1519    4.5855 C   0  0  0  0  0  0  0  0  0  0  0  0
    0.2473   -7.0080    3.5974 C   0  0  0  0  0  0  0  0  0  0  0  0
    0.4022   -7.9440    2.5990 C   0  0  0  0  0  0  0  0  0  0  0  0
    1.4805   -7.8344    1.6929 C   0  0  0  0  0  0  0  0  0  0  0  0
    2.3905   -6.8098    1.8179 C   0  0  0  0  0  0  0  0  0  0  0  0
    2.2337   -5.8606    2.7866 N   0  0  0  0  0  0  0  0  0  0  0  0
    2.9679   -4.7164    3.1054 C   0  0  0  0  0  0  0  0  0  0  0  0
    4.1226   -4.2418    2.3838 C   0  0  0  0  0  0  0  0  0  0  0  0
    4.3496   -4.0204    1.0668 C   0  0  0  0  0  0  0  0  0  0  0  0
    3.3742   -4.1551   -0.0168 C   0  0  0  0  0  0  0  0  0  0  0  0
    2.2099   -4.5171    0.0339 O   0  0  0  0  0  0  0  0  0  0  0  0
    3.9880   -3.8371   -1.1613 N   0  0  0  0  0  0  0  0  0  0  0  0
    5.3060   -3.4640   -0.9448 C   0  0  0  0  0  0  0  0  0  0  0  0
    6.2799   -3.0384   -1.8585 C   0  0  0  0  0  0  0  0  0  0  0  0
    7.5333   -2.7064   -1.3038 C   0  0  0  0  0  0  0  0  0  0  0  0
    7.7255   -2.8271    0.0962 C   0  0  0  0  0  0  0  0  0  0  0  0
    6.7687   -3.2556    0.9590 N   0  0  0  0  0  0  0  0  0  0  0  0
    5.5763   -3.5605    0.4092 C   0  0  0  0  0  0  0  0  0  0  0  0
    2.3580   -4.1670    4.2044 C   0  0  0  0  0  0  0  0  0  0  0  0
    1.2342   -4.8980    4.5754 N   0  0  0  0  0  0  0  0  0  0  0  0
    1.1658   -5.9238    3.7238 C   0  0  0  0  0  0  0  0  0  0  0  0
   -1.5291   -8.0073    4.3458 H   0  0  0  0  0  0  0  0  0  0  0  0
   -1.5152   -6.2546    4.5835 H   0  0  0  0  0  0  0  0  0  0  0  0
   -0.5025   -7.2948    5.5935 H   0  0  0  0  0  0  0  0  0  0  0  0
   -0.2908   -8.7808    2.5054 H   0  0  0  0  0  0  0  0  0  0  0  0
    1.6045   -8.5600    0.8933 H   0  0  0  0  0  0  0  0  0  0  0  0
    3.2301   -6.6984    1.1410 H   0  0  0  0  0  0  0  0  0  0  0  0
    4.9695   -4.0685    3.0335 H   0  0  0  0  0  0  0  0  0  0  0  0
    3.5577   -3.9126   -2.0703 H   0  0  0  0  0  0  0  0  0  0  0  0
    6.0754   -2.9745   -2.9162 H   0  0  0  0  0  0  0  0  0  0  0  0
    8.3469   -2.3928   -1.9401 H   0  0  0  0  0  0  0  0  0  0  0  0
    8.6819   -2.5770    0.5296 H   0  0  0  0  0  0  0  0  0  0  0  0
    2.6299   -3.2738    4.7523 H   0  0  0  0  0  0  0  0  0  0  0  0
  1  2  1  0
  1 22  1  0
  1 23  1  0
  1 24  1  0
  2 21  1  0
  2  3  2  0
  3  4  1  0
  3 25  1  0
  4  5  2  0
  4 26  1  0
  5  6  1  0
  5 27  1  0
  6 21  1  0
  6  7  1  0
  7  8  1  0
  7 19  2  0
  8  9  2  3
  8 28  1  0
  9 18  1  0
  9 10  1  0
 10 11  2  0
 10 12  1  0
 12 13  1  0
 12 29  1  0
 13 18  2  0
 13 14  1  0
 14 15  2  0
 14 30  1  0
 15 16  1  0
 15 31  1  0
 16 17  2  0
 16 32  1  0
 17 18  1  0
 19 20  1  0
 19 33  1  0
 20 21  2  0
M  END
>  <i_m_ct_stereo_status>  (265) 
1

>  <s_m_source_file>  (265) 
/var/tmp/pbs.5076255.sched01/tmprcd7yfff/907v12ihtf.sdf

>  <i_m_source_file_index>  (265) 
23

>  <i_lp_mmshare_version>  (265) 
48012

>  <i_f3d_flags>  (265) 
0

>  <s_epik_input>  (265) 
W2NIXTFbY0hdW2NIXWMoW0NIM10pYyhuMTIpbltjSF1jMi9bQ0hdPUMoXEMoPU8pW05IXTMpYyhjMzQpbltjSF1bY0hdW2NIXTQ=

>  <s_epik_cmdline>  (265) 
J2VwaWtfcHl0aG9uJywgJy1waHQnLCAnMi4wJywgJy1waCcsICc3LjAnLCAnLXRuJywgJzgnLCAnLW1hJywgJzIwMCcsICctaW1hZScsICc8aW5maWxlLm1hZT4nLCAnLW9tYWUnLCAnPG91dGZpbGUubWFlPic=

>  <r_epik_Ionization_Penalty>  (265) 
0.0260425

>  <r_epik_Ionization_Penalty_Charging>  (265) 
0.0260351

>  <r_epik_Ionization_Penalty_Neutral>  (265) 
7.43417e-06

>  <r_epik_State_Penalty>  (265) 
0.0212295

>  <r_epik_Charging_Adjusted_Penalty>  (265) 
0.0472646

>  <i_epik_Tot_Q>  (265) 
0

>  <i_epik_Tot_abs_Q>  (265) 
0

>  <s_lp_Force_Field>  (265) 
OPLS3e

>  <r_lp_Energy>  (265) 
30.6163

>  <b_lp_Chiralities_Consistent>  (265) 
1

>  <s_lp_Variant>  (265) 
77:0-1

>  <s_i_glide_gridfile>  (265) 
pfpi4k_grid

>  <i_i_glide_lignum>  (265) 
23

>  <i_i_glide_rotatable_bonds>  (265) 
1

>  <r_i_docking_score>  (265) 
-3.22491

>  <r_i_glide_ligand_efficiency>  (265) 
-0.153567

>  <r_i_glide_ligand_efficiency_sa>  (265) 
-0.423681

>  <r_i_glide_ligand_efficiency_ln>  (265) 
-0.797354

>  <r_i_glide_gscore>  (265) 
-3.22491

>  <r_i_glide_lipo>  (265) 
-0.370899

>  <r_i_glide_hbond>  (265) 
-0.0249333

>  <r_i_glide_metal>  (265) 
-0

>  <r_i_glide_rewards>  (265) 
-1.52528

>  <r_i_glide_evdw>  (265) 
-22.7514

>  <r_i_glide_ecoul>  (265) 
-2.24806

>  <r_i_glide_erotb>  (265) 
0.235652

>  <r_i_glide_esite>  (265) 
-0.0646777

>  <r_i_glide_emodel>  (265) 
-28.3587

>  <r_i_glide_energy>  (265) 
-24.9995

>  <r_i_glide_einternal>  (265) 
4.24249

>  <r_i_glide_intrahb_reward>  (265) 
-0

>  <i_i_glide_confnum>  (265) 
3

>  <i_i_glide_posenum>  (265) 
28

>  <r_i_glide_eff_state_penalty>  (265) 
0

>  <ligand_id>  (265) 
77

>  <original_smiles>  (265) 
Cc1cccn2c(C=C3C(=O)Nc4cccnc43)cnc12

>  <smiles>  (265) 
[H]C(=C1C(=O)N([H])c2c1nc([H])c([H])c2[H])c1c([H])nc2c(C([H])([H])[H])c([H])c([H])c([H])n12

$$$$
77:1:0
     RDKit          3D

 33 36  0  0  1  0  0  0  0  0999 V2000
    6.7456   -3.6575    0.2708 C   0  0  0  0  0  0  0  0  0  0  0  0
    5.3108   -3.6097    0.7592 C   0  0  0  0  0  0  0  0  0  0  0  0
    4.6702   -2.4075    0.9595 C   0  0  0  0  0  0  0  0  0  0  0  0
    3.3310   -2.3977    1.4167 C   0  0  0  0  0  0  0  0  0  0  0  0
    2.6606   -3.5773    1.6739 C   0  0  0  0  0  0  0  0  0  0  0  0
    3.2809   -4.7781    1.4557 N   0  0  0  0  0  0  0  0  0  0  0  0
    2.8690   -6.1071    1.5846 C   0  0  0  0  0  0  0  0  0  0  0  0
    1.5627   -6.5005    2.0765 C   0  0  0  0  0  0  0  0  0  0  0  0
    1.0766   -7.6807    2.5421 C   0  0  0  0  0  0  0  0  0  0  0  0
   -0.3346   -7.8829    2.9123 C   0  0  0  0  0  0  0  0  0  0  0  0
   -1.2472   -7.0611    2.8636 O   0  0  0  0  0  0  0  0  0  0  0  0
   -0.4659   -9.1656    3.3143 N   0  0  0  0  0  0  0  0  0  0  0  0
    0.7574   -9.8430    3.2504 C   0  0  0  0  0  0  0  0  0  0  0  0
    1.0858  -11.1666    3.5917 C   0  0  0  0  0  0  0  0  0  0  0  0
    2.4401  -11.5276    3.4082 C   0  0  0  0  0  0  0  0  0  0  0  0
    3.3624  -10.5651    2.9376 C   0  0  0  0  0  0  0  0  0  0  0  0
    3.0285   -9.2834    2.6666 N   0  0  0  0  0  0  0  0  0  0  0  0
    1.7276   -8.9646    2.7983 C   0  0  0  0  0  0  0  0  0  0  0  0
    3.9505   -6.8582    1.1558 C   0  0  0  0  0  0  0  0  0  0  0  0
    5.0366   -6.0747    0.8461 N   0  0  0  0  0  0  0  0  0  0  0  0
    4.6272   -4.8181    0.9921 C   0  0  0  0  0  0  0  0  0  0  0  0
    7.1595   -2.6560    0.1678 H   0  0  0  0  0  0  0  0  0  0  0  0
    6.7942   -4.1529   -0.7011 H   0  0  0  0  0  0  0  0  0  0  0  0
    7.3682   -4.2188    0.9722 H   0  0  0  0  0  0  0  0  0  0  0  0
    5.1951   -1.4755    0.7625 H   0  0  0  0  0  0  0  0  0  0  0  0
    2.8048   -1.4601    1.5645 H   0  0  0  0  0  0  0  0  0  0  0  0
    1.6430   -3.5987    2.0509 H   0  0  0  0  0  0  0  0  0  0  0  0
    0.8304   -5.7067    2.0279 H   0  0  0  0  0  0  0  0  0  0  0  0
   -1.3049   -9.6027    3.6808 H   0  0  0  0  0  0  0  0  0  0  0  0
    0.3440  -11.8617    3.9685 H   0  0  0  0  0  0  0  0  0  0  0  0
    2.7880  -12.5331    3.6103 H   0  0  0  0  0  0  0  0  0  0  0  0
    4.3943  -10.8245    2.7561 H   0  0  0  0  0  0  0  0  0  0  0  0
    4.0814   -7.9177    1.0359 H   0  0  0  0  0  0  0  0  0  0  0  0
  1  2  1  0
  1 22  1  0
  1 23  1  0
  1 24  1  0
  2 21  1  0
  2  3  2  0
  3  4  1  0
  3 25  1  0
  4  5  2  0
  4 26  1  0
  5  6  1  0
  5 27  1  0
  6 21  1  0
  6  7  1  0
  7  8  1  0
  7 19  2  0
  8  9  2  3
  8 28  1  0
  9 18  1  0
  9 10  1  0
 10 11  2  0
 10 12  1  0
 12 13  1  0
 12 29  1  0
 13 18  2  0
 13 14  1  0
 14 15  2  0
 14 30  1  0
 15 16  1  0
 15 31  1  0
 16 17  2  0
 16 32  1  0
 17 18  1  0
 19 20  1  0
 19 33  1  0
 20 21  2  0
M  END
>  <i_m_ct_stereo_status>  (266) 
1

>  <s_m_source_file>  (266) 
/var/tmp/pbs.5076255.sched01/tmprcd7yfff/907v12ihtf.sdf

>  <i_m_source_file_index>  (266) 
24

>  <i_lp_mmshare_version>  (266) 
48012

>  <i_f3d_flags>  (266) 
0

>  <s_epik_input>  (266) 
W2NIXTFbY0hdW2NIXWMoW0NIM10pYyhuMTIpbltjSF1jMi9bQ0hdPUMoXEMoPU8pW05IXTMpYyhjMzQpbltjSF1bY0hdW2NIXTQ=

>  <s_epik_cmdline>  (266) 
J2VwaWtfcHl0aG9uJywgJy1waHQnLCAnMi4wJywgJy1waCcsICc3LjAnLCAnLXRuJywgJzgnLCAnLW1hJywgJzIwMCcsICctaW1hZScsICc8aW5maWxlLm1hZT4nLCAnLW9tYWUnLCAnPG91dGZpbGUubWFlPic=

>  <r_epik_Ionization_Penalty>  (266) 
0.0260425

>  <r_epik_Ionization_Penalty_Charging>  (266) 
0.0260351

>  <r_epik_Ionization_Penalty_Neutral>  (266) 
7.43417e-06

>  <r_epik_State_Penalty>  (266) 
0.0212295

>  <r_epik_Charging_Adjusted_Penalty>  (266) 
0.0472646

>  <i_epik_Tot_Q>  (266) 
0

>  <i_epik_Tot_abs_Q>  (266) 
0

>  <s_lp_Force_Field>  (266) 
OPLS3e

>  <r_lp_Energy>  (266) 
29.1354

>  <b_lp_Chiralities_Consistent>  (266) 
1

>  <s_lp_Variant>  (266) 
77:0-2

>  <s_i_glide_gridfile>  (266) 
pfpi4k_grid

>  <i_i_glide_lignum>  (266) 
24

>  <i_i_glide_rotatable_bonds>  (266) 
1

>  <r_i_docking_score>  (266) 
-4.18184

>  <r_i_glide_ligand_efficiency>  (266) 
-0.199135

>  <r_i_glide_ligand_efficiency_sa>  (266) 
-0.549398

>  <r_i_glide_ligand_efficiency_ln>  (266) 
-1.03395

>  <r_i_glide_gscore>  (266) 
-4.18184

>  <r_i_glide_lipo>  (266) 
-0.490491

>  <r_i_glide_hbond>  (266) 
-0.24041

>  <r_i_glide_metal>  (266) 
-0

>  <r_i_glide_rewards>  (266) 
-1.58616

>  <r_i_glide_evdw>  (266) 
-24.4721

>  <r_i_glide_ecoul>  (266) 
-5.13215

>  <r_i_glide_erotb>  (266) 
0.235652

>  <r_i_glide_esite>  (266) 
-0.106998

>  <r_i_glide_emodel>  (266) 
-37.0672

>  <r_i_glide_energy>  (266) 
-29.6042

>  <r_i_glide_einternal>  (266) 
0.628592

>  <r_i_glide_intrahb_reward>  (266) 
-0

>  <i_i_glide_confnum>  (266) 
3

>  <i_i_glide_posenum>  (266) 
14

>  <r_i_glide_eff_state_penalty>  (266) 
0

>  <ligand_id>  (266) 
77

>  <original_smiles>  (266) 
Cc1cccn2c(C=C3C(=O)Nc4cccnc43)cnc12

>  <smiles>  (266) 
[H]C(=C1C(=O)N([H])c2c1nc([H])c([H])c2[H])c1c([H])nc2c(C([H])([H])[H])c([H])c([H])c([H])n12

$$$$
77:1:1
     RDKit          3D

 33 36  0  0  1  0  0  0  0  0999 V2000
    5.9668   -3.3963   -0.0305 C   0  0  0  0  0  0  0  0  0  0  0  0
    6.6032   -4.6305    0.5964 C   0  0  0  0  0  0  0  0  0  0  0  0
    7.9450   -4.6683    0.8778 C   0  0  0  0  0  0  0  0  0  0  0  0
    8.5032   -5.8365    1.4573 C   0  0  0  0  0  0  0  0  0  0  0  0
    7.7143   -6.9373    1.7387 C   0  0  0  0  0  0  0  0  0  0  0  0
    6.3790   -6.9076    1.4552 N   0  0  0  0  0  0  0  0  0  0  0  0
    5.3360   -7.8373    1.5929 C   0  0  0  0  0  0  0  0  0  0  0  0
    5.5130   -9.1381    2.2084 C   0  0  0  0  0  0  0  0  0  0  0  0
    4.6252  -10.0327    2.7187 C   0  0  0  0  0  0  0  0  0  0  0  0
    5.0219  -11.3343    3.2866 C   0  0  0  0  0  0  0  0  0  0  0  0
    6.1602  -11.7881    3.3878 O   0  0  0  0  0  0  0  0  0  0  0  0
    3.8978  -11.9492    3.6937 N   0  0  0  0  0  0  0  0  0  0  0  0
    2.7562  -11.1635    3.4456 C   0  0  0  0  0  0  0  0  0  0  0  0
    1.3973  -11.4210    3.7092 C   0  0  0  0  0  0  0  0  0  0  0  0
    0.4999  -10.4053    3.3055 C   0  0  0  0  0  0  0  0  0  0  0  0
    1.0115   -9.2243    2.7186 C   0  0  0  0  0  0  0  0  0  0  0  0
    2.3236   -8.9890    2.5163 N   0  0  0  0  0  0  0  0  0  0  0  0
    3.1653   -9.9767    2.8604 C   0  0  0  0  0  0  0  0  0  0  0  0
    4.2240   -7.2143    1.0576 C   0  0  0  0  0  0  0  0  0  0  0  0
    4.4903   -5.9130    0.6668 N   0  0  0  0  0  0  0  0  0  0  0  0
    5.7878   -5.7444    0.8745 C   0  0  0  0  0  0  0  0  0  0  0  0
    6.7157   -2.6333   -0.2379 H   0  0  0  0  0  0  0  0  0  0  0  0
    5.2183   -2.9772    0.6439 H   0  0  0  0  0  0  0  0  0  0  0  0
    5.4675   -3.6583   -0.9671 H   0  0  0  0  0  0  0  0  0  0  0  0
    8.5697   -3.8029    0.6568 H   0  0  0  0  0  0  0  0  0  0  0  0
    9.5588   -5.8979    1.6993 H   0  0  0  0  0  0  0  0  0  0  0  0
    8.1212   -7.8513    2.1669 H   0  0  0  0  0  0  0  0  0  0  0  0
    6.5520   -9.4657    2.2438 H   0  0  0  0  0  0  0  0  0  0  0  0
    3.8525  -12.8563    4.1363 H   0  0  0  0  0  0  0  0  0  0  0  0
    1.0669  -12.3297    4.1907 H   0  0  0  0  0  0  0  0  0  0  0  0
   -0.5720  -10.5144    3.4632 H   0  0  0  0  0  0  0  0  0  0  0  0
    0.3436   -8.4477    2.3839 H   0  0  0  0  0  0  0  0  0  0  0  0
    3.2223   -7.5552    0.9057 H   0  0  0  0  0  0  0  0  0  0  0  0
  1  2  1  0
  1 22  1  0
  1 23  1  0
  1 24  1  0
  2 21  1  0
  2  3  2  0
  3  4  1  0
  3 25  1  0
  4  5  2  0
  4 26  1  0
  5  6  1  0
  5 27  1  0
  6 21  1  0
  6  7  1  0
  7  8  1  0
  7 19  2  0
  8  9  2  3
  8 28  1  0
  9 18  1  0
  9 10  1  0
 10 11  2  0
 10 12  1  0
 12 13  1  0
 12 29  1  0
 13 18  2  0
 13 14  1  0
 14 15  2  0
 14 30  1  0
 15 16  1  0
 15 31  1  0
 16 17  2  0
 16 32  1  0
 17 18  1  0
 19 20  1  0
 19 33  1  0
 20 21  2  0
M  END
>  <i_m_ct_stereo_status>  (267) 
1

>  <s_m_source_file>  (267) 
/var/tmp/pbs.5076255.sched01/tmprcd7yfff/907v12ihtf.sdf

>  <i_m_source_file_index>  (267) 
24

>  <i_lp_mmshare_version>  (267) 
48012

>  <i_f3d_flags>  (267) 
0

>  <s_epik_input>  (267) 
W2NIXTFbY0hdW2NIXWMoW0NIM10pYyhuMTIpbltjSF1jMi9bQ0hdPUMoXEMoPU8pW05IXTMpYyhjMzQpbltjSF1bY0hdW2NIXTQ=

>  <s_epik_cmdline>  (267) 
J2VwaWtfcHl0aG9uJywgJy1waHQnLCAnMi4wJywgJy1waCcsICc3LjAnLCAnLXRuJywgJzgnLCAnLW1hJywgJzIwMCcsICctaW1hZScsICc8aW5maWxlLm1hZT4nLCAnLW9tYWUnLCAnPG91dGZpbGUubWFlPic=

>  <r_epik_Ionization_Penalty>  (267) 
0.0260425

>  <r_epik_Ionization_Penalty_Charging>  (267) 
0.0260351

>  <r_epik_Ionization_Penalty_Neutral>  (267) 
7.43417e-06

>  <r_epik_State_Penalty>  (267) 
0.0212295

>  <r_epik_Charging_Adjusted_Penalty>  (267) 
0.0472646

>  <i_epik_Tot_Q>  (267) 
0

>  <i_epik_Tot_abs_Q>  (267) 
0

>  <s_lp_Force_Field>  (267) 
OPLS3e

>  <r_lp_Energy>  (267) 
29.1354

>  <b_lp_Chiralities_Consistent>  (267) 
1

>  <s_lp_Variant>  (267) 
77:0-2

>  <s_i_glide_gridfile>  (267) 
pfpi4k_grid

>  <i_i_glide_lignum>  (267) 
24

>  <i_i_glide_rotatable_bonds>  (267) 
1

>  <r_i_docking_score>  (267) 
-3.74689

>  <r_i_glide_ligand_efficiency>  (267) 
-0.178423

>  <r_i_glide_ligand_efficiency_sa>  (267) 
-0.492256

>  <r_i_glide_ligand_efficiency_ln>  (267) 
-0.926411

>  <r_i_glide_gscore>  (267) 
-3.74689

>  <r_i_glide_lipo>  (267) 
-0.696952

>  <r_i_glide_hbond>  (267) 
0

>  <r_i_glide_metal>  (267) 
-0

>  <r_i_glide_rewards>  (267) 
-1.7778

>  <r_i_glide_evdw>  (267) 
-25.1145

>  <r_i_glide_ecoul>  (267) 
-1.13653

>  <r_i_glide_erotb>  (267) 
0.235652

>  <r_i_glide_esite>  (267) 
-0.0815831

>  <r_i_glide_emodel>  (267) 
-32.9193

>  <r_i_glide_energy>  (267) 
-26.2511

>  <r_i_glide_einternal>  (267) 
0.30687

>  <r_i_glide_intrahb_reward>  (267) 
-0

>  <i_i_glide_confnum>  (267) 
3

>  <i_i_glide_posenum>  (267) 
33

>  <r_i_glide_eff_state_penalty>  (267) 
0

>  <ligand_id>  (267) 
77

>  <original_smiles>  (267) 
Cc1cccn2c(C=C3C(=O)Nc4cccnc43)cnc12

>  <smiles>  (267) 
[H]C(=C1C(=O)N([H])c2c1nc([H])c([H])c2[H])c1c([H])nc2c(C([H])([H])[H])c([H])c([H])c([H])n12

$$$$
77:1:2
     RDKit          3D

 33 36  0  0  1  0  0  0  0  0999 V2000
   -1.7860   -8.5652    2.4956 C   0  0  0  0  0  0  0  0  0  0  0  0
   -0.2963   -8.6418    2.7818 C   0  0  0  0  0  0  0  0  0  0  0  0
    0.2178   -9.5888    3.6230 C   0  0  0  0  0  0  0  0  0  0  0  0
    1.6123   -9.6430    3.8637 C   0  0  0  0  0  0  0  0  0  0  0  0
    2.4724   -8.7517    3.2474 C   0  0  0  0  0  0  0  0  0  0  0  0
    1.9657   -7.8083    2.3981 N   0  0  0  0  0  0  0  0  0  0  0  0
    2.5530   -6.7896    1.6261 C   0  0  0  0  0  0  0  0  0  0  0  0
    3.9823   -6.5253    1.6125 C   0  0  0  0  0  0  0  0  0  0  0  0
    4.7279   -5.5783    0.9705 C   0  0  0  0  0  0  0  0  0  0  0  0
    6.1929   -5.5101    1.0713 C   0  0  0  0  0  0  0  0  0  0  0  0
    6.9421   -6.2358    1.7142 O   0  0  0  0  0  0  0  0  0  0  0  0
    6.6030   -4.4825    0.2962 N   0  0  0  0  0  0  0  0  0  0  0  0
    5.5149   -3.8433   -0.3259 C   0  0  0  0  0  0  0  0  0  0  0  0
    5.4839   -2.7401   -1.2091 C   0  0  0  0  0  0  0  0  0  0  0  0
    4.1982   -2.3400   -1.6387 C   0  0  0  0  0  0  0  0  0  0  0  0
    3.0660   -3.0450   -1.1657 C   0  0  0  0  0  0  0  0  0  0  0  0
    3.1377   -4.0773   -0.3155 N   0  0  0  0  0  0  0  0  0  0  0  0
    4.3499   -4.4740    0.0787 C   0  0  0  0  0  0  0  0  0  0  0  0
    1.4990   -6.2084    0.9567 C   0  0  0  0  0  0  0  0  0  0  0  0
    0.2717   -6.7398    1.3132 N   0  0  0  0  0  0  0  0  0  0  0  0
    0.5682   -7.7241    2.1470 C   0  0  0  0  0  0  0  0  0  0  0  0
   -2.3323   -9.3036    3.0819 H   0  0  0  0  0  0  0  0  0  0  0  0
   -1.9625   -8.7650    1.4379 H   0  0  0  0  0  0  0  0  0  0  0  0
   -2.1732   -7.5706    2.7295 H   0  0  0  0  0  0  0  0  0  0  0  0
   -0.4583  -10.2900    4.1054 H   0  0  0  0  0  0  0  0  0  0  0  0
    2.0183  -10.3959    4.5395 H   0  0  0  0  0  0  0  0  0  0  0  0
    3.5445   -8.7677    3.4099 H   0  0  0  0  0  0  0  0  0  0  0  0
    4.5643   -7.2041    2.2219 H   0  0  0  0  0  0  0  0  0  0  0  0
    7.5626   -4.2035    0.1734 H   0  0  0  0  0  0  0  0  0  0  0  0
    6.3827   -2.2358   -1.5158 H   0  0  0  0  0  0  0  0  0  0  0  0
    4.0621   -1.4999   -2.3156 H   0  0  0  0  0  0  0  0  0  0  0  0
    2.0738   -2.7761   -1.4930 H   0  0  0  0  0  0  0  0  0  0  0  0
    1.4414   -5.4289    0.2375 H   0  0  0  0  0  0  0  0  0  0  0  0
  1  2  1  0
  1 22  1  0
  1 23  1  0
  1 24  1  0
  2 21  1  0
  2  3  2  0
  3  4  1  0
  3 25  1  0
  4  5  2  0
  4 26  1  0
  5  6  1  0
  5 27  1  0
  6 21  1  0
  6  7  1  0
  7  8  1  0
  7 19  2  0
  8  9  2  3
  8 28  1  0
  9 18  1  0
  9 10  1  0
 10 11  2  0
 10 12  1  0
 12 13  1  0
 12 29  1  0
 13 18  2  0
 13 14  1  0
 14 15  2  0
 14 30  1  0
 15 16  1  0
 15 31  1  0
 16 17  2  0
 16 32  1  0
 17 18  1  0
 19 20  1  0
 19 33  1  0
 20 21  2  0
M  END
>  <i_m_ct_stereo_status>  (268) 
1

>  <s_m_source_file>  (268) 
/var/tmp/pbs.5076255.sched01/tmprcd7yfff/907v12ihtf.sdf

>  <i_m_source_file_index>  (268) 
24

>  <i_lp_mmshare_version>  (268) 
48012

>  <i_f3d_flags>  (268) 
0

>  <s_epik_input>  (268) 
W2NIXTFbY0hdW2NIXWMoW0NIM10pYyhuMTIpbltjSF1jMi9bQ0hdPUMoXEMoPU8pW05IXTMpYyhjMzQpbltjSF1bY0hdW2NIXTQ=

>  <s_epik_cmdline>  (268) 
J2VwaWtfcHl0aG9uJywgJy1waHQnLCAnMi4wJywgJy1waCcsICc3LjAnLCAnLXRuJywgJzgnLCAnLW1hJywgJzIwMCcsICctaW1hZScsICc8aW5maWxlLm1hZT4nLCAnLW9tYWUnLCAnPG91dGZpbGUubWFlPic=

>  <r_epik_Ionization_Penalty>  (268) 
0.0260425

>  <r_epik_Ionization_Penalty_Charging>  (268) 
0.0260351

>  <r_epik_Ionization_Penalty_Neutral>  (268) 
7.43417e-06

>  <r_epik_State_Penalty>  (268) 
0.0212295

>  <r_epik_Charging_Adjusted_Penalty>  (268) 
0.0472646

>  <i_epik_Tot_Q>  (268) 
0

>  <i_epik_Tot_abs_Q>  (268) 
0

>  <s_lp_Force_Field>  (268) 
OPLS3e

>  <r_lp_Energy>  (268) 
29.1354

>  <b_lp_Chiralities_Consistent>  (268) 
1

>  <s_lp_Variant>  (268) 
77:0-2

>  <s_i_glide_gridfile>  (268) 
pfpi4k_grid

>  <i_i_glide_lignum>  (268) 
24

>  <i_i_glide_rotatable_bonds>  (268) 
1

>  <r_i_docking_score>  (268) 
-3.5282

>  <r_i_glide_ligand_efficiency>  (268) 
-0.168009

>  <r_i_glide_ligand_efficiency_sa>  (268) 
-0.463525

>  <r_i_glide_ligand_efficiency_ln>  (268) 
-0.872339

>  <r_i_glide_gscore>  (268) 
-3.5282

>  <r_i_glide_lipo>  (268) 
-0.343866

>  <r_i_glide_hbond>  (268) 
-0.0956007

>  <r_i_glide_metal>  (268) 
-0

>  <r_i_glide_rewards>  (268) 
-1.65314

>  <r_i_glide_evdw>  (268) 
-26.3739

>  <r_i_glide_ecoul>  (268) 
-1.91784

>  <r_i_glide_erotb>  (268) 
0.235652

>  <r_i_glide_esite>  (268) 
-0.0648685

>  <r_i_glide_emodel>  (268) 
-34.4014

>  <r_i_glide_energy>  (268) 
-28.2918

>  <r_i_glide_einternal>  (268) 
0.0106985

>  <r_i_glide_intrahb_reward>  (268) 
-0

>  <i_i_glide_confnum>  (268) 
1

>  <i_i_glide_posenum>  (268) 
7

>  <r_i_glide_eff_state_penalty>  (268) 
0

>  <ligand_id>  (268) 
77

>  <original_smiles>  (268) 
Cc1cccn2c(C=C3C(=O)Nc4cccnc43)cnc12

>  <smiles>  (268) 
[H]C(=C1C(=O)N([H])c2c1nc([H])c([H])c2[H])c1c([H])nc2c(C([H])([H])[H])c([H])c([H])c([H])n12

$$$$
77:2:0
     RDKit          3D

 34 37  0  0  1  0  0  0  0  0999 V2000
    0.7402  -10.9790    3.1837 C   0  0  0  0  0  0  0  0  0  0  0  0
    1.1918   -9.5367    3.1011 C   0  0  0  0  0  0  0  0  0  0  0  0
    0.4549   -8.5629    3.7462 C   0  0  0  0  0  0  0  0  0  0  0  0
    0.8853   -7.2088    3.7046 C   0  0  0  0  0  0  0  0  0  0  0  0
    2.0400   -6.8715    3.0293 C   0  0  0  0  0  0  0  0  0  0  0  0
    2.7294   -7.8588    2.3625 N   0  0  0  0  0  0  0  0  0  0  0  0
    3.8737   -7.6773    1.6009 C   0  0  0  0  0  0  0  0  0  0  0  0
    4.5445   -6.4380    1.2857 C   0  0  0  0  0  0  0  0  0  0  0  0
    4.0783   -5.2541    0.8187 C   0  0  0  0  0  0  0  0  0  0  0  0
    2.6991   -4.9672    0.4022 C   0  0  0  0  0  0  0  0  0  0  0  0
    1.7215   -5.7153    0.3572 O   0  0  0  0  0  0  0  0  0  0  0  0
    2.6560   -3.6775    0.0455 N   0  0  0  0  0  0  0  0  0  0  0  0
    3.9028   -3.0779    0.1354 C   0  0  0  0  0  0  0  0  0  0  0  0
    4.2796   -1.7681   -0.1820 C   0  0  0  0  0  0  0  0  0  0  0  0
    5.6458   -1.4670    0.0059 C   0  0  0  0  0  0  0  0  0  0  0  0
    6.5197   -2.4767    0.4872 C   0  0  0  0  0  0  0  0  0  0  0  0
    6.1260   -3.7423    0.7866 N   0  0  0  0  0  0  0  0  0  0  0  0
    4.8163   -4.0071    0.5943 C   0  0  0  0  0  0  0  0  0  0  0  0
    4.1721   -8.9657    1.2148 C   0  0  0  0  0  0  0  0  0  0  0  0
    3.2048   -9.8439    1.7116 N   0  0  0  0  0  0  0  0  0  0  0  0
    2.3257   -9.1236    2.4160 C   0  0  0  0  0  0  0  0  0  0  0  0
   -0.1385  -11.0522    3.8221 H   0  0  0  0  0  0  0  0  0  0  0  0
    1.5192  -11.6122    3.6165 H   0  0  0  0  0  0  0  0  0  0  0  0
    0.4510  -11.3480    2.2000 H   0  0  0  0  0  0  0  0  0  0  0  0
   -0.4432   -8.8355    4.2937 H   0  0  0  0  0  0  0  0  0  0  0  0
    0.3123   -6.4281    4.1926 H   0  0  0  0  0  0  0  0  0  0  0  0
    2.4371   -5.8663    2.9693 H   0  0  0  0  0  0  0  0  0  0  0  0
    5.6014   -6.4699    1.5083 H   0  0  0  0  0  0  0  0  0  0  0  0
    1.8428   -3.1850   -0.2904 H   0  0  0  0  0  0  0  0  0  0  0  0
    3.5645   -1.0482   -0.5441 H   0  0  0  0  0  0  0  0  0  0  0  0
    6.0030   -0.4742   -0.2032 H   0  0  0  0  0  0  0  0  0  0  0  0
    7.5641   -2.2513    0.6379 H   0  0  0  0  0  0  0  0  0  0  0  0
    4.9753   -9.3540    0.6055 H   0  0  0  0  0  0  0  0  0  0  0  0
    3.2035  -10.8504    1.5351 H   0  0  0  0  0  0  0  0  0  0  0  0
  1  2  1  0
  1 22  1  0
  1 23  1  0
  1 24  1  0
  2 21  1  0
  2  3  2  0
  3  4  1  0
  3 25  1  0
  4  5  2  0
  4 26  1  0
  5  6  1  0
  5 27  1  0
  6 21  1  0
  6  7  1  0
  7  8  1  0
  7 19  2  0
  8  9  2  3
  8 28  1  0
  9 18  1  0
  9 10  1  0
 10 11  2  0
 10 12  1  0
 12 13  1  0
 12 29  1  0
 13 18  2  0
 13 14  1  0
 14 15  2  0
 14 30  1  0
 15 16  1  0
 15 31  1  0
 16 17  2  0
 16 32  1  0
 17 18  1  0
 19 20  1  0
 19 33  1  0
 20 21  2  0
 20 34  1  0
M  CHG  1  20   1
M  END
>  <i_m_ct_stereo_status>  (269) 
1

>  <s_m_source_file>  (269) 
/var/tmp/pbs.5076255.sched01/tmprcd7yfff/907v12ihtf.sdf

>  <i_m_source_file_index>  (269) 
25

>  <i_lp_mmshare_version>  (269) 
48012

>  <i_f3d_flags>  (269) 
0

>  <s_epik_input>  (269) 
W2NIXTFbY0hdW2NIXWMoW0NIM10pYyhuMTIpbltjSF1jMi9bQ0hdPUMoXEMoPU8pW05IXTMpYyhjMzQpbltjSF1bY0hdW2NIXTQ=

>  <s_epik_cmdline>  (269) 
J2VwaWtfcHl0aG9uJywgJy1waHQnLCAnMi4wJywgJy1waCcsICc3LjAnLCAnLXRuJywgJzgnLCAnLW1hJywgJzIwMCcsICctaW1hZScsICc8aW5maWxlLm1hZT4nLCAnLW9tYWUnLCAnPG91dGZpbGUubWFlPic=

>  <r_epik_Ionization_Penalty>  (269) 
1.86443

>  <r_epik_Ionization_Penalty_Charging>  (269) 
0

>  <r_epik_Ionization_Penalty_Neutral>  (269) 
1.86443

>  <r_epik_State_Penalty>  (269) 
1.98293

>  <r_epik_Charging_Adjusted_Penalty>  (269) 
1.98293

>  <i_epik_Tot_Q>  (269) 
1

>  <i_epik_Tot_abs_Q>  (269) 
1

>  <s_lp_Force_Field>  (269) 
OPLS3e

>  <r_lp_Energy>  (269) 
33.4604

>  <b_lp_Chiralities_Consistent>  (269) 
1

>  <s_lp_Variant>  (269) 
77:0-3

>  <s_i_glide_gridfile>  (269) 
pfpi4k_grid

>  <i_i_glide_lignum>  (269) 
25

>  <i_i_glide_rotatable_bonds>  (269) 
1

>  <r_i_docking_score>  (269) 
-4.19523

>  <r_i_glide_ligand_efficiency>  (269) 
-0.199773

>  <r_i_glide_ligand_efficiency_sa>  (269) 
-0.551158

>  <r_i_glide_ligand_efficiency_ln>  (269) 
-1.03726

>  <r_i_glide_gscore>  (269) 
-4.19523

>  <r_i_glide_lipo>  (269) 
-0.397004

>  <r_i_glide_hbond>  (269) 
-0.254335

>  <r_i_glide_metal>  (269) 
-0

>  <r_i_glide_rewards>  (269) 
-1.54033

>  <r_i_glide_evdw>  (269) 
-23.167

>  <r_i_glide_ecoul>  (269) 
-6.16946

>  <r_i_glide_erotb>  (269) 
0.234168

>  <r_i_glide_esite>  (269) 
-0.153968

>  <r_i_glide_emodel>  (269) 
-37.0437

>  <r_i_glide_energy>  (269) 
-29.3364

>  <r_i_glide_einternal>  (269) 
3.97879

>  <r_i_glide_intrahb_reward>  (269) 
-0

>  <i_i_glide_confnum>  (269) 
2

>  <i_i_glide_posenum>  (269) 
26

>  <r_i_glide_eff_state_penalty>  (269) 
0

>  <ligand_id>  (269) 
77

>  <original_smiles>  (269) 
Cc1cccn2c(C=C3C(=O)Nc4cccnc43)cnc12

>  <smiles>  (269) 
[H]C(=C1C(=O)N([H])c2c1nc([H])c([H])c2[H])c1c([H])[n+]([H])c2c(C([H])([H])[H])c([H])c([H])c([H])n12

$$$$
77:2:1
     RDKit          3D

 34 37  0  0  1  0  0  0  0  0999 V2000
    0.6019  -10.2461    5.6287 C   0  0  0  0  0  0  0  0  0  0  0  0
    1.5288   -9.7868    4.5205 C   0  0  0  0  0  0  0  0  0  0  0  0
    1.8855  -10.6546    3.5128 C   0  0  0  0  0  0  0  0  0  0  0  0
    2.7558  -10.2233    2.4777 C   0  0  0  0  0  0  0  0  0  0  0  0
    3.2504   -8.9357    2.4687 C   0  0  0  0  0  0  0  0  0  0  0  0
    2.8732   -8.0890    3.4815 N   0  0  0  0  0  0  0  0  0  0  0  0
    3.2609   -6.7682    3.6208 C   0  0  0  0  0  0  0  0  0  0  0  0
    4.1733   -6.0434    2.7782 C   0  0  0  0  0  0  0  0  0  0  0  0
    3.9562   -5.4153    1.6009 C   0  0  0  0  0  0  0  0  0  0  0  0
    2.6705   -5.3468    0.8954 C   0  0  0  0  0  0  0  0  0  0  0  0
    1.5894   -5.8554    1.1995 O   0  0  0  0  0  0  0  0  0  0  0  0
    2.8734   -4.6065   -0.2086 N   0  0  0  0  0  0  0  0  0  0  0  0
    4.1978   -4.1827   -0.3136 C   0  0  0  0  0  0  0  0  0  0  0  0
    4.8267   -3.4189   -1.3100 C   0  0  0  0  0  0  0  0  0  0  0  0
    6.1974   -3.1509   -1.1048 C   0  0  0  0  0  0  0  0  0  0  0  0
    6.8353   -3.6564    0.0573 C   0  0  0  0  0  0  0  0  0  0  0  0
    6.2096   -4.4069    1.0015 N   0  0  0  0  0  0  0  0  0  0  0  0
    4.9002   -4.6528    0.7802 C   0  0  0  0  0  0  0  0  0  0  0  0
    2.6441   -6.4024    4.7968 C   0  0  0  0  0  0  0  0  0  0  0  0
    1.8912   -7.4788    5.2826 N   0  0  0  0  0  0  0  0  0  0  0  0
    2.0620   -8.5031    4.4486 C   0  0  0  0  0  0  0  0  0  0  0  0
    0.2722  -11.2712    5.4505 H   0  0  0  0  0  0  0  0  0  0  0  0
   -0.2955   -9.6264    5.6759 H   0  0  0  0  0  0  0  0  0  0  0  0
    1.1028  -10.2365    6.5982 H   0  0  0  0  0  0  0  0  0  0  0  0
    1.5030  -11.6751    3.5130 H   0  0  0  0  0  0  0  0  0  0  0  0
    3.0301  -10.9121    1.6848 H   0  0  0  0  0  0  0  0  0  0  0  0
    3.9193   -8.5345    1.7159 H   0  0  0  0  0  0  0  0  0  0  0  0
    5.1771   -5.9866    3.1699 H   0  0  0  0  0  0  0  0  0  0  0  0
    2.1956   -4.4316   -0.9365 H   0  0  0  0  0  0  0  0  0  0  0  0
    4.2950   -3.0609   -2.1788 H   0  0  0  0  0  0  0  0  0  0  0  0
    6.7547   -2.5807   -1.8316 H   0  0  0  0  0  0  0  0  0  0  0  0
    7.8846   -3.4600    0.2198 H   0  0  0  0  0  0  0  0  0  0  0  0
    2.6674   -5.4636    5.3323 H   0  0  0  0  0  0  0  0  0  0  0  0
    1.3286   -7.4935    6.1214 H   0  0  0  0  0  0  0  0  0  0  0  0
  1  2  1  0
  1 22  1  0
  1 23  1  0
  1 24  1  0
  2 21  1  0
  2  3  2  0
  3  4  1  0
  3 25  1  0
  4  5  2  0
  4 26  1  0
  5  6  1  0
  5 27  1  0
  6 21  1  0
  6  7  1  0
  7  8  1  0
  7 19  2  0
  8  9  2  3
  8 28  1  0
  9 18  1  0
  9 10  1  0
 10 11  2  0
 10 12  1  0
 12 13  1  0
 12 29  1  0
 13 18  2  0
 13 14  1  0
 14 15  2  0
 14 30  1  0
 15 16  1  0
 15 31  1  0
 16 17  2  0
 16 32  1  0
 17 18  1  0
 19 20  1  0
 19 33  1  0
 20 21  2  0
 20 34  1  0
M  CHG  1  20   1
M  END
>  <i_m_ct_stereo_status>  (270) 
1

>  <s_m_source_file>  (270) 
/var/tmp/pbs.5076255.sched01/tmprcd7yfff/907v12ihtf.sdf

>  <i_m_source_file_index>  (270) 
25

>  <i_lp_mmshare_version>  (270) 
48012

>  <i_f3d_flags>  (270) 
0

>  <s_epik_input>  (270) 
W2NIXTFbY0hdW2NIXWMoW0NIM10pYyhuMTIpbltjSF1jMi9bQ0hdPUMoXEMoPU8pW05IXTMpYyhjMzQpbltjSF1bY0hdW2NIXTQ=

>  <s_epik_cmdline>  (270) 
J2VwaWtfcHl0aG9uJywgJy1waHQnLCAnMi4wJywgJy1waCcsICc3LjAnLCAnLXRuJywgJzgnLCAnLW1hJywgJzIwMCcsICctaW1hZScsICc8aW5maWxlLm1hZT4nLCAnLW9tYWUnLCAnPG91dGZpbGUubWFlPic=

>  <r_epik_Ionization_Penalty>  (270) 
1.86443

>  <r_epik_Ionization_Penalty_Charging>  (270) 
0

>  <r_epik_Ionization_Penalty_Neutral>  (270) 
1.86443

>  <r_epik_State_Penalty>  (270) 
1.98293

>  <r_epik_Charging_Adjusted_Penalty>  (270) 
1.98293

>  <i_epik_Tot_Q>  (270) 
1

>  <i_epik_Tot_abs_Q>  (270) 
1

>  <s_lp_Force_Field>  (270) 
OPLS3e

>  <r_lp_Energy>  (270) 
33.4604

>  <b_lp_Chiralities_Consistent>  (270) 
1

>  <s_lp_Variant>  (270) 
77:0-3

>  <s_i_glide_gridfile>  (270) 
pfpi4k_grid

>  <i_i_glide_lignum>  (270) 
25

>  <i_i_glide_rotatable_bonds>  (270) 
1

>  <r_i_docking_score>  (270) 
-3.82034

>  <r_i_glide_ligand_efficiency>  (270) 
-0.181921

>  <r_i_glide_ligand_efficiency_sa>  (270) 
-0.501906

>  <r_i_glide_ligand_efficiency_ln>  (270) 
-0.944571

>  <r_i_glide_gscore>  (270) 
-3.82034

>  <r_i_glide_lipo>  (270) 
-0.376221

>  <r_i_glide_hbond>  (270) 
-0.112417

>  <r_i_glide_metal>  (270) 
-0

>  <r_i_glide_rewards>  (270) 
-1.5184

>  <r_i_glide_evdw>  (270) 
-19.4884

>  <r_i_glide_ecoul>  (270) 
-6.55442

>  <r_i_glide_erotb>  (270) 
0.234168

>  <r_i_glide_esite>  (270) 
-0.0898797

>  <r_i_glide_emodel>  (270) 
-32.0338

>  <r_i_glide_energy>  (270) 
-26.0428

>  <r_i_glide_einternal>  (270) 
5.98232

>  <r_i_glide_intrahb_reward>  (270) 
-0

>  <i_i_glide_confnum>  (270) 
6

>  <i_i_glide_posenum>  (270) 
38

>  <r_i_glide_eff_state_penalty>  (270) 
0

>  <ligand_id>  (270) 
77

>  <original_smiles>  (270) 
Cc1cccn2c(C=C3C(=O)Nc4cccnc43)cnc12

>  <smiles>  (270) 
[H]C(=C1C(=O)N([H])c2c1nc([H])c([H])c2[H])c1c([H])[n+]([H])c2c(C([H])([H])[H])c([H])c([H])c([H])n12

$$$$
77:2:2
     RDKit          3D

 34 37  0  0  1  0  0  0  0  0999 V2000
    2.1639    3.7699    2.7025 C   0  0  0  0  0  0  0  0  0  0  0  0
    1.4779    2.4297    2.8839 C   0  0  0  0  0  0  0  0  0  0  0  0
    0.1545    2.3892    3.2646 C   0  0  0  0  0  0  0  0  0  0  0  0
   -0.5036    1.1429    3.4146 C   0  0  0  0  0  0  0  0  0  0  0  0
    0.1815   -0.0270    3.1697 C   0  0  0  0  0  0  0  0  0  0  0  0
    1.5042    0.0360    2.8090 N   0  0  0  0  0  0  0  0  0  0  0  0
    2.3370   -1.0474    2.5619 C   0  0  0  0  0  0  0  0  0  0  0  0
    2.0181   -2.4471    2.6769 C   0  0  0  0  0  0  0  0  0  0  0  0
    1.4311   -3.1605    3.6635 C   0  0  0  0  0  0  0  0  0  0  0  0
    1.0412   -2.6523    4.9864 C   0  0  0  0  0  0  0  0  0  0  0  0
    1.1978   -1.5336    5.4701 O   0  0  0  0  0  0  0  0  0  0  0  0
    0.4605   -3.6604    5.6464 N   0  0  0  0  0  0  0  0  0  0  0  0
    0.4772   -4.8349    4.9036 C   0  0  0  0  0  0  0  0  0  0  0  0
    0.0006   -6.1084    5.2321 C   0  0  0  0  0  0  0  0  0  0  0  0
    0.1639   -7.0967    4.2394 C   0  0  0  0  0  0  0  0  0  0  0  0
    0.7813   -6.7549    3.0088 C   0  0  0  0  0  0  0  0  0  0  0  0
    1.2195   -5.5040    2.7047 N   0  0  0  0  0  0  0  0  0  0  0  0
    1.0702   -4.5821    3.6804 C   0  0  0  0  0  0  0  0  0  0  0  0
    3.5173   -0.4323    2.2154 C   0  0  0  0  0  0  0  0  0  0  0  0
    3.3565    0.9538    2.2929 N   0  0  0  0  0  0  0  0  0  0  0  0
    2.1050    1.2077    2.6642 C   0  0  0  0  0  0  0  0  0  0  0  0
    1.4512    4.5760    2.8797 H   0  0  0  0  0  0  0  0  0  0  0  0
    2.5235    3.8972    1.6814 H   0  0  0  0  0  0  0  0  0  0  0  0
    2.9823    3.8967    3.4116 H   0  0  0  0  0  0  0  0  0  0  0  0
   -0.3905    3.3106    3.4321 H   0  0  0  0  0  0  0  0  0  0  0  0
   -1.5429    1.0956    3.7249 H   0  0  0  0  0  0  0  0  0  0  0  0
   -0.2479   -1.0121    3.2569 H   0  0  0  0  0  0  0  0  0  0  0  0
    2.2685   -2.9995    1.7778 H   0  0  0  0  0  0  0  0  0  0  0  0
    0.1006   -3.5933    6.5834 H   0  0  0  0  0  0  0  0  0  0  0  0
   -0.4616   -6.3122    6.1855 H   0  0  0  0  0  0  0  0  0  0  0  0
   -0.1720   -8.1058    4.4209 H   0  0  0  0  0  0  0  0  0  0  0  0
    0.9148   -7.5096    2.2475 H   0  0  0  0  0  0  0  0  0  0  0  0
    4.4755   -0.8576    1.9375 H   0  0  0  0  0  0  0  0  0  0  0  0
    4.0567    1.6729    2.1056 H   0  0  0  0  0  0  0  0  0  0  0  0
  1  2  1  0
  1 22  1  0
  1 23  1  0
  1 24  1  0
  2 21  1  0
  2  3  2  0
  3  4  1  0
  3 25  1  0
  4  5  2  0
  4 26  1  0
  5  6  1  0
  5 27  1  0
  6 21  1  0
  6  7  1  0
  7  8  1  0
  7 19  2  0
  8  9  2  3
  8 28  1  0
  9 18  1  0
  9 10  1  0
 10 11  2  0
 10 12  1  0
 12 13  1  0
 12 29  1  0
 13 18  2  0
 13 14  1  0
 14 15  2  0
 14 30  1  0
 15 16  1  0
 15 31  1  0
 16 17  2  0
 16 32  1  0
 17 18  1  0
 19 20  1  0
 19 33  1  0
 20 21  2  0
 20 34  1  0
M  CHG  1  20   1
M  END
>  <i_m_ct_stereo_status>  (271) 
1

>  <s_m_source_file>  (271) 
/var/tmp/pbs.5076255.sched01/tmprcd7yfff/907v12ihtf.sdf

>  <i_m_source_file_index>  (271) 
25

>  <i_lp_mmshare_version>  (271) 
48012

>  <i_f3d_flags>  (271) 
0

>  <s_epik_input>  (271) 
W2NIXTFbY0hdW2NIXWMoW0NIM10pYyhuMTIpbltjSF1jMi9bQ0hdPUMoXEMoPU8pW05IXTMpYyhjMzQpbltjSF1bY0hdW2NIXTQ=

>  <s_epik_cmdline>  (271) 
J2VwaWtfcHl0aG9uJywgJy1waHQnLCAnMi4wJywgJy1waCcsICc3LjAnLCAnLXRuJywgJzgnLCAnLW1hJywgJzIwMCcsICctaW1hZScsICc8aW5maWxlLm1hZT4nLCAnLW9tYWUnLCAnPG91dGZpbGUubWFlPic=

>  <r_epik_Ionization_Penalty>  (271) 
1.86443

>  <r_epik_Ionization_Penalty_Charging>  (271) 
0

>  <r_epik_Ionization_Penalty_Neutral>  (271) 
1.86443

>  <r_epik_State_Penalty>  (271) 
1.98293

>  <r_epik_Charging_Adjusted_Penalty>  (271) 
1.98293

>  <i_epik_Tot_Q>  (271) 
1

>  <i_epik_Tot_abs_Q>  (271) 
1

>  <s_lp_Force_Field>  (271) 
OPLS3e

>  <r_lp_Energy>  (271) 
33.4604

>  <b_lp_Chiralities_Consistent>  (271) 
1

>  <s_lp_Variant>  (271) 
77:0-3

>  <s_i_glide_gridfile>  (271) 
pfpi4k_grid

>  <i_i_glide_lignum>  (271) 
25

>  <i_i_glide_rotatable_bonds>  (271) 
1

>  <r_i_docking_score>  (271) 
-3.50459

>  <r_i_glide_ligand_efficiency>  (271) 
-0.166885

>  <r_i_glide_ligand_efficiency_sa>  (271) 
-0.460424

>  <r_i_glide_ligand_efficiency_ln>  (271) 
-0.866503

>  <r_i_glide_gscore>  (271) 
-3.50459

>  <r_i_glide_lipo>  (271) 
-0.0363535

>  <r_i_glide_hbond>  (271) 
0

>  <r_i_glide_metal>  (271) 
-0

>  <r_i_glide_rewards>  (271) 
-1.54502

>  <r_i_glide_evdw>  (271) 
-18.5505

>  <r_i_glide_ecoul>  (271) 
-8.01271

>  <r_i_glide_erotb>  (271) 
0.234168

>  <r_i_glide_esite>  (271) 
-0.0279566

>  <r_i_glide_emodel>  (271) 
-32.6233

>  <r_i_glide_energy>  (271) 
-26.5632

>  <r_i_glide_einternal>  (271) 
4.05421

>  <r_i_glide_intrahb_reward>  (271) 
-0

>  <i_i_glide_confnum>  (271) 
5

>  <i_i_glide_posenum>  (271) 
4

>  <r_i_glide_eff_state_penalty>  (271) 
0

>  <ligand_id>  (271) 
77

>  <original_smiles>  (271) 
Cc1cccn2c(C=C3C(=O)Nc4cccnc43)cnc12

>  <smiles>  (271) 
[H]C(=C1C(=O)N([H])c2c1nc([H])c([H])c2[H])c1c([H])[n+]([H])c2c(C([H])([H])[H])c([H])c([H])c([H])n12

$$$$
77:3:0
     RDKit          3D

 34 37  0  0  1  0  0  0  0  0999 V2000
    7.9994   -6.2342    1.0862 C   0  0  0  0  0  0  0  0  0  0  0  0
    6.7378   -6.7132    1.7650 C   0  0  0  0  0  0  0  0  0  0  0  0
    6.8278   -7.4884    2.9038 C   0  0  0  0  0  0  0  0  0  0  0  0
    5.6561   -7.8575    3.6012 C   0  0  0  0  0  0  0  0  0  0  0  0
    4.4386   -7.3998    3.1884 C   0  0  0  0  0  0  0  0  0  0  0  0
    4.3488   -6.7181    1.9878 N   0  0  0  0  0  0  0  0  0  0  0  0
    3.1731   -6.3498    1.3365 C   0  0  0  0  0  0  0  0  0  0  0  0
    1.8278   -6.6949    1.6929 C   0  0  0  0  0  0  0  0  0  0  0  0
    1.2633   -7.8217    2.1994 C   0  0  0  0  0  0  0  0  0  0  0  0
   -0.1363   -7.9004    2.6223 C   0  0  0  0  0  0  0  0  0  0  0  0
   -1.0023   -7.0315    2.4806 O   0  0  0  0  0  0  0  0  0  0  0  0
   -0.3114   -9.1025    3.2131 N   0  0  0  0  0  0  0  0  0  0  0  0
    0.8740   -9.8481    3.1817 C   0  0  0  0  0  0  0  0  0  0  0  0
    1.1527  -11.1140    3.7383 C   0  0  0  0  0  0  0  0  0  0  0  0
    2.4948  -11.5536    3.6203 C   0  0  0  0  0  0  0  0  0  0  0  0
    3.4180  -10.7449    2.9323 C   0  0  0  0  0  0  0  0  0  0  0  0
    3.0912   -9.5983    2.3676 N   0  0  0  0  0  0  0  0  0  0  0  0
    1.8418   -9.1231    2.5391 C   0  0  0  0  0  0  0  0  0  0  0  0
    3.6593   -5.6190    0.2649 C   0  0  0  0  0  0  0  0  0  0  0  0
    5.0677   -5.6558    0.2648 N   0  0  0  0  0  0  0  0  0  0  0  0
    5.4419   -6.3661    1.3487 C   0  0  0  0  0  0  0  0  0  0  0  0
    8.8667   -6.6463    1.6060 H   0  0  0  0  0  0  0  0  0  0  0  0
    8.0605   -5.1463    1.1328 H   0  0  0  0  0  0  0  0  0  0  0  0
    8.0237   -6.5777    0.0598 H   0  0  0  0  0  0  0  0  0  0  0  0
    7.7938   -7.8113    3.2826 H   0  0  0  0  0  0  0  0  0  0  0  0
    5.7029   -8.5191    4.4549 H   0  0  0  0  0  0  0  0  0  0  0  0
    3.4916   -7.5979    3.7212 H   0  0  0  0  0  0  0  0  0  0  0  0
    1.1559   -5.8650    1.5418 H   0  0  0  0  0  0  0  0  0  0  0  0
   -1.2058   -9.4543    3.5532 H   0  0  0  0  0  0  0  0  0  0  0  0
    0.3578  -11.7449    4.1951 H   0  0  0  0  0  0  0  0  0  0  0  0
    2.7845  -12.4948    4.0513 H   0  0  0  0  0  0  0  0  0  0  0  0
    4.4375  -11.0115    2.9360 H   0  0  0  0  0  0  0  0  0  0  0  0
    3.1400   -5.0939   -0.5354 H   0  0  0  0  0  0  0  0  0  0  0  0
    5.6663   -5.1934   -0.4125 H   0  0  0  0  0  0  0  0  0  0  0  0
  1  2  1  0
  1 22  1  0
  1 23  1  0
  1 24  1  0
  2 21  1  0
  2  3  2  0
  3  4  1  0
  3 25  1  0
  4  5  2  0
  4 26  1  0
  5  6  1  0
  5 27  1  0
  6 21  1  0
  6  7  1  0
  7  8  1  0
  7 19  2  0
  8  9  2  3
  8 28  1  0
  9 18  1  0
  9 10  1  0
 10 11  2  0
 10 12  1  0
 12 13  1  0
 12 29  1  0
 13 18  2  0
 13 14  1  0
 14 15  2  0
 14 30  1  0
 15 16  1  0
 15 31  1  0
 16 17  2  0
 16 32  1  0
 17 18  1  0
 19 20  1  0
 19 33  1  0
 20 21  2  0
 20 34  1  0
M  CHG  1  20   1
M  END
>  <i_m_ct_stereo_status>  (272) 
1

>  <s_m_source_file>  (272) 
/var/tmp/pbs.5076255.sched01/tmprcd7yfff/907v12ihtf.sdf

>  <i_m_source_file_index>  (272) 
26

>  <i_lp_mmshare_version>  (272) 
48012

>  <i_f3d_flags>  (272) 
0

>  <s_epik_input>  (272) 
W2NIXTFbY0hdW2NIXWMoW0NIM10pYyhuMTIpbltjSF1jMi9bQ0hdPUMoXEMoPU8pW05IXTMpYyhjMzQpbltjSF1bY0hdW2NIXTQ=

>  <s_epik_cmdline>  (272) 
J2VwaWtfcHl0aG9uJywgJy1waHQnLCAnMi4wJywgJy1waCcsICc3LjAnLCAnLXRuJywgJzgnLCAnLW1hJywgJzIwMCcsICctaW1hZScsICc8aW5maWxlLm1hZT4nLCAnLW9tYWUnLCAnPG91dGZpbGUubWFlPic=

>  <r_epik_Ionization_Penalty>  (272) 
1.86443

>  <r_epik_Ionization_Penalty_Charging>  (272) 
0

>  <r_epik_Ionization_Penalty_Neutral>  (272) 
1.86443

>  <r_epik_State_Penalty>  (272) 
1.98293

>  <r_epik_Charging_Adjusted_Penalty>  (272) 
1.98293

>  <i_epik_Tot_Q>  (272) 
1

>  <i_epik_Tot_abs_Q>  (272) 
1

>  <s_lp_Force_Field>  (272) 
OPLS3e

>  <r_lp_Energy>  (272) 
32.5916

>  <b_lp_Chiralities_Consistent>  (272) 
1

>  <s_lp_Variant>  (272) 
77:0-4

>  <s_i_glide_gridfile>  (272) 
pfpi4k_grid

>  <i_i_glide_lignum>  (272) 
26

>  <i_i_glide_rotatable_bonds>  (272) 
1

>  <r_i_docking_score>  (272) 
-4.23318

>  <r_i_glide_ligand_efficiency>  (272) 
-0.20158

>  <r_i_glide_ligand_efficiency_sa>  (272) 
-0.556143

>  <r_i_glide_ligand_efficiency_ln>  (272) 
-1.04664

>  <r_i_glide_gscore>  (272) 
-4.23318

>  <r_i_glide_lipo>  (272) 
-0.381651

>  <r_i_glide_hbond>  (272) 
-0.16

>  <r_i_glide_metal>  (272) 
-0

>  <r_i_glide_rewards>  (272) 
-1.68062

>  <r_i_glide_evdw>  (272) 
-22.9045

>  <r_i_glide_ecoul>  (272) 
-6.69865

>  <r_i_glide_erotb>  (272) 
0.234168

>  <r_i_glide_esite>  (272) 
-0.0950468

>  <r_i_glide_emodel>  (272) 
-35.3393

>  <r_i_glide_energy>  (272) 
-29.6032

>  <r_i_glide_einternal>  (272) 
3.95157

>  <r_i_glide_intrahb_reward>  (272) 
-0

>  <i_i_glide_confnum>  (272) 
4

>  <i_i_glide_posenum>  (272) 
14

>  <r_i_glide_eff_state_penalty>  (272) 
0

>  <ligand_id>  (272) 
77

>  <original_smiles>  (272) 
Cc1cccn2c(C=C3C(=O)Nc4cccnc43)cnc12

>  <smiles>  (272) 
[H]C(=C1C(=O)N([H])c2c1nc([H])c([H])c2[H])c1c([H])[n+]([H])c2c(C([H])([H])[H])c([H])c([H])c([H])n12

$$$$
77:3:1
     RDKit          3D

 34 37  0  0  1  0  0  0  0  0999 V2000
    6.2803   -3.5319   -0.0252 C   0  0  0  0  0  0  0  0  0  0  0  0
    6.7463   -4.7895    0.6815 C   0  0  0  0  0  0  0  0  0  0  0  0
    8.0425   -4.9076    1.1317 C   0  0  0  0  0  0  0  0  0  0  0  0
    8.4647   -6.0970    1.7859 C   0  0  0  0  0  0  0  0  0  0  0  0
    7.5845   -7.1455    1.9794 C   0  0  0  0  0  0  0  0  0  0  0  0
    6.2958   -7.0009    1.5193 N   0  0  0  0  0  0  0  0  0  0  0  0
    5.2762   -7.9418    1.6084 C   0  0  0  0  0  0  0  0  0  0  0  0
    5.3492   -9.2294    2.2636 C   0  0  0  0  0  0  0  0  0  0  0  0
    4.3740  -10.0518    2.7288 C   0  0  0  0  0  0  0  0  0  0  0  0
    4.6686  -11.3464    3.3504 C   0  0  0  0  0  0  0  0  0  0  0  0
    5.7714  -11.8649    3.5300 O   0  0  0  0  0  0  0  0  0  0  0  0
    3.4929  -11.8909    3.7174 N   0  0  0  0  0  0  0  0  0  0  0  0
    2.4212  -11.0641    3.3891 C   0  0  0  0  0  0  0  0  0  0  0  0
    1.0415  -11.2458    3.5853 C   0  0  0  0  0  0  0  0  0  0  0  0
    0.2129  -10.2048    3.1151 C   0  0  0  0  0  0  0  0  0  0  0  0
    0.8023   -9.0717    2.5101 C   0  0  0  0  0  0  0  0  0  0  0  0
    2.1352   -8.9095    2.3556 N   0  0  0  0  0  0  0  0  0  0  0  0
    2.9144   -9.9209    2.7856 C   0  0  0  0  0  0  0  0  0  0  0  0
    4.2384   -7.2804    0.9831 C   0  0  0  0  0  0  0  0  0  0  0  0
    4.6433   -6.0171    0.5662 N   0  0  0  0  0  0  0  0  0  0  0  0
    5.9176   -5.8792    0.9063 C   0  0  0  0  0  0  0  0  0  0  0  0
    7.1141   -2.8388   -0.1313 H   0  0  0  0  0  0  0  0  0  0  0  0
    5.4989   -3.0282    0.5506 H   0  0  0  0  0  0  0  0  0  0  0  0
    5.9044   -3.7584   -1.0275 H   0  0  0  0  0  0  0  0  0  0  0  0
    8.7364   -4.0871    0.9803 H   0  0  0  0  0  0  0  0  0  0  0  0
    9.4882   -6.2125    2.1333 H   0  0  0  0  0  0  0  0  0  0  0  0
    7.8475   -8.0784    2.4625 H   0  0  0  0  0  0  0  0  0  0  0  0
    6.3507   -9.6142    2.3531 H   0  0  0  0  0  0  0  0  0  0  0  0
    3.3781  -12.7806    4.1784 H   0  0  0  0  0  0  0  0  0  0  0  0
    0.6392  -12.1288    4.0631 H   0  0  0  0  0  0  0  0  0  0  0  0
   -0.8601  -10.2622    3.2176 H   0  0  0  0  0  0  0  0  0  0  0  0
    0.1851   -8.2746    2.1265 H   0  0  0  0  0  0  0  0  0  0  0  0
    3.2265   -7.5793    0.7820 H   0  0  0  0  0  0  0  0  0  0  0  0
    4.0639   -5.3371    0.0908 H   0  0  0  0  0  0  0  0  0  0  0  0
  1  2  1  0
  1 22  1  0
  1 23  1  0
  1 24  1  0
  2 21  1  0
  2  3  2  0
  3  4  1  0
  3 25  1  0
  4  5  2  0
  4 26  1  0
  5  6  1  0
  5 27  1  0
  6 21  1  0
  6  7  1  0
  7  8  1  0
  7 19  2  0
  8  9  2  3
  8 28  1  0
  9 18  1  0
  9 10  1  0
 10 11  2  0
 10 12  1  0
 12 13  1  0
 12 29  1  0
 13 18  2  0
 13 14  1  0
 14 15  2  0
 14 30  1  0
 15 16  1  0
 15 31  1  0
 16 17  2  0
 16 32  1  0
 17 18  1  0
 19 20  1  0
 19 33  1  0
 20 21  2  0
 20 34  1  0
M  CHG  1  20   1
M  END
>  <i_m_ct_stereo_status>  (273) 
1

>  <s_m_source_file>  (273) 
/var/tmp/pbs.5076255.sched01/tmprcd7yfff/907v12ihtf.sdf

>  <i_m_source_file_index>  (273) 
26

>  <i_lp_mmshare_version>  (273) 
48012

>  <i_f3d_flags>  (273) 
0

>  <s_epik_input>  (273) 
W2NIXTFbY0hdW2NIXWMoW0NIM10pYyhuMTIpbltjSF1jMi9bQ0hdPUMoXEMoPU8pW05IXTMpYyhjMzQpbltjSF1bY0hdW2NIXTQ=

>  <s_epik_cmdline>  (273) 
J2VwaWtfcHl0aG9uJywgJy1waHQnLCAnMi4wJywgJy1waCcsICc3LjAnLCAnLXRuJywgJzgnLCAnLW1hJywgJzIwMCcsICctaW1hZScsICc8aW5maWxlLm1hZT4nLCAnLW9tYWUnLCAnPG91dGZpbGUubWFlPic=

>  <r_epik_Ionization_Penalty>  (273) 
1.86443

>  <r_epik_Ionization_Penalty_Charging>  (273) 
0

>  <r_epik_Ionization_Penalty_Neutral>  (273) 
1.86443

>  <r_epik_State_Penalty>  (273) 
1.98293

>  <r_epik_Charging_Adjusted_Penalty>  (273) 
1.98293

>  <i_epik_Tot_Q>  (273) 
1

>  <i_epik_Tot_abs_Q>  (273) 
1

>  <s_lp_Force_Field>  (273) 
OPLS3e

>  <r_lp_Energy>  (273) 
32.5916

>  <b_lp_Chiralities_Consistent>  (273) 
1

>  <s_lp_Variant>  (273) 
77:0-4

>  <s_i_glide_gridfile>  (273) 
pfpi4k_grid

>  <i_i_glide_lignum>  (273) 
26

>  <i_i_glide_rotatable_bonds>  (273) 
1

>  <r_i_docking_score>  (273) 
-4.0814

>  <r_i_glide_ligand_efficiency>  (273) 
-0.194352

>  <r_i_glide_ligand_efficiency_sa>  (273) 
-0.536204

>  <r_i_glide_ligand_efficiency_ln>  (273) 
-1.00912

>  <r_i_glide_gscore>  (273) 
-4.0814

>  <r_i_glide_lipo>  (273) 
-0.779243

>  <r_i_glide_hbond>  (273) 
0

>  <r_i_glide_metal>  (273) 
-0

>  <r_i_glide_rewards>  (273) 
-1.75814

>  <r_i_glide_evdw>  (273) 
-23.7706

>  <r_i_glide_ecoul>  (273) 
-3.42751

>  <r_i_glide_erotb>  (273) 
0.234168

>  <r_i_glide_esite>  (273) 
-0.075524

>  <r_i_glide_emodel>  (273) 
-35.6628

>  <r_i_glide_energy>  (273) 
-27.1982

>  <r_i_glide_einternal>  (273) 
0.578165

>  <r_i_glide_intrahb_reward>  (273) 
-0

>  <i_i_glide_confnum>  (273) 
1

>  <i_i_glide_posenum>  (273) 
1

>  <r_i_glide_eff_state_penalty>  (273) 
0

>  <ligand_id>  (273) 
77

>  <original_smiles>  (273) 
Cc1cccn2c(C=C3C(=O)Nc4cccnc43)cnc12

>  <smiles>  (273) 
[H]C(=C1C(=O)N([H])c2c1nc([H])c([H])c2[H])c1c([H])[n+]([H])c2c(C([H])([H])[H])c([H])c([H])c([H])n12

$$$$
77:3:2
     RDKit          3D

 34 37  0  0  1  0  0  0  0  0999 V2000
    6.9992   -3.6847    0.0185 C   0  0  0  0  0  0  0  0  0  0  0  0
    7.0182   -4.9972    0.7769 C   0  0  0  0  0  0  0  0  0  0  0  0
    8.1724   -5.4702    1.3473 C   0  0  0  0  0  0  0  0  0  0  0  0
    8.1671   -6.7119    2.0489 C   0  0  0  0  0  0  0  0  0  0  0  0
    7.0044   -7.4484    2.1640 C   0  0  0  0  0  0  0  0  0  0  0  0
    5.8596   -6.9486    1.5830 N   0  0  0  0  0  0  0  0  0  0  0  0
    4.6012   -7.5421    1.5769 C   0  0  0  0  0  0  0  0  0  0  0  0
    4.2253   -8.7734    2.2445 C   0  0  0  0  0  0  0  0  0  0  0  0
    3.0098   -9.2880    2.5661 C   0  0  0  0  0  0  0  0  0  0  0  0
    2.8533  -10.5826    3.2418 C   0  0  0  0  0  0  0  0  0  0  0  0
    3.7405  -11.3476    3.6184 O   0  0  0  0  0  0  0  0  0  0  0  0
    1.5314  -10.7888    3.4141 N   0  0  0  0  0  0  0  0  0  0  0  0
    0.7804   -9.7201    2.9155 C   0  0  0  0  0  0  0  0  0  0  0  0
   -0.6107   -9.5205    2.8822 C   0  0  0  0  0  0  0  0  0  0  0  0
   -1.0610   -8.3201    2.2878 C   0  0  0  0  0  0  0  0  0  0  0  0
   -0.1000   -7.4256    1.7707 C   0  0  0  0  0  0  0  0  0  0  0  0
    1.2348   -7.6213    1.8306 N   0  0  0  0  0  0  0  0  0  0  0  0
    1.6458   -8.7750    2.3941 C   0  0  0  0  0  0  0  0  0  0  0  0
    3.8737   -6.6284    0.8374 C   0  0  0  0  0  0  0  0  0  0  0  0
    4.6712   -5.5555    0.4653 N   0  0  0  0  0  0  0  0  0  0  0  0
    5.8885   -5.7874    0.9280 C   0  0  0  0  0  0  0  0  0  0  0  0
    8.0068   -3.2666   -0.0190 H   0  0  0  0  0  0  0  0  0  0  0  0
    6.3534   -2.9534    0.5127 H   0  0  0  0  0  0  0  0  0  0  0  0
    6.6635   -3.8258   -1.0141 H   0  0  0  0  0  0  0  0  0  0  0  0
    9.0869   -4.8991    1.2603 H   0  0  0  0  0  0  0  0  0  0  0  0
    9.0891   -7.0897    2.4895 H   0  0  0  0  0  0  0  0  0  0  0  0
    6.9272   -8.3996    2.6833 H   0  0  0  0  0  0  0  0  0  0  0  0
    5.0587   -9.4050    2.4979 H   0  0  0  0  0  0  0  0  0  0  0  0
    1.1300  -11.5894    3.8805 H   0  0  0  0  0  0  0  0  0  0  0  0
   -1.3038  -10.2505    3.2752 H   0  0  0  0  0  0  0  0  0  0  0  0
   -2.1171   -8.1119    2.2072 H   0  0  0  0  0  0  0  0  0  0  0  0
   -0.4157   -6.5233    1.2731 H   0  0  0  0  0  0  0  0  0  0  0  0
    2.8483   -6.6104    0.5075 H   0  0  0  0  0  0  0  0  0  0  0  0
    4.3610   -4.7535   -0.0686 H   0  0  0  0  0  0  0  0  0  0  0  0
  1  2  1  0
  1 22  1  0
  1 23  1  0
  1 24  1  0
  2 21  1  0
  2  3  2  0
  3  4  1  0
  3 25  1  0
  4  5  2  0
  4 26  1  0
  5  6  1  0
  5 27  1  0
  6 21  1  0
  6  7  1  0
  7  8  1  0
  7 19  2  0
  8  9  2  3
  8 28  1  0
  9 18  1  0
  9 10  1  0
 10 11  2  0
 10 12  1  0
 12 13  1  0
 12 29  1  0
 13 18  2  0
 13 14  1  0
 14 15  2  0
 14 30  1  0
 15 16  1  0
 15 31  1  0
 16 17  2  0
 16 32  1  0
 17 18  1  0
 19 20  1  0
 19 33  1  0
 20 21  2  0
 20 34  1  0
M  CHG  1  20   1
M  END
>  <i_m_ct_stereo_status>  (274) 
1

>  <s_m_source_file>  (274) 
/var/tmp/pbs.5076255.sched01/tmprcd7yfff/907v12ihtf.sdf

>  <i_m_source_file_index>  (274) 
26

>  <i_lp_mmshare_version>  (274) 
48012

>  <i_f3d_flags>  (274) 
0

>  <s_epik_input>  (274) 
W2NIXTFbY0hdW2NIXWMoW0NIM10pYyhuMTIpbltjSF1jMi9bQ0hdPUMoXEMoPU8pW05IXTMpYyhjMzQpbltjSF1bY0hdW2NIXTQ=

>  <s_epik_cmdline>  (274) 
J2VwaWtfcHl0aG9uJywgJy1waHQnLCAnMi4wJywgJy1waCcsICc3LjAnLCAnLXRuJywgJzgnLCAnLW1hJywgJzIwMCcsICctaW1hZScsICc8aW5maWxlLm1hZT4nLCAnLW9tYWUnLCAnPG91dGZpbGUubWFlPic=

>  <r_epik_Ionization_Penalty>  (274) 
1.86443

>  <r_epik_Ionization_Penalty_Charging>  (274) 
0

>  <r_epik_Ionization_Penalty_Neutral>  (274) 
1.86443

>  <r_epik_State_Penalty>  (274) 
1.98293

>  <r_epik_Charging_Adjusted_Penalty>  (274) 
1.98293

>  <i_epik_Tot_Q>  (274) 
1

>  <i_epik_Tot_abs_Q>  (274) 
1

>  <s_lp_Force_Field>  (274) 
OPLS3e

>  <r_lp_Energy>  (274) 
32.5916

>  <b_lp_Chiralities_Consistent>  (274) 
1

>  <s_lp_Variant>  (274) 
77:0-4

>  <s_i_glide_gridfile>  (274) 
pfpi4k_grid

>  <i_i_glide_lignum>  (274) 
26

>  <i_i_glide_rotatable_bonds>  (274) 
1

>  <r_i_docking_score>  (274) 
-3.55508

>  <r_i_glide_ligand_efficiency>  (274) 
-0.16929

>  <r_i_glide_ligand_efficiency_sa>  (274) 
-0.467057

>  <r_i_glide_ligand_efficiency_ln>  (274) 
-0.878987

>  <r_i_glide_gscore>  (274) 
-3.55508

>  <r_i_glide_lipo>  (274) 
-0.536606

>  <r_i_glide_hbond>  (274) 
0

>  <r_i_glide_metal>  (274) 
-0

>  <r_i_glide_rewards>  (274) 
-1.75142

>  <r_i_glide_evdw>  (274) 
-25.8713

>  <r_i_glide_ecoul>  (274) 
-1.28443

>  <r_i_glide_erotb>  (274) 
0.234168

>  <r_i_glide_esite>  (274) 
-0.0150009

>  <r_i_glide_emodel>  (274) 
-34.5198

>  <r_i_glide_energy>  (274) 
-27.1557

>  <r_i_glide_einternal>  (274) 
0.329656

>  <r_i_glide_intrahb_reward>  (274) 
-0

>  <i_i_glide_confnum>  (274) 
4

>  <i_i_glide_posenum>  (274) 
31

>  <r_i_glide_eff_state_penalty>  (274) 
0

>  <ligand_id>  (274) 
77

>  <original_smiles>  (274) 
Cc1cccn2c(C=C3C(=O)Nc4cccnc43)cnc12

>  <smiles>  (274) 
[H]C(=C1C(=O)N([H])c2c1nc([H])c([H])c2[H])c1c([H])[n+]([H])c2c(C([H])([H])[H])c([H])c([H])c([H])n12

$$$$
78:0:0
     RDKit          3D

 51 54  0  0  1  0  0  0  0  0999 V2000
    4.4264   -2.5148   -3.3794 C   0  0  0  0  0  0  0  0  0  0  0  0
    4.2075   -3.0521   -1.9450 C   0  0  2  0  0  0  0  0  0  0  0  0
    3.5334   -2.0050   -1.0727 C   0  0  0  0  0  0  0  0  0  0  0  0
    3.2177   -2.5595    0.3215 C   0  0  0  0  0  0  0  0  0  0  0  0
    4.4516   -3.1557    1.0299 C   0  0  1  0  0  0  0  0  0  0  0  0
    4.2863   -3.4224    2.5474 C   0  0  1  0  0  0  0  0  0  0  0  0
    3.6499   -2.2671    3.3215 C   0  0  0  0  0  0  0  0  0  0  0  0
    3.5443   -4.5820    2.9076 O   0  0  0  0  0  0  0  0  0  0  0  0
    3.7623   -5.7563    2.1571 C   0  0  2  0  0  0  0  0  0  0  0  0
    2.7211   -6.7084    2.8256 C   0  0  0  0  0  0  0  0  0  0  0  0
    5.1338   -6.4396    2.3259 C   0  0  0  0  0  0  0  0  0  0  0  0
    6.4020   -5.6237    2.0441 C   0  0  0  0  0  0  0  0  0  0  0  0
    6.4958   -4.8544    0.7153 C   0  0  2  0  0  0  0  0  0  0  0  0
    7.6685   -3.8506    0.7053 C   0  0  1  0  0  0  0  0  0  0  0  0
    8.9711   -4.4363    1.2294 C   0  0  0  0  0  0  0  0  0  0  0  0
    7.9230   -3.2719   -0.6921 C   0  0  0  0  0  0  0  0  0  0  0  0
    6.6520   -2.6589   -1.2796 C   0  0  0  0  0  0  0  0  0  0  0  0
    5.4590   -3.6431   -1.2599 C   0  0  1  0  0  0  0  0  0  0  0  0
    5.1682   -4.2387    0.1771 C   0  0  2  0  0  0  0  0  0  0  0  0
    4.4401   -5.4161   -0.1622 O   0  0  0  0  0  0  0  0  0  0  0  0
    3.2589   -5.6326    0.8428 O   0  0  0  0  0  0  0  0  0  0  0  0
    4.9991   -1.5903   -3.3859 H   0  0  0  0  0  0  0  0  0  0  0  0
    3.4635   -2.2837   -3.8636 H   0  0  0  0  0  0  0  0  0  0  0  0
    4.9349   -3.2477   -3.9993 H   0  0  0  0  0  0  0  0  0  0  0  0
    3.4778   -3.8573   -2.0541 H   0  0  0  0  0  0  0  0  0  0  0  0
    4.1727   -1.1152   -0.9820 H   0  0  0  0  0  0  0  0  0  0  0  0
    2.6162   -1.6717   -1.5499 H   0  0  0  0  0  0  0  0  0  0  0  0
    2.7840   -1.7336    0.8965 H   0  0  0  0  0  0  0  0  0  0  0  0
    2.4369   -3.3160    0.2234 H   0  0  0  0  0  0  0  0  0  0  0  0
    5.1531   -2.3093    1.0469 H   0  0  0  0  0  0  0  0  0  0  0  0
    5.2719   -3.4961    2.9824 H   0  0  0  0  0  0  0  0  0  0  0  0
    4.1297   -1.3210    3.0852 H   0  0  0  0  0  0  0  0  0  0  0  0
    3.7445   -2.4282    4.3904 H   0  0  0  0  0  0  0  0  0  0  0  0
    2.5839   -2.1740    3.1036 H   0  0  0  0  0  0  0  0  0  0  0  0
    1.7012   -6.3355    2.7104 H   0  0  0  0  0  0  0  0  0  0  0  0
    2.9136   -6.7889    3.8980 H   0  0  0  0  0  0  0  0  0  0  0  0
    2.7626   -7.7196    2.4146 H   0  0  0  0  0  0  0  0  0  0  0  0
    5.2163   -6.7395    3.3774 H   0  0  0  0  0  0  0  0  0  0  0  0
    5.1620   -7.3744    1.7681 H   0  0  0  0  0  0  0  0  0  0  0  0
    6.6242   -4.9774    2.8983 H   0  0  0  0  0  0  0  0  0  0  0  0
    7.2224   -6.3331    2.0799 H   0  0  0  0  0  0  0  0  0  0  0  0
    6.7647   -5.6465    0.0147 H   0  0  0  0  0  0  0  0  0  0  0  0
    7.4025   -3.0100    1.3533 H   0  0  0  0  0  0  0  0  0  0  0  0
    9.2828   -5.3375    0.7017 H   0  0  0  0  0  0  0  0  0  0  0  0
    8.9086   -4.6973    2.2979 H   0  0  0  0  0  0  0  0  0  0  0  0
    9.7743   -3.7001    1.1729 H   0  0  0  0  0  0  0  0  0  0  0  0
    8.7157   -2.5408   -0.6667 H   0  0  0  0  0  0  0  0  0  0  0  0
    8.2763   -4.0612   -1.3546 H   0  0  0  0  0  0  0  0  0  0  0  0
    6.4190   -1.7560   -0.6980 H   0  0  0  0  0  0  0  0  0  0  0  0
    6.8782   -2.3432   -2.2877 H   0  0  0  0  0  0  0  0  0  0  0  0
    5.7579   -4.4617   -1.9176 H   0  0  0  0  0  0  0  0  0  0  0  0
  1  2  1  0
  1 22  1  0
  1 23  1  0
  1 24  1  0
  2 18  1  0
  2  3  1  0
  2 25  1  6
  3  4  1  0
  3 26  1  0
  3 27  1  0
  4  5  1  0
  4 28  1  0
  4 29  1  0
  5 19  1  0
  5  6  1  0
  5 30  1  1
  6  7  1  0
  6  8  1  0
  6 31  1  1
  7 32  1  0
  7 33  1  0
  7 34  1  0
  8  9  1  0
  9 21  1  0
  9 10  1  1
  9 11  1  0
 10 35  1  0
 10 36  1  0
 10 37  1  0
 11 12  1  0
 11 38  1  0
 11 39  1  0
 12 13  1  0
 12 40  1  0
 12 41  1  0
 13 19  1  0
 13 14  1  0
 13 42  1  6
 14 15  1  0
 14 16  1  0
 14 43  1  1
 15 44  1  0
 15 45  1  0
 15 46  1  0
 16 17  1  0
 16 47  1  0
 16 48  1  0
 17 18  1  0
 17 49  1  0
 17 50  1  0
 18 19  1  0
 18 51  1  6
 19 20  1  6
 20 21  1  0
M  END
>  <i_m_ct_stereo_status>  (275) 
1

>  <s_m_source_file>  (275) 
/var/tmp/pbs.5076255.sched01/tmprcd7yfff/907v12ihtf.sdf

>  <i_m_source_file_index>  (275) 
27

>  <i_lp_mmshare_version>  (275) 
48012

>  <i_f3d_flags>  (275) 
0

>  <s_epik_input>  (275) 
W0NAQF0xMjNbQ0BIXTRbQ0gyXVtDSDJdW0NAQEhdKFtDSDNdKVtDQEhdMltDSDJdW0NIMl1bQ0BIXShbQ0gzXSlbQ0BIXTFbQ0gyXVtDSDJdW0NAXShbQ0gzXSkoT08zKU9bQ0BASF00W0NIM10=

>  <s_epik_cmdline>  (275) 
J2VwaWtfcHl0aG9uJywgJy1waHQnLCAnMi4wJywgJy1waCcsICc3LjAnLCAnLXRuJywgJzgnLCAnLW1hJywgJzIwMCcsICctaW1hZScsICc8aW5maWxlLm1hZT4nLCAnLW9tYWUnLCAnPG91dGZpbGUubWFlPic=

>  <r_lp_tautomer_probability>  (275) 
1

>  <r_epik_Ionization_Penalty>  (275) 
2.03652e-13

>  <r_epik_Ionization_Penalty_Charging>  (275) 
0

>  <r_epik_Ionization_Penalty_Neutral>  (275) 
2.03652e-13

>  <r_epik_State_Penalty>  (275) 
-0

>  <r_epik_Charging_Adjusted_Penalty>  (275) 
0

>  <i_epik_Tot_Q>  (275) 
0

>  <i_epik_Tot_abs_Q>  (275) 
0

>  <s_lp_Force_Field>  (275) 
OPLS3e

>  <r_lp_Energy>  (275) 
36.601

>  <b_lp_Chiralities_Consistent>  (275) 
1

>  <s_lp_Variant>  (275) 
78:0-1

>  <s_i_glide_gridfile>  (275) 
pfpi4k_grid

>  <i_i_glide_lignum>  (275) 
27

>  <i_i_glide_rotatable_bonds>  (275) 
0

>  <r_i_docking_score>  (275) 
-3.21804

>  <r_i_glide_ligand_efficiency>  (275) 
-0.15324

>  <r_i_glide_ligand_efficiency_sa>  (275) 
-0.422777

>  <r_i_glide_ligand_efficiency_ln>  (275) 
-0.795653

>  <r_i_glide_gscore>  (275) 
-3.21804

>  <r_i_glide_lipo>  (275) 
-0.743156

>  <r_i_glide_hbond>  (275) 
0

>  <r_i_glide_metal>  (275) 
-0

>  <r_i_glide_rewards>  (275) 
-1.4123

>  <r_i_glide_evdw>  (275) 
-23.0328

>  <r_i_glide_ecoul>  (275) 
0.593733

>  <r_i_glide_erotb>  (275) 
0

>  <r_i_glide_esite>  (275) 
0

>  <r_i_glide_emodel>  (275) 
-26.6298

>  <r_i_glide_energy>  (275) 
-22.439

>  <r_i_glide_einternal>  (275) 
0

>  <r_i_glide_intrahb_reward>  (275) 
-0

>  <i_i_glide_confnum>  (275) 
2

>  <i_i_glide_posenum>  (275) 
24

>  <r_i_glide_eff_state_penalty>  (275) 
0

>  <ligand_id>  (275) 
78

>  <original_smiles>  (275) 
CC1CCC2C(C)OC3(C)CCC4C(C)CCC1C42OO3

>  <smiles>  (275) 
[H]C([H])([H])C1([H])OC2(C([H])([H])[H])OOC34C1([H])C([H])([H])C([H])([H])C([H])(C([H])([H])[H])C3([H])C([H])([H])C([H])([H])C([H])(C([H])([H])[H])C4([H])C([H])([H])C2([H])[H]

$$$$
78:0:1
     RDKit          3D

 51 54  0  0  1  0  0  0  0  0999 V2000
    5.3812   -2.8952   -2.0052 C   0  0  0  0  0  0  0  0  0  0  0  0
    4.4458   -3.5117   -0.9417 C   0  0  2  0  0  0  0  0  0  0  0  0
    3.8194   -2.4195   -0.0679 C   0  0  0  0  0  0  0  0  0  0  0  0
    2.8240   -3.0151    0.9341 C   0  0  0  0  0  0  0  0  0  0  0  0
    3.4371   -4.1203    1.8222 C   0  0  1  0  0  0  0  0  0  0  0  0
    2.5971   -4.5456    3.0559 C   0  0  1  0  0  0  0  0  0  0  0  0
    2.0718   -3.3579    3.8689 C   0  0  0  0  0  0  0  0  0  0  0  0
    1.4798   -5.3799    2.8193 O   0  0  0  0  0  0  0  0  0  0  0  0
    1.6151   -6.4329    1.8905 C   0  0  2  0  0  0  0  0  0  0  0  0
    0.1853   -7.0054    1.8926 C   0  0  0  0  0  0  0  0  0  0  0  0
    2.5537   -7.5922    2.2995 C   0  0  0  0  0  0  0  0  0  0  0  0
    4.0016   -7.2765    2.6763 C   0  0  0  0  0  0  0  0  0  0  0  0
    4.8467   -6.4148    1.7091 C   0  0  2  0  0  0  0  0  0  0  0  0
    6.1611   -5.9315    2.3769 C   0  0  1  0  0  0  0  0  0  0  0  0
    6.9202   -7.0375    3.1362 C   0  0  0  0  0  0  0  0  0  0  0  0
    7.0938   -5.3146    1.3311 C   0  0  0  0  0  0  0  0  0  0  0  0
    6.4130   -4.1716    0.5812 C   0  0  0  0  0  0  0  0  0  0  0  0
    5.0814   -4.6343   -0.0689 C   0  0  1  0  0  0  0  0  0  0  0  0
    4.0917   -5.2603    0.9709 C   0  0  2  0  0  0  0  0  0  0  0  0
    3.2279   -5.9773    0.0943 O   0  0  0  0  0  0  0  0  0  0  0  0
    1.7318   -5.9277    0.5665 O   0  0  0  0  0  0  0  0  0  0  0  0
    6.1708   -2.2894   -1.5608 H   0  0  0  0  0  0  0  0  0  0  0  0
    4.8233   -2.2423   -2.6775 H   0  0  0  0  0  0  0  0  0  0  0  0
    5.8523   -3.6660   -2.6162 H   0  0  0  0  0  0  0  0  0  0  0  0
    3.6287   -3.9726   -1.4962 H   0  0  0  0  0  0  0  0  0  0  0  0
    4.5917   -1.8635    0.4644 H   0  0  0  0  0  0  0  0  0  0  0  0
    3.2933   -1.6944   -0.6924 H   0  0  0  0  0  0  0  0  0  0  0  0
    2.4488   -2.1925    1.5419 H   0  0  0  0  0  0  0  0  0  0  0  0
    1.9770   -3.4039    0.3779 H   0  0  0  0  0  0  0  0  0  0  0  0
    4.2808   -3.6288    2.2925 H   0  0  0  0  0  0  0  0  0  0  0  0
    3.2576   -5.0449    3.7543 H   0  0  0  0  0  0  0  0  0  0  0  0
    2.8618   -2.6383    4.0759 H   0  0  0  0  0  0  0  0  0  0  0  0
    1.6794   -3.7000    4.8256 H   0  0  0  0  0  0  0  0  0  0  0  0
    1.2628   -2.8415    3.3556 H   0  0  0  0  0  0  0  0  0  0  0  0
   -0.5614   -6.2823    1.5420 H   0  0  0  0  0  0  0  0  0  0  0  0
   -0.1202   -7.3124    2.8959 H   0  0  0  0  0  0  0  0  0  0  0  0
    0.0887   -7.8926    1.2576 H   0  0  0  0  0  0  0  0  0  0  0  0
    2.1173   -8.0552    3.1839 H   0  0  0  0  0  0  0  0  0  0  0  0
    2.5240   -8.3646    1.5339 H   0  0  0  0  0  0  0  0  0  0  0  0
    4.0501   -6.8989    3.6969 H   0  0  0  0  0  0  0  0  0  0  0  0
    4.4977   -8.2445    2.7720 H   0  0  0  0  0  0  0  0  0  0  0  0
    5.1524   -7.1255    0.9296 H   0  0  0  0  0  0  0  0  0  0  0  0
    5.9171   -5.1624    3.1122 H   0  0  0  0  0  0  0  0  0  0  0  0
    7.1403   -7.8937    2.4951 H   0  0  0  0  0  0  0  0  0  0  0  0
    6.3573   -7.3995    3.9975 H   0  0  0  0  0  0  0  0  0  0  0  0
    7.8685   -6.6627    3.5230 H   0  0  0  0  0  0  0  0  0  0  0  0
    8.0012   -4.9466    1.8067 H   0  0  0  0  0  0  0  0  0  0  0  0
    7.4033   -6.0768    0.6110 H   0  0  0  0  0  0  0  0  0  0  0  0
    6.2530   -3.3429    1.2771 H   0  0  0  0  0  0  0  0  0  0  0  0
    7.1161   -3.8106   -0.1710 H   0  0  0  0  0  0  0  0  0  0  0  0
    5.3661   -5.4199   -0.7879 H   0  0  0  0  0  0  0  0  0  0  0  0
  1  2  1  0
  1 22  1  0
  1 23  1  0
  1 24  1  0
  2 18  1  0
  2  3  1  0
  2 25  1  6
  3  4  1  0
  3 26  1  0
  3 27  1  0
  4  5  1  0
  4 28  1  0
  4 29  1  0
  5 19  1  0
  5  6  1  0
  5 30  1  1
  6  7  1  0
  6  8  1  0
  6 31  1  1
  7 32  1  0
  7 33  1  0
  7 34  1  0
  8  9  1  0
  9 21  1  0
  9 10  1  6
  9 11  1  0
 10 35  1  0
 10 36  1  0
 10 37  1  0
 11 12  1  0
 11 38  1  0
 11 39  1  0
 12 13  1  0
 12 40  1  0
 12 41  1  0
 13 19  1  0
 13 14  1  0
 13 42  1  6
 14 15  1  0
 14 16  1  0
 14 43  1  1
 15 44  1  0
 15 45  1  0
 15 46  1  0
 16 17  1  0
 16 47  1  0
 16 48  1  0
 17 18  1  0
 17 49  1  0
 17 50  1  0
 18 19  1  0
 18 51  1  6
 19 20  1  6
 20 21  1  0
M  END
>  <i_m_ct_stereo_status>  (276) 
1

>  <s_m_source_file>  (276) 
/var/tmp/pbs.5076255.sched01/tmprcd7yfff/907v12ihtf.sdf

>  <i_m_source_file_index>  (276) 
27

>  <i_lp_mmshare_version>  (276) 
48012

>  <i_f3d_flags>  (276) 
0

>  <s_epik_input>  (276) 
W0NAQF0xMjNbQ0BIXTRbQ0gyXVtDSDJdW0NAQEhdKFtDSDNdKVtDQEhdMltDSDJdW0NIMl1bQ0BIXShbQ0gzXSlbQ0BIXTFbQ0gyXVtDSDJdW0NAXShbQ0gzXSkoT08zKU9bQ0BASF00W0NIM10=

>  <s_epik_cmdline>  (276) 
J2VwaWtfcHl0aG9uJywgJy1waHQnLCAnMi4wJywgJy1waCcsICc3LjAnLCAnLXRuJywgJzgnLCAnLW1hJywgJzIwMCcsICctaW1hZScsICc8aW5maWxlLm1hZT4nLCAnLW9tYWUnLCAnPG91dGZpbGUubWFlPic=

>  <r_lp_tautomer_probability>  (276) 
1

>  <r_epik_Ionization_Penalty>  (276) 
2.03652e-13

>  <r_epik_Ionization_Penalty_Charging>  (276) 
0

>  <r_epik_Ionization_Penalty_Neutral>  (276) 
2.03652e-13

>  <r_epik_State_Penalty>  (276) 
-0

>  <r_epik_Charging_Adjusted_Penalty>  (276) 
0

>  <i_epik_Tot_Q>  (276) 
0

>  <i_epik_Tot_abs_Q>  (276) 
0

>  <s_lp_Force_Field>  (276) 
OPLS3e

>  <r_lp_Energy>  (276) 
36.601

>  <b_lp_Chiralities_Consistent>  (276) 
1

>  <s_lp_Variant>  (276) 
78:0-1

>  <s_i_glide_gridfile>  (276) 
pfpi4k_grid

>  <i_i_glide_lignum>  (276) 
27

>  <i_i_glide_rotatable_bonds>  (276) 
0

>  <r_i_docking_score>  (276) 
-3.1007

>  <r_i_glide_ligand_efficiency>  (276) 
-0.147652

>  <r_i_glide_ligand_efficiency_sa>  (276) 
-0.407361

>  <r_i_glide_ligand_efficiency_ln>  (276) 
-0.766641

>  <r_i_glide_gscore>  (276) 
-3.1007

>  <r_i_glide_lipo>  (276) 
-0.466004

>  <r_i_glide_hbond>  (276) 
-0.0791054

>  <r_i_glide_metal>  (276) 
-0

>  <r_i_glide_rewards>  (276) 
-1.40162

>  <r_i_glide_evdw>  (276) 
-22.5333

>  <r_i_glide_ecoul>  (276) 
0.0844243

>  <r_i_glide_erotb>  (276) 
0

>  <r_i_glide_esite>  (276) 
-0.0399625

>  <r_i_glide_emodel>  (276) 
-26.185

>  <r_i_glide_energy>  (276) 
-22.4489

>  <r_i_glide_einternal>  (276) 
0

>  <r_i_glide_intrahb_reward>  (276) 
-0

>  <i_i_glide_confnum>  (276) 
1

>  <i_i_glide_posenum>  (276) 
35

>  <r_i_glide_eff_state_penalty>  (276) 
0

>  <ligand_id>  (276) 
78

>  <original_smiles>  (276) 
CC1CCC2C(C)OC3(C)CCC4C(C)CCC1C42OO3

>  <smiles>  (276) 
[H]C([H])([H])C1([H])OC2(C([H])([H])[H])OOC34C1([H])C([H])([H])C([H])([H])C([H])(C([H])([H])[H])C3([H])C([H])([H])C([H])([H])C([H])(C([H])([H])[H])C4([H])C([H])([H])C2([H])[H]

$$$$
78:0:2
     RDKit          3D

 51 54  0  0  1  0  0  0  0  0999 V2000
    4.6316   -1.0787   -1.9387 C   0  0  0  0  0  0  0  0  0  0  0  0
    4.1766   -2.1032   -0.8787 C   0  0  2  0  0  0  0  0  0  0  0  0
    3.6692   -1.3954    0.3808 C   0  0  0  0  0  0  0  0  0  0  0  0
    3.1179   -2.4036    1.4001 C   0  0  0  0  0  0  0  0  0  0  0  0
    4.1504   -3.4894    1.7733 C   0  0  1  0  0  0  0  0  0  0  0  0
    3.7918   -4.3433    3.0231 C   0  0  1  0  0  0  0  0  0  0  0  0
    3.3396   -3.5119    4.2284 C   0  0  0  0  0  0  0  0  0  0  0  0
    2.7965   -5.3464    2.8595 O   0  0  0  0  0  0  0  0  0  0  0  0
    2.8368   -6.1304    1.6839 C   0  0  2  0  0  0  0  0  0  0  0  0
    1.5666   -7.0079    1.8829 C   0  0  0  0  0  0  0  0  0  0  0  0
    4.0243   -7.0976    1.5272 C   0  0  0  0  0  0  0  0  0  0  0  0
    5.4518   -6.5335    1.6031 C   0  0  0  0  0  0  0  0  0  0  0  0
    5.8206   -5.3207    0.7177 C   0  0  2  0  0  0  0  0  0  0  0  0
    7.1726   -4.6964    1.1417 C   0  0  1  0  0  0  0  0  0  0  0  0
    8.2944   -5.7282    1.3839 C   0  0  0  0  0  0  0  0  0  0  0  0
    7.6467   -3.6607    0.1224 C   0  0  0  0  0  0  0  0  0  0  0  0
    6.5891   -2.5808   -0.1116 C   0  0  0  0  0  0  0  0  0  0  0  0
    5.2272   -3.1983   -0.5286 C   0  0  1  0  0  0  0  0  0  0  0  0
    4.6977   -4.2476    0.5235 C   0  0  2  0  0  0  0  0  0  0  0  0
    3.7527   -4.9566   -0.2740 O   0  0  0  0  0  0  0  0  0  0  0  0
    2.4815   -5.3645    0.5479 O   0  0  0  0  0  0  0  0  0  0  0  0
    5.4025   -0.4069   -1.5566 H   0  0  0  0  0  0  0  0  0  0  0  0
    3.8007   -0.4475   -2.2601 H   0  0  0  0  0  0  0  0  0  0  0  0
    5.0206   -1.5734   -2.8261 H   0  0  0  0  0  0  0  0  0  0  0  0
    3.3152   -2.6155   -1.3154 H   0  0  0  0  0  0  0  0  0  0  0  0
    4.4653   -0.8011    0.8379 H   0  0  0  0  0  0  0  0  0  0  0  0
    2.8847   -0.6859    0.1216 H   0  0  0  0  0  0  0  0  0  0  0  0
    2.8145   -1.8358    2.2777 H   0  0  0  0  0  0  0  0  0  0  0  0
    2.2057   -2.8569    1.0047 H   0  0  0  0  0  0  0  0  0  0  0  0
    5.0041   -2.9175    2.1417 H   0  0  0  0  0  0  0  0  0  0  0  0
    4.6971   -4.8135    3.3753 H   0  0  0  0  0  0  0  0  0  0  0  0
    4.0240   -2.6889    4.4191 H   0  0  0  0  0  0  0  0  0  0  0  0
    3.3122   -4.1302    5.1235 H   0  0  0  0  0  0  0  0  0  0  0  0
    2.3435   -3.1047    4.0886 H   0  0  0  0  0  0  0  0  0  0  0  0
    0.6521   -6.4085    1.9511 H   0  0  0  0  0  0  0  0  0  0  0  0
    1.6451   -7.5763    2.8134 H   0  0  0  0  0  0  0  0  0  0  0  0
    1.4325   -7.7369    1.0751 H   0  0  0  0  0  0  0  0  0  0  0  0
    3.9552   -7.8202    2.3416 H   0  0  0  0  0  0  0  0  0  0  0  0
    3.9103   -7.6825    0.6152 H   0  0  0  0  0  0  0  0  0  0  0  0
    5.7332   -6.3759    2.6427 H   0  0  0  0  0  0  0  0  0  0  0  0
    6.1073   -7.3603    1.3163 H   0  0  0  0  0  0  0  0  0  0  0  0
    5.9840   -5.7619   -0.2699 H   0  0  0  0  0  0  0  0  0  0  0  0
    7.0158   -4.1735    2.0847 H   0  0  0  0  0  0  0  0  0  0  0  0
    8.4604   -6.3590    0.5083 H   0  0  0  0  0  0  0  0  0  0  0  0
    8.0750   -6.3809    2.2295 H   0  0  0  0  0  0  0  0  0  0  0  0
    9.2337   -5.2288    1.6202 H   0  0  0  0  0  0  0  0  0  0  0  0
    8.5701   -3.1960    0.4538 H   0  0  0  0  0  0  0  0  0  0  0  0
    7.8746   -4.1505   -0.8235 H   0  0  0  0  0  0  0  0  0  0  0  0
    6.4957   -1.9752    0.7954 H   0  0  0  0  0  0  0  0  0  0  0  0
    6.9667   -1.9176   -0.8850 H   0  0  0  0  0  0  0  0  0  0  0  0
    5.4240   -3.7229   -1.4751 H   0  0  0  0  0  0  0  0  0  0  0  0
  1  2  1  0
  1 22  1  0
  1 23  1  0
  1 24  1  0
  2 18  1  0
  2  3  1  0
  2 25  1  6
  3  4  1  0
  3 26  1  0
  3 27  1  0
  4  5  1  0
  4 28  1  0
  4 29  1  0
  5 19  1  0
  5  6  1  0
  5 30  1  1
  6  7  1  0
  6  8  1  0
  6 31  1  1
  7 32  1  0
  7 33  1  0
  7 34  1  0
  8  9  1  0
  9 21  1  0
  9 10  1  1
  9 11  1  0
 10 35  1  0
 10 36  1  0
 10 37  1  0
 11 12  1  0
 11 38  1  0
 11 39  1  0
 12 13  1  0
 12 40  1  0
 12 41  1  0
 13 19  1  0
 13 14  1  0
 13 42  1  6
 14 15  1  0
 14 16  1  0
 14 43  1  1
 15 44  1  0
 15 45  1  0
 15 46  1  0
 16 17  1  0
 16 47  1  0
 16 48  1  0
 17 18  1  0
 17 49  1  0
 17 50  1  0
 18 19  1  0
 18 51  1  6
 19 20  1  6
 20 21  1  0
M  END
>  <i_m_ct_stereo_status>  (277) 
1

>  <s_m_source_file>  (277) 
/var/tmp/pbs.5076255.sched01/tmprcd7yfff/907v12ihtf.sdf

>  <i_m_source_file_index>  (277) 
27

>  <i_lp_mmshare_version>  (277) 
48012

>  <i_f3d_flags>  (277) 
0

>  <s_epik_input>  (277) 
W0NAQF0xMjNbQ0BIXTRbQ0gyXVtDSDJdW0NAQEhdKFtDSDNdKVtDQEhdMltDSDJdW0NIMl1bQ0BIXShbQ0gzXSlbQ0BIXTFbQ0gyXVtDSDJdW0NAXShbQ0gzXSkoT08zKU9bQ0BASF00W0NIM10=

>  <s_epik_cmdline>  (277) 
J2VwaWtfcHl0aG9uJywgJy1waHQnLCAnMi4wJywgJy1waCcsICc3LjAnLCAnLXRuJywgJzgnLCAnLW1hJywgJzIwMCcsICctaW1hZScsICc8aW5maWxlLm1hZT4nLCAnLW9tYWUnLCAnPG91dGZpbGUubWFlPic=

>  <r_lp_tautomer_probability>  (277) 
1

>  <r_epik_Ionization_Penalty>  (277) 
2.03652e-13

>  <r_epik_Ionization_Penalty_Charging>  (277) 
0

>  <r_epik_Ionization_Penalty_Neutral>  (277) 
2.03652e-13

>  <r_epik_State_Penalty>  (277) 
-0

>  <r_epik_Charging_Adjusted_Penalty>  (277) 
0

>  <i_epik_Tot_Q>  (277) 
0

>  <i_epik_Tot_abs_Q>  (277) 
0

>  <s_lp_Force_Field>  (277) 
OPLS3e

>  <r_lp_Energy>  (277) 
36.601

>  <b_lp_Chiralities_Consistent>  (277) 
1

>  <s_lp_Variant>  (277) 
78:0-1

>  <s_i_glide_gridfile>  (277) 
pfpi4k_grid

>  <i_i_glide_lignum>  (277) 
27

>  <i_i_glide_rotatable_bonds>  (277) 
0

>  <r_i_docking_score>  (277) 
-3.06833

>  <r_i_glide_ligand_efficiency>  (277) 
-0.146111

>  <r_i_glide_ligand_efficiency_sa>  (277) 
-0.403109

>  <r_i_glide_ligand_efficiency_ln>  (277) 
-0.758637

>  <r_i_glide_gscore>  (277) 
-3.06833

>  <r_i_glide_lipo>  (277) 
-0.644613

>  <r_i_glide_hbond>  (277) 
0

>  <r_i_glide_metal>  (277) 
-0

>  <r_i_glide_rewards>  (277) 
-1.40162

>  <r_i_glide_evdw>  (277) 
-24.1539

>  <r_i_glide_ecoul>  (277) 
1.23827

>  <r_i_glide_erotb>  (277) 
0

>  <r_i_glide_esite>  (277) 
-0.00013939

>  <r_i_glide_emodel>  (277) 
-26.907

>  <r_i_glide_energy>  (277) 
-22.9156

>  <r_i_glide_einternal>  (277) 
0

>  <r_i_glide_intrahb_reward>  (277) 
-0

>  <i_i_glide_confnum>  (277) 
1

>  <i_i_glide_posenum>  (277) 
32

>  <r_i_glide_eff_state_penalty>  (277) 
0

>  <ligand_id>  (277) 
78

>  <original_smiles>  (277) 
CC1CCC2C(C)OC3(C)CCC4C(C)CCC1C42OO3

>  <smiles>  (277) 
[H]C([H])([H])C1([H])OC2(C([H])([H])[H])OOC34C1([H])C([H])([H])C([H])([H])C([H])(C([H])([H])[H])C3([H])C([H])([H])C([H])([H])C([H])(C([H])([H])[H])C4([H])C([H])([H])C2([H])[H]

$$$$
79:0:0
     RDKit          3D

 72 78  0  0  1  0  0  0  0  0999 V2000
    9.0124   -2.9529    0.3756 C   0  0  0  0  0  0  0  0  0  0  0  0
    7.8283   -3.7073    0.8188 C   0  0  0  0  0  0  0  0  0  0  0  0
    6.8323   -4.3067    1.1975 C   0  0  0  0  0  0  0  0  0  0  0  0
    5.6067   -5.0137    1.6378 C   0  0  1  0  0  0  0  0  0  0  0  0
    4.5063   -4.1325    1.4763 O   0  0  0  0  0  0  0  0  0  0  0  0
    5.3020   -6.2295    0.7503 C   0  0  0  0  0  0  0  0  0  0  0  0
    4.3878   -7.1434    1.5689 C   0  0  0  0  0  0  0  0  0  0  0  0
    4.3941   -6.5970    3.0138 C   0  0  1  0  0  0  0  0  0  0  0  0
    4.0670   -7.6407    4.1450 C   0  0  2  0  0  0  0  0  0  0  0  0
    2.7933   -8.1447    3.7069 O   0  0  0  0  0  0  0  0  0  0  0  0
    2.1054   -9.2716    4.2175 C   0  0  1  0  0  0  0  0  0  0  0  0
    1.1245   -8.8620    5.3065 C   0  0  0  0  0  0  0  0  0  0  0  0
   -0.1863   -8.7167    5.0566 C   0  0  0  0  0  0  0  0  0  0  0  0
   -0.7654   -8.8874    3.6701 C   0  0  1  0  0  0  0  0  0  0  0  0
   -1.7533   -7.7663    3.3507 C   0  0  0  0  0  0  0  0  0  0  0  0
    0.3630   -8.9720    2.6393 C   0  0  0  0  0  0  0  0  0  0  0  0
    1.3841   -9.8301    3.1522 O   0  0  0  0  0  0  0  0  0  0  0  0
    3.0525  -10.4004    4.7590 C   0  0  1  0  0  0  0  0  0  0  0  0
    3.3019  -11.4287    3.8163 O   0  0  0  0  0  0  0  0  0  0  0  0
    4.4139   -9.8607    5.2394 C   0  0  2  0  0  0  0  0  0  0  0  0
    4.3396   -9.2679    6.6477 C   0  0  0  0  0  0  0  0  0  0  0  0
    4.6180   -9.9526    7.6299 O   0  0  0  0  0  0  0  0  0  0  0  0
    3.9100   -7.8028    6.7900 C   0  0  0  0  0  0  0  0  0  0  0  0
    3.5998   -7.3377    7.8866 O   0  0  0  0  0  0  0  0  0  0  0  0
    3.8988   -6.9239    5.5328 C   0  0  2  0  0  0  0  0  0  0  0  0
    2.4824   -5.8211    5.5480 Cl  0  0  0  0  0  0  0  0  0  0  0  0
    4.9907   -8.8891    4.1808 C   0  0  2  0  0  0  0  0  0  0  0  0
    6.5402   -8.7073    4.1395 C   0  0  2  0  0  0  0  0  0  0  0  0
    7.2936   -9.9341    4.7259 C   0  0  0  0  0  0  0  0  0  0  0  0
    8.8001   -9.8571    4.4804 C   0  0  0  0  0  0  0  0  0  0  0  0
    9.2649   -8.5635    4.8997 N   0  0  0  0  0  0  0  0  0  0  0  0
   10.5338   -8.3352    5.2995 N   0  0  0  0  0  0  0  0  0  0  0  0
   10.5872   -7.0728    5.6137 N   0  0  0  0  0  0  0  0  0  0  0  0
    9.3633   -6.4509    5.4257 N   0  0  0  0  0  0  0  0  0  0  0  0
    8.5896   -7.4177    4.9439 C   0  0  0  0  0  0  0  0  0  0  0  0
    7.1307   -7.3174    4.5574 C   0  0  1  0  0  0  0  0  0  0  0  0
    6.9847   -6.2881    3.4005 C   0  0  0  0  0  0  0  0  0  0  0  0
    5.6058   -5.6032    3.1015 C   0  0  1  0  0  0  0  0  0  0  0  0
    5.3862   -4.4359    4.1092 C   0  0  0  0  0  0  0  0  0  0  0  0
    9.3460   -3.3149   -0.5980 H   0  0  0  0  0  0  0  0  0  0  0  0
    9.8168   -3.0710    1.1029 H   0  0  0  0  0  0  0  0  0  0  0  0
    8.7738   -1.8912    0.2900 H   0  0  0  0  0  0  0  0  0  0  0  0
    3.8614   -4.5481    0.9249 H   0  0  0  0  0  0  0  0  0  0  0  0
    4.8817   -5.9718   -0.2253 H   0  0  0  0  0  0  0  0  0  0  0  0
    6.2266   -6.7687    0.5431 H   0  0  0  0  0  0  0  0  0  0  0  0
    3.3760   -7.1329    1.1640 H   0  0  0  0  0  0  0  0  0  0  0  0
    4.7414   -8.1677    1.4923 H   0  0  0  0  0  0  0  0  0  0  0  0
    3.5237   -5.9413    3.0212 H   0  0  0  0  0  0  0  0  0  0  0  0
    1.4634   -8.7855    6.3246 H   0  0  0  0  0  0  0  0  0  0  0  0
   -0.8690   -8.5297    5.8634 H   0  0  0  0  0  0  0  0  0  0  0  0
   -1.2919   -9.8446    3.6542 H   0  0  0  0  0  0  0  0  0  0  0  0
   -2.5727   -7.7556    4.0685 H   0  0  0  0  0  0  0  0  0  0  0  0
   -2.1760   -7.8969    2.3544 H   0  0  0  0  0  0  0  0  0  0  0  0
   -1.2513   -6.8009    3.3994 H   0  0  0  0  0  0  0  0  0  0  0  0
   -0.0217   -9.3648    1.7019 H   0  0  0  0  0  0  0  0  0  0  0  0
    0.7565   -7.9814    2.4168 H   0  0  0  0  0  0  0  0  0  0  0  0
    2.5455  -10.9116    5.5816 H   0  0  0  0  0  0  0  0  0  0  0  0
    2.5014  -11.9241    3.6978 H   0  0  0  0  0  0  0  0  0  0  0  0
    5.0468  -10.7443    5.3397 H   0  0  0  0  0  0  0  0  0  0  0  0
    4.7467   -6.2788    5.7110 H   0  0  0  0  0  0  0  0  0  0  0  0
    4.8038   -9.4129    3.2434 H   0  0  0  0  0  0  0  0  0  0  0  0
    6.7840   -8.7873    3.0786 H   0  0  0  0  0  0  0  0  0  0  0  0
    7.1269   -9.9824    5.8037 H   0  0  0  0  0  0  0  0  0  0  0  0
    6.9142  -10.8676    4.2971 H   0  0  0  0  0  0  0  0  0  0  0  0
    9.3326  -10.6405    5.0222 H   0  0  0  0  0  0  0  0  0  0  0  0
    9.0144   -9.9686    3.4181 H   0  0  0  0  0  0  0  0  0  0  0  0
    6.6464   -6.9679    5.4628 H   0  0  0  0  0  0  0  0  0  0  0  0
    7.6709   -5.4667    3.6159 H   0  0  0  0  0  0  0  0  0  0  0  0
    7.3988   -6.7425    2.4977 H   0  0  0  0  0  0  0  0  0  0  0  0
    5.7472   -4.6572    5.1107 H   0  0  0  0  0  0  0  0  0  0  0  0
    4.3427   -4.1303    4.1720 H   0  0  0  0  0  0  0  0  0  0  0  0
    5.9090   -3.5366    3.7988 H   0  0  0  0  0  0  0  0  0  0  0  0
  1  2  1  0
  1 40  1  0
  1 41  1  0
  1 42  1  0
  2  3  3  0
  4  3  1  6
  4 38  1  0
  4  5  1  0
  4  6  1  0
  5 43  1  0
  6  7  1  0
  6 44  1  0
  6 45  1  0
  7  8  1  0
  7 46  1  0
  7 47  1  0
  8 38  1  0
  8  9  1  0
  8 48  1  6
  9 25  1  0
  9 27  1  0
  9 10  1  6
 11 10  1  6
 11 17  1  0
 11 12  1  0
 11 18  1  0
 12 13  2  0
 12 49  1  0
 13 14  1  0
 13 50  1  0
 14 15  1  0
 14 16  1  0
 14 51  1  1
 15 52  1  0
 15 53  1  0
 15 54  1  0
 16 17  1  0
 16 55  1  0
 16 56  1  0
 18 19  1  0
 18 20  1  0
 18 57  1  1
 19 58  1  0
 20 21  1  0
 20 27  1  0
 20 59  1  1
 21 22  2  0
 21 23  1  0
 23 24  2  0
 23 25  1  0
 25 26  1  0
 25 60  1  1
 27 28  1  0
 27 61  1  6
 28 36  1  0
 28 29  1  0
 28 62  1  6
 29 30  1  0
 29 63  1  0
 29 64  1  0
 30 31  1  0
 30 65  1  0
 30 66  1  0
 31 35  1  0
 31 32  1  0
 32 33  2  0
 33 34  1  0
 34 35  2  0
 35 36  1  0
 36 37  1  0
 36 67  1  1
 37 38  1  0
 37 68  1  0
 37 69  1  0
 38 39  1  1
 39 70  1  0
 39 71  1  0
 39 72  1  0
M  END
>  <i_m_ct_stereo_status>  (278) 
1

>  <s_m_source_file>  (278) 
/var/tmp/pbs.5076255.sched01/tmprcd7yfff/907v12ihtf.sdf

>  <i_m_source_file_index>  (278) 
28

>  <i_lp_mmshare_version>  (278) 
48012

>  <i_f3d_flags>  (278) 
0

>  <s_epik_input>  (278) 
W0NIM11DI0NbQ0BAXShbT0hdKShbQ0gyXVtDSDJdMSlbQ0BdKFtDQEBIXTFbQ0BdMjM0KShbQ0gzXSlbQ0gyXVtDQEhdNVtDQEBIXShbQ0gyXVtDSDJdbjZjNW5ubjYpW0NASF00W0NAQEhdKEMoPU8pQyg9TylbQ0BASF0zQ2wpW0NASF0oW09IXSlbQ0BdNyhPMilbQ0hdPVtDSF1bQ0BASF0oW0NIM10pW0NIMl1PNw==

>  <s_epik_cmdline>  (278) 
J2VwaWtfcHl0aG9uJywgJy1waHQnLCAnMi4wJywgJy1waCcsICc3LjAnLCAnLXRuJywgJzgnLCAnLW1hJywgJzIwMCcsICctaW1hZScsICc8aW5maWxlLm1hZT4nLCAnLW9tYWUnLCAnPG91dGZpbGUubWFlPic=

>  <r_lp_tautomer_probability>  (278) 
1

>  <r_epik_Ionization_Penalty>  (278) 
0.000663911

>  <r_epik_Ionization_Penalty_Charging>  (278) 
0

>  <r_epik_Ionization_Penalty_Neutral>  (278) 
0.000663911

>  <r_epik_State_Penalty>  (278) 
0.000420893

>  <r_epik_Charging_Adjusted_Penalty>  (278) 
0.000420893

>  <i_epik_Tot_Q>  (278) 
0

>  <i_epik_Tot_abs_Q>  (278) 
0

>  <s_lp_Force_Field>  (278) 
OPLS3e

>  <r_lp_Energy>  (278) 
75.6699

>  <b_lp_Chiralities_Consistent>  (278) 
1

>  <s_lp_Variant>  (278) 
79:0-1

>  <s_i_glide_gridfile>  (278) 
pfpi4k_grid

>  <i_i_glide_lignum>  (278) 
28

>  <i_i_glide_rotatable_bonds>  (278) 
3

>  <r_i_docking_score>  (278) 
-2.02216

>  <r_i_glide_ligand_efficiency>  (278) 
-0.0518502

>  <r_i_glide_ligand_efficiency_sa>  (278) 
-0.175835

>  <r_i_glide_ligand_efficiency_ln>  (278) 
-0.433608

>  <r_i_glide_gscore>  (278) 
-2.02216

>  <r_i_glide_lipo>  (278) 
-0.57686

>  <r_i_glide_hbond>  (278) 
0

>  <r_i_glide_metal>  (278) 
-0

>  <r_i_glide_rewards>  (278) 
0

>  <r_i_glide_evdw>  (278) 
-28.8389

>  <r_i_glide_ecoul>  (278) 
-0.311093

>  <r_i_glide_erotb>  (278) 
0.0669409

>  <r_i_glide_esite>  (278) 
-0.0236263

>  <r_i_glide_emodel>  (278) 
-31.6766

>  <r_i_glide_energy>  (278) 
-29.15

>  <r_i_glide_einternal>  (278) 
1.69891

>  <r_i_glide_intrahb_reward>  (278) 
-0

>  <i_i_glide_confnum>  (278) 
4

>  <i_i_glide_posenum>  (278) 
39

>  <r_i_glide_eff_state_penalty>  (278) 
0

>  <ligand_id>  (278) 
79

>  <original_smiles>  (278) 
CC#CC1(O)CCC2C34OC5(C=CC(C)CO5)C(O)C(C(=O)C(=O)C3Cl)C4C3CCn4nnnc4C3CC21C

>  <smiles>  (278) 
[H]OC1([H])C2(OC([H])([H])C([H])(C([H])([H])[H])C([H])=C2[H])OC23C([H])(Cl)C(=O)C(=O)C1([H])C2([H])C1([H])C([H])([H])C([H])([H])n2nnnc2C1([H])C([H])([H])C1(C([H])([H])[H])C(C#CC([H])([H])[H])(O[H])C([H])([H])C([H])([H])C31[H]

$$$$
79:0:1
     RDKit          3D

 72 78  0  0  1  0  0  0  0  0999 V2000
    9.0020   -2.9858    0.3099 C   0  0  0  0  0  0  0  0  0  0  0  0
    7.8173   -3.7346    0.7626 C   0  0  0  0  0  0  0  0  0  0  0  0
    6.8210   -4.3290    1.1470 C   0  0  0  0  0  0  0  0  0  0  0  0
    5.5959   -5.0341    1.5921 C   0  0  1  0  0  0  0  0  0  0  0  0
    4.4951   -4.1559    1.4280 O   0  0  0  0  0  0  0  0  0  0  0  0
    5.2874   -6.2542    0.7137 C   0  0  0  0  0  0  0  0  0  0  0  0
    4.3751   -7.1626    1.5409 C   0  0  0  0  0  0  0  0  0  0  0  0
    4.3874   -6.6079    2.9829 C   0  0  1  0  0  0  0  0  0  0  0  0
    4.0643   -7.6429    4.1227 C   0  0  2  0  0  0  0  0  0  0  0  0
    2.7902   -8.1486    3.6890 O   0  0  0  0  0  0  0  0  0  0  0  0
    2.1017   -9.2712    4.2051 C   0  0  1  0  0  0  0  0  0  0  0  0
    1.1218   -8.8534    5.2975 C   0  0  0  0  0  0  0  0  0  0  0  0
   -0.1844   -8.7072    5.0531 C   0  0  0  0  0  0  0  0  0  0  0  0
   -0.7724   -8.8861    3.6714 C   0  0  1  0  0  0  0  0  0  0  0  0
   -1.7598   -7.7669    3.3481 C   0  0  0  0  0  0  0  0  0  0  0  0
    0.3509   -8.9787    2.6351 C   0  0  0  0  0  0  0  0  0  0  0  0
    1.3805   -9.8297    3.1421 O   0  0  0  0  0  0  0  0  0  0  0  0
    3.0519  -10.4006    4.7462 C   0  0  1  0  0  0  0  0  0  0  0  0
    3.3147  -11.4306    3.8065 O   0  0  0  0  0  0  0  0  0  0  0  0
    4.4113   -9.8572    5.2287 C   0  0  2  0  0  0  0  0  0  0  0  0
    4.3388   -9.2563    6.6345 C   0  0  0  0  0  0  0  0  0  0  0  0
    4.6212   -9.9352    7.6196 O   0  0  0  0  0  0  0  0  0  0  0  0
    3.9121   -7.7905    6.7690 C   0  0  0  0  0  0  0  0  0  0  0  0
    3.6065   -7.3186    7.8639 O   0  0  0  0  0  0  0  0  0  0  0  0
    3.8990   -6.9179    5.5066 C   0  0  2  0  0  0  0  0  0  0  0  0
    2.4836   -5.8144    5.5176 Cl  0  0  0  0  0  0  0  0  0  0  0  0
    4.9864   -8.8914    4.1632 C   0  0  2  0  0  0  0  0  0  0  0  0
    6.5349   -8.7139    4.1145 C   0  0  2  0  0  0  0  0  0  0  0  0
    7.2877   -9.9391    4.7058 C   0  0  0  0  0  0  0  0  0  0  0  0
    8.7942   -9.8668    4.4588 C   0  0  0  0  0  0  0  0  0  0  0  0
    9.2615   -8.5705    4.8672 N   0  0  0  0  0  0  0  0  0  0  0  0
   10.5307   -8.3407    5.2623 N   0  0  0  0  0  0  0  0  0  0  0  0
   10.5880   -7.0769    5.5671 N   0  0  0  0  0  0  0  0  0  0  0  0
    9.3629   -6.4556    5.3771 N   0  0  0  0  0  0  0  0  0  0  0  0
    8.5888   -7.4216    4.9059 C   0  0  0  0  0  0  0  0  0  0  0  0
    7.1277   -7.3232    4.5220 C   0  0  1  0  0  0  0  0  0  0  0  0
    6.9798   -6.2990    3.3595 C   0  0  0  0  0  0  0  0  0  0  0  0
    5.6003   -5.6148    3.0603 C   0  0  1  0  0  0  0  0  0  0  0  0
    5.3846   -4.4415    4.0611 C   0  0  0  0  0  0  0  0  0  0  0  0
    9.3234   -3.3448   -0.6693 H   0  0  0  0  0  0  0  0  0  0  0  0
    9.8132   -3.1123    1.0284 H   0  0  0  0  0  0  0  0  0  0  0  0
    8.7690   -1.9219    0.2326 H   0  0  0  0  0  0  0  0  0  0  0  0
    3.9037   -4.5270    0.7899 H   0  0  0  0  0  0  0  0  0  0  0  0
    4.8643   -6.0025   -0.2621 H   0  0  0  0  0  0  0  0  0  0  0  0
    6.2104   -6.7955    0.5079 H   0  0  0  0  0  0  0  0  0  0  0  0
    3.3615   -7.1526    1.1400 H   0  0  0  0  0  0  0  0  0  0  0  0
    4.7280   -8.1873    1.4682 H   0  0  0  0  0  0  0  0  0  0  0  0
    3.5176   -5.9509    2.9893 H   0  0  0  0  0  0  0  0  0  0  0  0
    1.4655   -8.7732    6.3197 H   0  0  0  0  0  0  0  0  0  0  0  0
   -0.8672   -8.5164    5.8604 H   0  0  0  0  0  0  0  0  0  0  0  0
   -1.2995   -9.8413    3.6625 H   0  0  0  0  0  0  0  0  0  0  0  0
   -2.5776   -7.7492    4.0692 H   0  0  0  0  0  0  0  0  0  0  0  0
   -2.1877   -7.9025    2.3548 H   0  0  0  0  0  0  0  0  0  0  0  0
   -1.2589   -6.8007    3.3877 H   0  0  0  0  0  0  0  0  0  0  0  0
   -0.0381   -9.3789    1.7016 H   0  0  0  0  0  0  0  0  0  0  0  0
    0.7421   -7.9878    2.4028 H   0  0  0  0  0  0  0  0  0  0  0  0
    2.5427  -10.9113    5.5701 H   0  0  0  0  0  0  0  0  0  0  0  0
    3.5869  -11.0594    2.9792 H   0  0  0  0  0  0  0  0  0  0  0  0
    5.0425  -10.7406    5.3351 H   0  0  0  0  0  0  0  0  0  0  0  0
    4.7485   -6.2735    5.6786 H   0  0  0  0  0  0  0  0  0  0  0  0
    4.7989   -9.4153    3.2274 H   0  0  0  0  0  0  0  0  0  0  0  0
    6.7754   -8.8001    3.0529 H   0  0  0  0  0  0  0  0  0  0  0  0
    7.1225   -9.9812    5.7845 H   0  0  0  0  0  0  0  0  0  0  0  0
    6.9059  -10.8738    4.2839 H   0  0  0  0  0  0  0  0  0  0  0  0
    9.3259  -10.6466    5.0041 H   0  0  0  0  0  0  0  0  0  0  0  0
    9.0106   -9.9845    3.3971 H   0  0  0  0  0  0  0  0  0  0  0  0
    6.6460   -6.9665    5.4276 H   0  0  0  0  0  0  0  0  0  0  0  0
    7.6662   -5.4788    3.5688 H   0  0  0  0  0  0  0  0  0  0  0  0
    7.3908   -6.7587    2.4584 H   0  0  0  0  0  0  0  0  0  0  0  0
    5.7489   -4.6578    5.0631 H   0  0  0  0  0  0  0  0  0  0  0  0
    4.3415   -4.1349    4.1261 H   0  0  0  0  0  0  0  0  0  0  0  0
    5.9074   -3.5446    3.7441 H   0  0  0  0  0  0  0  0  0  0  0  0
  1  2  1  0
  1 40  1  0
  1 41  1  0
  1 42  1  0
  2  3  3  0
  4  3  1  6
  4 38  1  0
  4  5  1  0
  4  6  1  0
  5 43  1  0
  6  7  1  0
  6 44  1  0
  6 45  1  0
  7  8  1  0
  7 46  1  0
  7 47  1  0
  8 38  1  0
  8  9  1  0
  8 48  1  6
  9 25  1  0
  9 27  1  0
  9 10  1  6
 11 10  1  6
 11 17  1  0
 11 12  1  0
 11 18  1  0
 12 13  2  0
 12 49  1  0
 13 14  1  0
 13 50  1  0
 14 15  1  0
 14 16  1  0
 14 51  1  1
 15 52  1  0
 15 53  1  0
 15 54  1  0
 16 17  1  0
 16 55  1  0
 16 56  1  0
 18 19  1  0
 18 20  1  0
 18 57  1  1
 19 58  1  0
 20 21  1  0
 20 27  1  0
 20 59  1  1
 21 22  2  0
 21 23  1  0
 23 24  2  0
 23 25  1  0
 25 26  1  0
 25 60  1  1
 27 28  1  0
 27 61  1  6
 28 36  1  0
 28 29  1  0
 28 62  1  6
 29 30  1  0
 29 63  1  0
 29 64  1  0
 30 31  1  0
 30 65  1  0
 30 66  1  0
 31 35  1  0
 31 32  1  0
 32 33  2  0
 33 34  1  0
 34 35  2  0
 35 36  1  0
 36 37  1  0
 36 67  1  1
 37 38  1  0
 37 68  1  0
 37 69  1  0
 38 39  1  1
 39 70  1  0
 39 71  1  0
 39 72  1  0
M  END
>  <i_m_ct_stereo_status>  (279) 
1

>  <s_m_source_file>  (279) 
/var/tmp/pbs.5076255.sched01/tmprcd7yfff/907v12ihtf.sdf

>  <i_m_source_file_index>  (279) 
28

>  <i_lp_mmshare_version>  (279) 
48012

>  <i_f3d_flags>  (279) 
0

>  <s_epik_input>  (279) 
W0NIM11DI0NbQ0BAXShbT0hdKShbQ0gyXVtDSDJdMSlbQ0BdKFtDQEBIXTFbQ0BdMjM0KShbQ0gzXSlbQ0gyXVtDQEhdNVtDQEBIXShbQ0gyXVtDSDJdbjZjNW5ubjYpW0NASF00W0NAQEhdKEMoPU8pQyg9TylbQ0BASF0zQ2wpW0NASF0oW09IXSlbQ0BdNyhPMilbQ0hdPVtDSF1bQ0BASF0oW0NIM10pW0NIMl1PNw==

>  <s_epik_cmdline>  (279) 
J2VwaWtfcHl0aG9uJywgJy1waHQnLCAnMi4wJywgJy1waCcsICc3LjAnLCAnLXRuJywgJzgnLCAnLW1hJywgJzIwMCcsICctaW1hZScsICc8aW5maWxlLm1hZT4nLCAnLW9tYWUnLCAnPG91dGZpbGUubWFlPic=

>  <r_lp_tautomer_probability>  (279) 
1

>  <r_epik_Ionization_Penalty>  (279) 
0.000663911

>  <r_epik_Ionization_Penalty_Charging>  (279) 
0

>  <r_epik_Ionization_Penalty_Neutral>  (279) 
0.000663911

>  <r_epik_State_Penalty>  (279) 
0.000420893

>  <r_epik_Charging_Adjusted_Penalty>  (279) 
0.000420893

>  <i_epik_Tot_Q>  (279) 
0

>  <i_epik_Tot_abs_Q>  (279) 
0

>  <s_lp_Force_Field>  (279) 
OPLS3e

>  <r_lp_Energy>  (279) 
75.6699

>  <b_lp_Chiralities_Consistent>  (279) 
1

>  <s_lp_Variant>  (279) 
79:0-1

>  <s_i_glide_gridfile>  (279) 
pfpi4k_grid

>  <i_i_glide_lignum>  (279) 
28

>  <i_i_glide_rotatable_bonds>  (279) 
3

>  <r_i_docking_score>  (279) 
-1.94029

>  <r_i_glide_ligand_efficiency>  (279) 
-0.049751

>  <r_i_glide_ligand_efficiency_sa>  (279) 
-0.168716

>  <r_i_glide_ligand_efficiency_ln>  (279) 
-0.416053

>  <r_i_glide_gscore>  (279) 
-1.94029

>  <r_i_glide_lipo>  (279) 
-0.587612

>  <r_i_glide_hbond>  (279) 
0

>  <r_i_glide_metal>  (279) 
-0

>  <r_i_glide_rewards>  (279) 
0

>  <r_i_glide_evdw>  (279) 
-28.9374

>  <r_i_glide_ecoul>  (279) 
0.340247

>  <r_i_glide_erotb>  (279) 
0.0669409

>  <r_i_glide_esite>  (279) 
-0.0237859

>  <r_i_glide_emodel>  (279) 
-31.0494

>  <r_i_glide_energy>  (279) 
-28.5972

>  <r_i_glide_einternal>  (279) 
1.34908

>  <r_i_glide_intrahb_reward>  (279) 
-0

>  <i_i_glide_confnum>  (279) 
4

>  <i_i_glide_posenum>  (279) 
2

>  <r_i_glide_eff_state_penalty>  (279) 
0

>  <ligand_id>  (279) 
79

>  <original_smiles>  (279) 
CC#CC1(O)CCC2C34OC5(C=CC(C)CO5)C(O)C(C(=O)C(=O)C3Cl)C4C3CCn4nnnc4C3CC21C

>  <smiles>  (279) 
[H]OC1([H])C2(OC([H])([H])C([H])(C([H])([H])[H])C([H])=C2[H])OC23C([H])(Cl)C(=O)C(=O)C1([H])C2([H])C1([H])C([H])([H])C([H])([H])n2nnnc2C1([H])C([H])([H])C1(C([H])([H])[H])C(C#CC([H])([H])[H])(O[H])C([H])([H])C([H])([H])C31[H]

$$$$
79:0:2
     RDKit          3D

 72 78  0  0  1  0  0  0  0  0999 V2000
   -4.0905    3.9959    2.1793 C   0  0  0  0  0  0  0  0  0  0  0  0
   -2.9279    3.1830    2.5826 C   0  0  0  0  0  0  0  0  0  0  0  0
   -1.9685    2.5046    2.9176 C   0  0  0  0  0  0  0  0  0  0  0  0
   -0.8078    1.6712    3.3244 C   0  0  1  0  0  0  0  0  0  0  0  0
   -0.7210    0.5560    2.4560 O   0  0  0  0  0  0  0  0  0  0  0  0
    0.5297    2.3905    3.1269 C   0  0  0  0  0  0  0  0  0  0  0  0
    1.5355    1.6734    4.0303 C   0  0  0  0  0  0  0  0  0  0  0  0
    0.7265    0.7384    4.9530 C   0  0  1  0  0  0  0  0  0  0  0  0
    1.3952    0.3823    6.3297 C   0  0  2  0  0  0  0  0  0  0  0  0
    2.6588   -0.1526    5.9010 O   0  0  0  0  0  0  0  0  0  0  0  0
    3.7756   -0.4480    6.7154 C   0  0  1  0  0  0  0  0  0  0  0  0
    3.7618   -1.9061    7.1708 C   0  0  0  0  0  0  0  0  0  0  0  0
    4.5079   -2.8459    6.5771 C   0  0  0  0  0  0  0  0  0  0  0  0
    5.3658   -2.5386    5.3703 C   0  0  1  0  0  0  0  0  0  0  0  0
    5.1881   -3.6130    4.2973 C   0  0  0  0  0  0  0  0  0  0  0  0
    5.0299   -1.1368    4.8281 C   0  0  0  0  0  0  0  0  0  0  0  0
    4.9159   -0.2340    5.9291 O   0  0  0  0  0  0  0  0  0  0  0  0
    3.9066    0.5008    7.9630 C   0  0  1  0  0  0  0  0  0  0  0  0
    4.7800    1.6012    7.7609 O   0  0  0  0  0  0  0  0  0  0  0  0
    2.5547    1.0639    8.4361 C   0  0  2  0  0  0  0  0  0  0  0  0
    1.7726    0.0637    9.2894 C   0  0  0  0  0  0  0  0  0  0  0  0
    1.8690    0.0841   10.5133 O   0  0  0  0  0  0  0  0  0  0  0  0
    0.8805   -0.9527    8.5651 C   0  0  0  0  0  0  0  0  0  0  0  0
    0.3734   -1.9026    9.1638 O   0  0  0  0  0  0  0  0  0  0  0  0
    0.5803   -0.7293    7.0784 C   0  0  2  0  0  0  0  0  0  0  0  0
    0.5744   -2.2856    6.1869 Cl  0  0  0  0  0  0  0  0  0  0  0  0
    1.7665    1.5999    7.2176 C   0  0  2  0  0  0  0  0  0  0  0  0
    0.7174    2.7215    7.4772 C   0  0  2  0  0  0  0  0  0  0  0  0
    1.0299    3.5377    8.7637 C   0  0  0  0  0  0  0  0  0  0  0  0
    0.1358    4.7703    8.8986 C   0  0  0  0  0  0  0  0  0  0  0  0
   -1.2307    4.3571    8.7142 N   0  0  0  0  0  0  0  0  0  0  0  0
   -2.2752    5.0261    9.2392 N   0  0  0  0  0  0  0  0  0  0  0  0
   -3.3386    4.3654    8.8839 N   0  0  0  0  0  0  0  0  0  0  0  0
   -3.0151    3.2615    8.1142 N   0  0  0  0  0  0  0  0  0  0  0  0
   -1.6973    3.3290    8.0121 C   0  0  0  0  0  0  0  0  0  0  0  0
   -0.7932    2.3689    7.2758 C   0  0  1  0  0  0  0  0  0  0  0  0
   -1.1669    2.3843    5.7664 C   0  0  0  0  0  0  0  0  0  0  0  0
   -0.7672    1.1931    4.8310 C   0  0  1  0  0  0  0  0  0  0  0  0
   -1.7844    0.0313    5.0330 C   0  0  0  0  0  0  0  0  0  0  0  0
   -4.3816    3.7713    1.1525 H   0  0  0  0  0  0  0  0  0  0  0  0
   -3.8291    5.0539    2.2529 H   0  0  0  0  0  0  0  0  0  0  0  0
   -4.9286    3.7848    2.8438 H   0  0  0  0  0  0  0  0  0  0  0  0
   -0.6292    0.8775    1.5668 H   0  0  0  0  0  0  0  0  0  0  0  0
    0.8510    2.4199    2.0829 H   0  0  0  0  0  0  0  0  0  0  0  0
    0.4461    3.4297    3.4451 H   0  0  0  0  0  0  0  0  0  0  0  0
    2.2387    1.0910    3.4342 H   0  0  0  0  0  0  0  0  0  0  0  0
    2.1136    2.4165    4.5680 H   0  0  0  0  0  0  0  0  0  0  0  0
    0.7489   -0.2088    4.4120 H   0  0  0  0  0  0  0  0  0  0  0  0
    3.2099   -2.1813    8.0551 H   0  0  0  0  0  0  0  0  0  0  0  0
    4.5388   -3.8506    6.9718 H   0  0  0  0  0  0  0  0  0  0  0  0
    6.4004   -2.5413    5.7197 H   0  0  0  0  0  0  0  0  0  0  0  0
    5.4734   -4.5942    4.6774 H   0  0  0  0  0  0  0  0  0  0  0  0
    5.8073   -3.3958    3.4267 H   0  0  0  0  0  0  0  0  0  0  0  0
    4.1497   -3.6634    3.9680 H   0  0  0  0  0  0  0  0  0  0  0  0
    5.8112   -0.7863    4.1534 H   0  0  0  0  0  0  0  0  0  0  0  0
    4.1101   -1.1543    4.2411 H   0  0  0  0  0  0  0  0  0  0  0  0
    4.3734   -0.0669    8.7699 H   0  0  0  0  0  0  0  0  0  0  0  0
    4.5044    2.0848    6.9963 H   0  0  0  0  0  0  0  0  0  0  0  0
    2.8107    1.8743    9.1209 H   0  0  0  0  0  0  0  0  0  0  0  0
   -0.4574   -0.4414    7.1175 H   0  0  0  0  0  0  0  0  0  0  0  0
    2.5205    2.1419    6.6519 H   0  0  0  0  0  0  0  0  0  0  0  0
    0.9202    3.4582    6.6967 H   0  0  0  0  0  0  0  0  0  0  0  0
    0.8678    2.9075    9.6407 H   0  0  0  0  0  0  0  0  0  0  0  0
    2.0771    3.8568    8.7823 H   0  0  0  0  0  0  0  0  0  0  0  0
    0.2529    5.2385    9.8766 H   0  0  0  0  0  0  0  0  0  0  0  0
    0.3794    5.5061    8.1305 H   0  0  0  0  0  0  0  0  0  0  0  0
   -1.0192    1.4118    7.7341 H   0  0  0  0  0  0  0  0  0  0  0  0
   -2.2538    2.4443    5.7042 H   0  0  0  0  0  0  0  0  0  0  0  0
   -0.8298    3.3340    5.3465 H   0  0  0  0  0  0  0  0  0  0  0  0
   -2.1012   -0.0916    6.0672 H   0  0  0  0  0  0  0  0  0  0  0  0
   -1.4158   -0.9261    4.6553 H   0  0  0  0  0  0  0  0  0  0  0  0
   -2.6942    0.2259    4.4858 H   0  0  0  0  0  0  0  0  0  0  0  0
  1  2  1  0
  1 40  1  0
  1 41  1  0
  1 42  1  0
  2  3  3  0
  4  3  1  1
  4 38  1  0
  4  5  1  0
  4  6  1  0
  5 43  1  0
  6  7  1  0
  6 44  1  0
  6 45  1  0
  7  8  1  0
  7 46  1  0
  7 47  1  0
  8 38  1  0
  8  9  1  0
  8 48  1  6
  9 25  1  0
  9 27  1  0
  9 10  1  6
 11 10  1  6
 11 17  1  0
 11 12  1  0
 11 18  1  0
 12 13  2  0
 12 49  1  0
 13 14  1  0
 13 50  1  0
 14 15  1  0
 14 16  1  0
 14 51  1  1
 15 52  1  0
 15 53  1  0
 15 54  1  0
 16 17  1  0
 16 55  1  0
 16 56  1  0
 18 19  1  0
 18 20  1  0
 18 57  1  1
 19 58  1  0
 20 21  1  0
 20 27  1  0
 20 59  1  1
 21 22  2  0
 21 23  1  0
 23 24  2  0
 23 25  1  0
 25 26  1  0
 25 60  1  1
 27 28  1  0
 27 61  1  6
 28 36  1  0
 28 29  1  0
 28 62  1  6
 29 30  1  0
 29 63  1  0
 29 64  1  0
 30 31  1  0
 30 65  1  0
 30 66  1  0
 31 35  1  0
 31 32  1  0
 32 33  2  0
 33 34  1  0
 34 35  2  0
 35 36  1  0
 36 37  1  0
 36 67  1  1
 37 38  1  0
 37 68  1  0
 37 69  1  0
 38 39  1  6
 39 70  1  0
 39 71  1  0
 39 72  1  0
M  END
>  <i_m_ct_stereo_status>  (280) 
1

>  <s_m_source_file>  (280) 
/var/tmp/pbs.5076255.sched01/tmprcd7yfff/907v12ihtf.sdf

>  <i_m_source_file_index>  (280) 
28

>  <i_lp_mmshare_version>  (280) 
48012

>  <i_f3d_flags>  (280) 
0

>  <s_epik_input>  (280) 
W0NIM11DI0NbQ0BAXShbT0hdKShbQ0gyXVtDSDJdMSlbQ0BdKFtDQEBIXTFbQ0BdMjM0KShbQ0gzXSlbQ0gyXVtDQEhdNVtDQEBIXShbQ0gyXVtDSDJdbjZjNW5ubjYpW0NASF00W0NAQEhdKEMoPU8pQyg9TylbQ0BASF0zQ2wpW0NASF0oW09IXSlbQ0BdNyhPMilbQ0hdPVtDSF1bQ0BASF0oW0NIM10pW0NIMl1PNw==

>  <s_epik_cmdline>  (280) 
J2VwaWtfcHl0aG9uJywgJy1waHQnLCAnMi4wJywgJy1waCcsICc3LjAnLCAnLXRuJywgJzgnLCAnLW1hJywgJzIwMCcsICctaW1hZScsICc8aW5maWxlLm1hZT4nLCAnLW9tYWUnLCAnPG91dGZpbGUubWFlPic=

>  <r_lp_tautomer_probability>  (280) 
1

>  <r_epik_Ionization_Penalty>  (280) 
0.000663911

>  <r_epik_Ionization_Penalty_Charging>  (280) 
0

>  <r_epik_Ionization_Penalty_Neutral>  (280) 
0.000663911

>  <r_epik_State_Penalty>  (280) 
0.000420893

>  <r_epik_Charging_Adjusted_Penalty>  (280) 
0.000420893

>  <i_epik_Tot_Q>  (280) 
0

>  <i_epik_Tot_abs_Q>  (280) 
0

>  <s_lp_Force_Field>  (280) 
OPLS3e

>  <r_lp_Energy>  (280) 
75.6699

>  <b_lp_Chiralities_Consistent>  (280) 
1

>  <s_lp_Variant>  (280) 
79:0-1

>  <s_i_glide_gridfile>  (280) 
pfpi4k_grid

>  <i_i_glide_lignum>  (280) 
28

>  <i_i_glide_rotatable_bonds>  (280) 
3

>  <r_i_docking_score>  (280) 
-1.6795

>  <r_i_glide_ligand_efficiency>  (280) 
-0.043064

>  <r_i_glide_ligand_efficiency_sa>  (280) 
-0.146039

>  <r_i_glide_ligand_efficiency_ln>  (280) 
-0.360131

>  <r_i_glide_gscore>  (280) 
-1.6795

>  <r_i_glide_lipo>  (280) 
-0.247443

>  <r_i_glide_hbond>  (280) 
-0.0591669

>  <r_i_glide_metal>  (280) 
-0

>  <r_i_glide_rewards>  (280) 
-0.00011796

>  <r_i_glide_evdw>  (280) 
-28.6559

>  <r_i_glide_ecoul>  (280) 
0.134465

>  <r_i_glide_erotb>  (280) 
0.0669409

>  <r_i_glide_esite>  (280) 
-0.0270831

>  <r_i_glide_emodel>  (280) 
-30.144

>  <r_i_glide_energy>  (280) 
-28.5214

>  <r_i_glide_einternal>  (280) 
2.14661

>  <r_i_glide_intrahb_reward>  (280) 
-0

>  <i_i_glide_confnum>  (280) 
2

>  <i_i_glide_posenum>  (280) 
17

>  <r_i_glide_eff_state_penalty>  (280) 
0

>  <ligand_id>  (280) 
79

>  <original_smiles>  (280) 
CC#CC1(O)CCC2C34OC5(C=CC(C)CO5)C(O)C(C(=O)C(=O)C3Cl)C4C3CCn4nnnc4C3CC21C

>  <smiles>  (280) 
[H]OC1([H])C2(OC([H])([H])C([H])(C([H])([H])[H])C([H])=C2[H])OC23C([H])(Cl)C(=O)C(=O)C1([H])C2([H])C1([H])C([H])([H])C([H])([H])n2nnnc2C1([H])C([H])([H])C1(C([H])([H])[H])C(C#CC([H])([H])[H])(O[H])C([H])([H])C([H])([H])C31[H]

$$$$
81:0:0
     RDKit          3D

 56 60  0  0  1  0  0  0  0  0999 V2000
    5.8080   -7.6766    4.3364 C   0  0  0  0  0  0  0  0  0  0  0  0
    4.7565   -7.3984    3.2429 C   0  0  2  0  0  0  0  0  0  0  0  0
    5.4810   -7.2657    1.8818 C   0  0  0  0  0  0  0  0  0  0  0  0
    4.5697   -6.7962    0.7256 C   0  0  0  0  0  0  0  0  0  0  0  0
    3.7003   -5.5378    1.0289 C   0  0  1  0  0  0  0  0  0  0  0  0
    3.0094   -5.7189    2.4217 C   0  0  2  0  0  0  0  0  0  0  0  0
    2.2477   -4.4419    2.8002 C   0  0  0  0  0  0  0  0  0  0  0  0
    3.0994   -3.1762    2.6804 C   0  0  0  0  0  0  0  0  0  0  0  0
    3.5231   -2.9038    1.2132 C   0  0  1  0  0  0  0  0  0  0  0  0
    4.1870   -1.4742    1.0352 C   0  0  0  0  0  0  0  0  0  0  0  0
    4.1378   -0.9888   -0.4319 C   0  0  0  0  0  0  0  0  0  0  0  0
    3.4534   -0.3793    1.8619 C   0  0  0  0  0  0  0  0  0  0  0  0
    5.6615   -1.5345    1.4663 C   0  0  0  0  0  0  0  0  0  0  0  0
    6.1613   -0.7045    2.2221 O   0  0  0  0  0  0  0  0  0  0  0  0
    6.4969   -2.6678    0.8874 C   0  0  0  0  0  0  0  0  0  0  0  0
    5.8270   -4.0218    1.1572 C   0  0  0  0  0  0  0  0  0  0  0  0
    4.3577   -4.1312    0.6552 C   0  0  1  0  0  0  0  0  0  0  0  0
    4.3738   -4.0690   -0.9000 C   0  0  0  0  0  0  0  0  0  0  0  0
    4.0450   -6.0576    3.5322 C   0  0  0  0  0  0  0  0  0  0  0  0
    2.0334   -6.8869    2.3629 C   0  0  0  0  0  0  0  0  0  0  0  0
    0.7826   -6.8777    1.9040 N   0  0  0  0  0  0  0  0  0  0  0  0
    0.4547   -8.1918    2.0801 C   0  0  0  0  0  0  0  0  0  0  0  0
    1.4206   -8.9839    2.5336 N   0  0  0  0  0  0  0  0  0  0  0  0
    2.4407   -8.1201    2.7030 N   0  0  0  0  0  0  0  0  0  0  0  0
    3.7192   -8.5524    3.2277 C   0  0  0  0  0  0  0  0  0  0  0  0
    6.3431   -8.6124    4.1543 H   0  0  0  0  0  0  0  0  0  0  0  0
    5.3434   -7.7530    5.3219 H   0  0  0  0  0  0  0  0  0  0  0  0
    6.5505   -6.8778    4.3914 H   0  0  0  0  0  0  0  0  0  0  0  0
    6.3105   -6.5694    1.9948 H   0  0  0  0  0  0  0  0  0  0  0  0
    5.9448   -8.2164    1.6045 H   0  0  0  0  0  0  0  0  0  0  0  0
    5.1795   -6.6455   -0.1591 H   0  0  0  0  0  0  0  0  0  0  0  0
    3.9080   -7.6233    0.4634 H   0  0  0  0  0  0  0  0  0  0  0  0
    2.8729   -5.5995    0.3222 H   0  0  0  0  0  0  0  0  0  0  0  0
    1.4097   -4.3265    2.1208 H   0  0  0  0  0  0  0  0  0  0  0  0
    1.8270   -4.5316    3.8047 H   0  0  0  0  0  0  0  0  0  0  0  0
    2.4598   -2.3764    3.0553 H   0  0  0  0  0  0  0  0  0  0  0  0
    3.9650   -3.2112    3.3445 H   0  0  0  0  0  0  0  0  0  0  0  0
    2.5861   -2.8609    0.6536 H   0  0  0  0  0  0  0  0  0  0  0  0
    3.1774   -1.2136   -0.8978 H   0  0  0  0  0  0  0  0  0  0  0  0
    4.9244   -1.3892   -1.0650 H   0  0  0  0  0  0  0  0  0  0  0  0
    4.2665    0.0926   -0.4836 H   0  0  0  0  0  0  0  0  0  0  0  0
    2.3789   -0.3864    1.6690 H   0  0  0  0  0  0  0  0  0  0  0  0
    3.8166    0.6249    1.6287 H   0  0  0  0  0  0  0  0  0  0  0  0
    3.6102   -0.5017    2.9350 H   0  0  0  0  0  0  0  0  0  0  0  0
    6.6512   -2.4991   -0.1743 H   0  0  0  0  0  0  0  0  0  0  0  0
    7.4867   -2.6564    1.3293 H   0  0  0  0  0  0  0  0  0  0  0  0
    6.4462   -4.7940    0.6989 H   0  0  0  0  0  0  0  0  0  0  0  0
    5.8650   -4.1851    2.2306 H   0  0  0  0  0  0  0  0  0  0  0  0
    5.1665   -3.4499   -1.3089 H   0  0  0  0  0  0  0  0  0  0  0  0
    3.4259   -3.7019   -1.2994 H   0  0  0  0  0  0  0  0  0  0  0  0
    4.5468   -5.0392   -1.3572 H   0  0  0  0  0  0  0  0  0  0  0  0
    3.5272   -6.1476    4.4880 H   0  0  0  0  0  0  0  0  0  0  0  0
    4.7770   -5.2677    3.6708 H   0  0  0  0  0  0  0  0  0  0  0  0
   -0.5107   -8.6065    1.8296 H   0  0  0  0  0  0  0  0  0  0  0  0
    4.0801   -9.4073    2.6564 H   0  0  0  0  0  0  0  0  0  0  0  0
    3.5429   -8.9085    4.2412 H   0  0  0  0  0  0  0  0  0  0  0  0
  2  1  1  1
  1 26  1  0
  1 27  1  0
  1 28  1  0
  2 19  1  0
  2 25  1  0
  2  3  1  0
  3  4  1  0
  3 29  1  0
  3 30  1  0
  4  5  1  0
  4 31  1  0
  4 32  1  0
  5 17  1  0
  5  6  1  0
  5 33  1  6
  6  7  1  1
  6 19  1  0
  6 20  1  0
  7  8  1  0
  7 34  1  0
  7 35  1  0
  8  9  1  0
  8 36  1  0
  8 37  1  0
  9 17  1  0
  9 10  1  0
  9 38  1  6
 10 11  1  0
 10 12  1  0
 10 13  1  0
 11 39  1  0
 11 40  1  0
 11 41  1  0
 12 42  1  0
 12 43  1  0
 12 44  1  0
 13 14  2  0
 13 15  1  0
 15 16  1  0
 15 45  1  0
 15 46  1  0
 16 17  1  0
 16 47  1  0
 16 48  1  0
 17 18  1  6
 18 49  1  0
 18 50  1  0
 18 51  1  0
 19 52  1  0
 19 53  1  0
 20 24  1  0
 20 21  2  0
 21 22  1  0
 22 23  2  0
 22 54  1  0
 23 24  1  0
 24 25  1  0
 25 55  1  0
 25 56  1  0
M  END
>  <i_m_ct_stereo_status>  (281) 
1

>  <s_m_source_file>  (281) 
/var/tmp/pbs.5076255.sched01/tmprcd7yfff/907v12ihtf.sdf

>  <i_m_source_file_index>  (281) 
30

>  <i_lp_mmshare_version>  (281) 
48012

>  <i_f3d_flags>  (281) 
0

>  <s_epik_input>  (281) 
bjFbY0hdbmMybjFbQ0gyXVtDQF0oW0NIM10pKFtDSDJdMylbQ0gyXVtDSDJdW0NAQEhdKFtDQEBdMjM0KVtDQEBdNShbQ0gzXSlbQ0BASF0oW0NIMl1bQ0gyXTQpQyhbQ0gzXSkoW0NIM10pQyg9TylbQ0gyXVtDSDJdNQ==

>  <s_epik_cmdline>  (281) 
J2VwaWtfcHl0aG9uJywgJy1waHQnLCAnMi4wJywgJy1waCcsICc3LjAnLCAnLXRuJywgJzgnLCAnLW1hJywgJzIwMCcsICctaW1hZScsICc8aW5maWxlLm1hZT4nLCAnLW9tYWUnLCAnPG91dGZpbGUubWFlPic=

>  <r_lp_tautomer_probability>  (281) 
0.99995

>  <r_epik_Ionization_Penalty>  (281) 
0.0239247

>  <r_epik_Ionization_Penalty_Charging>  (281) 
0

>  <r_epik_Ionization_Penalty_Neutral>  (281) 
0.0239247

>  <r_epik_State_Penalty>  (281) 
0.0193911

>  <r_epik_Charging_Adjusted_Penalty>  (281) 
0.0193911

>  <i_epik_Tot_Q>  (281) 
0

>  <i_epik_Tot_abs_Q>  (281) 
0

>  <s_lp_Force_Field>  (281) 
OPLS3e

>  <r_lp_Energy>  (281) 
63.0465

>  <b_lp_Chiralities_Consistent>  (281) 
1

>  <s_lp_Variant>  (281) 
81:0-1

>  <s_i_glide_gridfile>  (281) 
pfpi4k_grid

>  <i_i_glide_lignum>  (281) 
30

>  <i_i_glide_rotatable_bonds>  (281) 
0

>  <r_i_docking_score>  (281) 
-3.2584

>  <r_i_glide_ligand_efficiency>  (281) 
-0.130336

>  <r_i_glide_ligand_efficiency_sa>  (281) 
-0.381105

>  <r_i_glide_ligand_efficiency_ln>  (281) 
-0.772338

>  <r_i_glide_gscore>  (281) 
-3.2584

>  <r_i_glide_lipo>  (281) 
-0.369959

>  <r_i_glide_hbond>  (281) 
0

>  <r_i_glide_metal>  (281) 
-0

>  <r_i_glide_rewards>  (281) 
-1.2779

>  <r_i_glide_evdw>  (281) 
-24.7921

>  <r_i_glide_ecoul>  (281) 
-1.98287

>  <r_i_glide_erotb>  (281) 
0

>  <r_i_glide_esite>  (281) 
-0.0735021

>  <r_i_glide_emodel>  (281) 
-31.9747

>  <r_i_glide_energy>  (281) 
-26.7749

>  <r_i_glide_einternal>  (281) 
0

>  <r_i_glide_intrahb_reward>  (281) 
-0

>  <i_i_glide_confnum>  (281) 
1

>  <i_i_glide_posenum>  (281) 
16

>  <r_i_glide_eff_state_penalty>  (281) 
0

>  <ligand_id>  (281) 
81

>  <original_smiles>  (281) 
CC12CCC3C(CCC4C(C)(C)C(=O)CCC43C)(C1)c1ncnn1C2

>  <smiles>  (281) 
[H]c1nc2n(n1)C([H])([H])C1(C([H])([H])[H])C([H])([H])C([H])([H])C3([H])C2(C([H])([H])C([H])([H])C2([H])C(C([H])([H])[H])(C([H])([H])[H])C(=O)C([H])([H])C([H])([H])C23C([H])([H])[H])C1([H])[H]

$$$$
81:0:1
     RDKit          3D

 56 60  0  0  1  0  0  0  0  0999 V2000
    1.9574   -5.0188    5.4371 C   0  0  0  0  0  0  0  0  0  0  0  0
    2.8328   -5.7731    4.4163 C   0  0  2  0  0  0  0  0  0  0  0  0
    4.3125   -5.3732    4.6395 C   0  0  0  0  0  0  0  0  0  0  0  0
    5.2879   -5.9079    3.5632 C   0  0  0  0  0  0  0  0  0  0  0  0
    4.8449   -5.6550    2.0878 C   0  0  1  0  0  0  0  0  0  0  0  0
    3.3415   -6.0610    1.9272 C   0  0  2  0  0  0  0  0  0  0  0  0
    2.8559   -5.7035    0.5132 C   0  0  0  0  0  0  0  0  0  0  0  0
    3.1593   -4.2572    0.1145 C   0  0  0  0  0  0  0  0  0  0  0  0
    4.6868   -3.9975    0.0256 C   0  0  1  0  0  0  0  0  0  0  0  0
    5.0189   -2.5860   -0.6251 C   0  0  0  0  0  0  0  0  0  0  0  0
    6.4583   -2.5372   -1.1996 C   0  0  0  0  0  0  0  0  0  0  0  0
    4.0841   -2.2633   -1.8267 C   0  0  0  0  0  0  0  0  0  0  0  0
    4.8825   -1.4791    0.4391 C   0  0  0  0  0  0  0  0  0  0  0  0
    4.2936   -0.4212    0.2281 O   0  0  0  0  0  0  0  0  0  0  0  0
    5.5670   -1.7183    1.7736 C   0  0  0  0  0  0  0  0  0  0  0  0
    5.1577   -3.0755    2.3650 C   0  0  0  0  0  0  0  0  0  0  0  0
    5.3711   -4.2999    1.4247 C   0  0  1  0  0  0  0  0  0  0  0  0
    6.9027   -4.5089    1.2102 C   0  0  0  0  0  0  0  0  0  0  0  0
    2.4423   -5.3542    2.9801 C   0  0  0  0  0  0  0  0  0  0  0  0
    3.1866   -7.5587    2.1579 C   0  0  0  0  0  0  0  0  0  0  0  0
    3.4103   -8.5382    1.2853 N   0  0  0  0  0  0  0  0  0  0  0  0
    3.1554   -9.6300    2.0682 C   0  0  0  0  0  0  0  0  0  0  0  0
    2.8572   -9.3760    3.3415 N   0  0  0  0  0  0  0  0  0  0  0  0
    2.8993   -8.0283    3.3796 N   0  0  0  0  0  0  0  0  0  0  0  0
    2.6202   -7.2991    4.5981 C   0  0  0  0  0  0  0  0  0  0  0  0
    2.2210   -5.2804    6.4646 H   0  0  0  0  0  0  0  0  0  0  0  0
    0.8999   -5.2525    5.3016 H   0  0  0  0  0  0  0  0  0  0  0  0
    2.0655   -3.9374    5.3348 H   0  0  0  0  0  0  0  0  0  0  0  0
    4.3766   -4.2872    4.6756 H   0  0  0  0  0  0  0  0  0  0  0  0
    4.6515   -5.7086    5.6226 H   0  0  0  0  0  0  0  0  0  0  0  0
    6.2765   -5.5017    3.7630 H   0  0  0  0  0  0  0  0  0  0  0  0
    5.4039   -6.9826    3.7122 H   0  0  0  0  0  0  0  0  0  0  0  0
    5.3708   -6.4139    1.5066 H   0  0  0  0  0  0  0  0  0  0  0  0
    3.3745   -6.3369   -0.2051 H   0  0  0  0  0  0  0  0  0  0  0  0
    1.7920   -5.9203    0.4063 H   0  0  0  0  0  0  0  0  0  0  0  0
    2.6845   -4.1342   -0.8586 H   0  0  0  0  0  0  0  0  0  0  0  0
    2.6710   -3.5472    0.7833 H   0  0  0  0  0  0  0  0  0  0  0  0
    5.0502   -4.7430   -0.6844 H   0  0  0  0  0  0  0  0  0  0  0  0
    6.7261   -3.4629   -1.7070 H   0  0  0  0  0  0  0  0  0  0  0  0
    7.2198   -2.3343   -0.4502 H   0  0  0  0  0  0  0  0  0  0  0  0
    6.5642   -1.7415   -1.9330 H   0  0  0  0  0  0  0  0  0  0  0  0
    4.0602   -3.0847   -2.5444 H   0  0  0  0  0  0  0  0  0  0  0  0
    4.3995   -1.3671   -2.3651 H   0  0  0  0  0  0  0  0  0  0  0  0
    3.0578   -2.0619   -1.5092 H   0  0  0  0  0  0  0  0  0  0  0  0
    6.6432   -1.6549    1.6341 H   0  0  0  0  0  0  0  0  0  0  0  0
    5.3015   -0.9162    2.4603 H   0  0  0  0  0  0  0  0  0  0  0  0
    5.7085   -3.2078    3.2951 H   0  0  0  0  0  0  0  0  0  0  0  0
    4.1073   -2.9910    2.6321 H   0  0  0  0  0  0  0  0  0  0  0  0
    7.4698   -3.5820    1.2341 H   0  0  0  0  0  0  0  0  0  0  0  0
    7.1141   -5.0003    0.2590 H   0  0  0  0  0  0  0  0  0  0  0  0
    7.3648   -5.1297    1.9747 H   0  0  0  0  0  0  0  0  0  0  0  0
    1.4028   -5.6414    2.8144 H   0  0  0  0  0  0  0  0  0  0  0  0
    2.4630   -4.2734    2.8867 H   0  0  0  0  0  0  0  0  0  0  0  0
    3.1811  -10.6429    1.7010 H   0  0  0  0  0  0  0  0  0  0  0  0
    3.2330   -7.6948    5.4090 H   0  0  0  0  0  0  0  0  0  0  0  0
    1.5838   -7.5070    4.8634 H   0  0  0  0  0  0  0  0  0  0  0  0
  2  1  1  1
  1 26  1  0
  1 27  1  0
  1 28  1  0
  2 19  1  0
  2 25  1  0
  2  3  1  0
  3  4  1  0
  3 29  1  0
  3 30  1  0
  4  5  1  0
  4 31  1  0
  4 32  1  0
  5 17  1  0
  5  6  1  0
  5 33  1  6
  6  7  1  6
  6 19  1  0
  6 20  1  0
  7  8  1  0
  7 34  1  0
  7 35  1  0
  8  9  1  0
  8 36  1  0
  8 37  1  0
  9 17  1  0
  9 10  1  0
  9 38  1  6
 10 11  1  0
 10 12  1  0
 10 13  1  0
 11 39  1  0
 11 40  1  0
 11 41  1  0
 12 42  1  0
 12 43  1  0
 12 44  1  0
 13 14  2  0
 13 15  1  0
 15 16  1  0
 15 45  1  0
 15 46  1  0
 16 17  1  0
 16 47  1  0
 16 48  1  0
 17 18  1  6
 18 49  1  0
 18 50  1  0
 18 51  1  0
 19 52  1  0
 19 53  1  0
 20 24  1  0
 20 21  2  0
 21 22  1  0
 22 23  2  0
 22 54  1  0
 23 24  1  0
 24 25  1  0
 25 55  1  0
 25 56  1  0
M  END
>  <i_m_ct_stereo_status>  (282) 
1

>  <s_m_source_file>  (282) 
/var/tmp/pbs.5076255.sched01/tmprcd7yfff/907v12ihtf.sdf

>  <i_m_source_file_index>  (282) 
30

>  <i_lp_mmshare_version>  (282) 
48012

>  <i_f3d_flags>  (282) 
0

>  <s_epik_input>  (282) 
bjFbY0hdbmMybjFbQ0gyXVtDQF0oW0NIM10pKFtDSDJdMylbQ0gyXVtDSDJdW0NAQEhdKFtDQEBdMjM0KVtDQEBdNShbQ0gzXSlbQ0BASF0oW0NIMl1bQ0gyXTQpQyhbQ0gzXSkoW0NIM10pQyg9TylbQ0gyXVtDSDJdNQ==

>  <s_epik_cmdline>  (282) 
J2VwaWtfcHl0aG9uJywgJy1waHQnLCAnMi4wJywgJy1waCcsICc3LjAnLCAnLXRuJywgJzgnLCAnLW1hJywgJzIwMCcsICctaW1hZScsICc8aW5maWxlLm1hZT4nLCAnLW9tYWUnLCAnPG91dGZpbGUubWFlPic=

>  <r_lp_tautomer_probability>  (282) 
0.99995

>  <r_epik_Ionization_Penalty>  (282) 
0.0239247

>  <r_epik_Ionization_Penalty_Charging>  (282) 
0

>  <r_epik_Ionization_Penalty_Neutral>  (282) 
0.0239247

>  <r_epik_State_Penalty>  (282) 
0.0193911

>  <r_epik_Charging_Adjusted_Penalty>  (282) 
0.0193911

>  <i_epik_Tot_Q>  (282) 
0

>  <i_epik_Tot_abs_Q>  (282) 
0

>  <s_lp_Force_Field>  (282) 
OPLS3e

>  <r_lp_Energy>  (282) 
63.0465

>  <b_lp_Chiralities_Consistent>  (282) 
1

>  <s_lp_Variant>  (282) 
81:0-1

>  <s_i_glide_gridfile>  (282) 
pfpi4k_grid

>  <i_i_glide_lignum>  (282) 
30

>  <i_i_glide_rotatable_bonds>  (282) 
0

>  <r_i_docking_score>  (282) 
-2.85181

>  <r_i_glide_ligand_efficiency>  (282) 
-0.114072

>  <r_i_glide_ligand_efficiency_sa>  (282) 
-0.333549

>  <r_i_glide_ligand_efficiency_ln>  (282) 
-0.675964

>  <r_i_glide_gscore>  (282) 
-2.85181

>  <r_i_glide_lipo>  (282) 
-0.383527

>  <r_i_glide_hbond>  (282) 
0

>  <r_i_glide_metal>  (282) 
-0

>  <r_i_glide_rewards>  (282) 
-1.13093

>  <r_i_glide_evdw>  (282) 
-25.8589

>  <r_i_glide_ecoul>  (282) 
0.0432254

>  <r_i_glide_erotb>  (282) 
0

>  <r_i_glide_esite>  (282) 
-0.0508876

>  <r_i_glide_emodel>  (282) 
-30.3783

>  <r_i_glide_energy>  (282) 
-25.8157

>  <r_i_glide_einternal>  (282) 
0

>  <r_i_glide_intrahb_reward>  (282) 
-0

>  <i_i_glide_confnum>  (282) 
1

>  <i_i_glide_posenum>  (282) 
28

>  <r_i_glide_eff_state_penalty>  (282) 
0

>  <ligand_id>  (282) 
81

>  <original_smiles>  (282) 
CC12CCC3C(CCC4C(C)(C)C(=O)CCC43C)(C1)c1ncnn1C2

>  <smiles>  (282) 
[H]c1nc2n(n1)C([H])([H])C1(C([H])([H])[H])C([H])([H])C([H])([H])C3([H])C2(C([H])([H])C([H])([H])C2([H])C(C([H])([H])[H])(C([H])([H])[H])C(=O)C([H])([H])C([H])([H])C23C([H])([H])[H])C1([H])[H]

$$$$
81:0:2
     RDKit          3D

 56 60  0  0  1  0  0  0  0  0999 V2000
    1.9613   -2.9723    4.8934 C   0  0  0  0  0  0  0  0  0  0  0  0
    2.6974   -4.0962    4.1362 C   0  0  2  0  0  0  0  0  0  0  0  0
    4.2155   -3.7907    4.1463 C   0  0  0  0  0  0  0  0  0  0  0  0
    5.0603   -4.7370    3.2601 C   0  0  0  0  0  0  0  0  0  0  0  0
    4.5279   -4.9292    1.8081 C   0  0  1  0  0  0  0  0  0  0  0  0
    2.9907   -5.2161    1.8600 C   0  0  2  0  0  0  0  0  0  0  0  0
    2.4304   -5.2953    0.4359 C   0  0  0  0  0  0  0  0  0  0  0  0
    2.8078   -4.0803   -0.4183 C   0  0  0  0  0  0  0  0  0  0  0  0
    4.3385   -4.0199   -0.6669 C   0  0  1  0  0  0  0  0  0  0  0  0
    4.7206   -2.9426   -1.7661 C   0  0  0  0  0  0  0  0  0  0  0  0
    6.1027   -3.1935   -2.3956 C   0  0  0  0  0  0  0  0  0  0  0  0
    3.7268   -2.9237   -2.9656 C   0  0  0  0  0  0  0  0  0  0  0  0
    4.7580   -1.5546   -1.1342 C   0  0  0  0  0  0  0  0  0  0  0  0
    4.2721   -0.5931   -1.7127 O   0  0  0  0  0  0  0  0  0  0  0  0
    5.5126   -1.3942    0.1796 C   0  0  0  0  0  0  0  0  0  0  0  0
    5.0570   -2.4360    1.2124 C   0  0  0  0  0  0  0  0  0  0  0  0
    5.1036   -3.9127    0.7184 C   0  0  1  0  0  0  0  0  0  0  0  0
    6.5927   -4.3222    0.5104 C   0  0  0  0  0  0  0  0  0  0  0  0
    2.2321   -4.1242    2.6644 C   0  0  0  0  0  0  0  0  0  0  0  0
    2.7356   -6.5370    2.5706 C   0  0  0  0  0  0  0  0  0  0  0  0
    2.8016   -7.7584    2.0482 N   0  0  0  0  0  0  0  0  0  0  0  0
    2.5380   -8.5134    3.1546 C   0  0  0  0  0  0  0  0  0  0  0  0
    2.3624   -7.8408    4.2906 N   0  0  0  0  0  0  0  0  0  0  0  0
    2.5111   -6.5618    3.8887 N   0  0  0  0  0  0  0  0  0  0  0  0
    2.3833   -5.4551    4.8159 C   0  0  0  0  0  0  0  0  0  0  0  0
    2.2811   -2.9131    5.9363 H   0  0  0  0  0  0  0  0  0  0  0  0
    0.8817   -3.1336    4.8901 H   0  0  0  0  0  0  0  0  0  0  0  0
    2.1427   -1.9966    4.4374 H   0  0  0  0  0  0  0  0  0  0  0  0
    4.3646   -2.7624    3.8207 H   0  0  0  0  0  0  0  0  0  0  0  0
    4.6026   -3.8235    5.1672 H   0  0  0  0  0  0  0  0  0  0  0  0
    6.0886   -4.3874    3.2643 H   0  0  0  0  0  0  0  0  0  0  0  0
    5.1043   -5.7137    3.7444 H   0  0  0  0  0  0  0  0  0  0  0  0
    4.9490   -5.8796    1.4774 H   0  0  0  0  0  0  0  0  0  0  0  0
    2.8411   -6.1752   -0.0577 H   0  0  0  0  0  0  0  0  0  0  0  0
    1.3521   -5.4457    0.4516 H   0  0  0  0  0  0  0  0  0  0  0  0
    2.2705   -4.2241   -1.3555 H   0  0  0  0  0  0  0  0  0  0  0  0
    2.4284   -3.1460   -0.0004 H   0  0  0  0  0  0  0  0  0  0  0  0
    4.5901   -4.9868   -1.1087 H   0  0  0  0  0  0  0  0  0  0  0  0
    6.2079   -4.2538   -2.6025 H   0  0  0  0  0  0  0  0  0  0  0  0
    6.9449   -2.8548   -1.7929 H   0  0  0  0  0  0  0  0  0  0  0  0
    6.2093   -2.6793   -3.3499 H   0  0  0  0  0  0  0  0  0  0  0  0
    3.5875   -3.9157   -3.3911 H   0  0  0  0  0  0  0  0  0  0  0  0
    4.0733   -2.2748   -3.7733 H   0  0  0  0  0  0  0  0  0  0  0  0
    2.7476   -2.5304   -2.6814 H   0  0  0  0  0  0  0  0  0  0  0  0
    6.5787   -1.4814   -0.0109 H   0  0  0  0  0  0  0  0  0  0  0  0
    5.3584   -0.3902    0.5689 H   0  0  0  0  0  0  0  0  0  0  0  0
    5.6697   -2.3136    2.1060 H   0  0  0  0  0  0  0  0  0  0  0  0
    4.0399   -2.1690    1.4871 H   0  0  0  0  0  0  0  0  0  0  0  0
    7.2297   -3.4994    0.1954 H   0  0  0  0  0  0  0  0  0  0  0  0
    6.6772   -5.1110   -0.2359 H   0  0  0  0  0  0  0  0  0  0  0  0
    7.0655   -4.7101    1.4099 H   0  0  0  0  0  0  0  0  0  0  0  0
    1.1651   -4.3482    2.6552 H   0  0  0  0  0  0  0  0  0  0  0  0
    2.3260   -3.1377    2.2204 H   0  0  0  0  0  0  0  0  0  0  0  0
    2.4704   -9.5896    3.1380 H   0  0  0  0  0  0  0  0  0  0  0  0
    3.0253   -5.6263    5.6799 H   0  0  0  0  0  0  0  0  0  0  0  0
    1.3569   -5.4629    5.1808 H   0  0  0  0  0  0  0  0  0  0  0  0
  2  1  1  1
  1 26  1  0
  1 27  1  0
  1 28  1  0
  2 19  1  0
  2 25  1  0
  2  3  1  0
  3  4  1  0
  3 29  1  0
  3 30  1  0
  4  5  1  0
  4 31  1  0
  4 32  1  0
  5 17  1  0
  5  6  1  0
  5 33  1  6
  6  7  1  6
  6 19  1  0
  6 20  1  0
  7  8  1  0
  7 34  1  0
  7 35  1  0
  8  9  1  0
  8 36  1  0
  8 37  1  0
  9 17  1  0
  9 10  1  0
  9 38  1  6
 10 11  1  0
 10 12  1  0
 10 13  1  0
 11 39  1  0
 11 40  1  0
 11 41  1  0
 12 42  1  0
 12 43  1  0
 12 44  1  0
 13 14  2  0
 13 15  1  0
 15 16  1  0
 15 45  1  0
 15 46  1  0
 16 17  1  0
 16 47  1  0
 16 48  1  0
 17 18  1  6
 18 49  1  0
 18 50  1  0
 18 51  1  0
 19 52  1  0
 19 53  1  0
 20 24  1  0
 20 21  2  0
 21 22  1  0
 22 23  2  0
 22 54  1  0
 23 24  1  0
 24 25  1  0
 25 55  1  0
 25 56  1  0
M  END
>  <i_m_ct_stereo_status>  (283) 
1

>  <s_m_source_file>  (283) 
/var/tmp/pbs.5076255.sched01/tmprcd7yfff/907v12ihtf.sdf

>  <i_m_source_file_index>  (283) 
30

>  <i_lp_mmshare_version>  (283) 
48012

>  <i_f3d_flags>  (283) 
0

>  <s_epik_input>  (283) 
bjFbY0hdbmMybjFbQ0gyXVtDQF0oW0NIM10pKFtDSDJdMylbQ0gyXVtDSDJdW0NAQEhdKFtDQEBdMjM0KVtDQEBdNShbQ0gzXSlbQ0BASF0oW0NIMl1bQ0gyXTQpQyhbQ0gzXSkoW0NIM10pQyg9TylbQ0gyXVtDSDJdNQ==

>  <s_epik_cmdline>  (283) 
J2VwaWtfcHl0aG9uJywgJy1waHQnLCAnMi4wJywgJy1waCcsICc3LjAnLCAnLXRuJywgJzgnLCAnLW1hJywgJzIwMCcsICctaW1hZScsICc8aW5maWxlLm1hZT4nLCAnLW9tYWUnLCAnPG91dGZpbGUubWFlPic=

>  <r_lp_tautomer_probability>  (283) 
0.99995

>  <r_epik_Ionization_Penalty>  (283) 
0.0239247

>  <r_epik_Ionization_Penalty_Charging>  (283) 
0

>  <r_epik_Ionization_Penalty_Neutral>  (283) 
0.0239247

>  <r_epik_State_Penalty>  (283) 
0.0193911

>  <r_epik_Charging_Adjusted_Penalty>  (283) 
0.0193911

>  <i_epik_Tot_Q>  (283) 
0

>  <i_epik_Tot_abs_Q>  (283) 
0

>  <s_lp_Force_Field>  (283) 
OPLS3e

>  <r_lp_Energy>  (283) 
63.0465

>  <b_lp_Chiralities_Consistent>  (283) 
1

>  <s_lp_Variant>  (283) 
81:0-1

>  <s_i_glide_gridfile>  (283) 
pfpi4k_grid

>  <i_i_glide_lignum>  (283) 
30

>  <i_i_glide_rotatable_bonds>  (283) 
0

>  <r_i_docking_score>  (283) 
-2.84557

>  <r_i_glide_ligand_efficiency>  (283) 
-0.113823

>  <r_i_glide_ligand_efficiency_sa>  (283) 
-0.33282

>  <r_i_glide_ligand_efficiency_ln>  (283) 
-0.674486

>  <r_i_glide_gscore>  (283) 
-2.84557

>  <r_i_glide_lipo>  (283) 
-0.539814

>  <r_i_glide_hbond>  (283) 
0

>  <r_i_glide_metal>  (283) 
-0

>  <r_i_glide_rewards>  (283) 
-1.08075

>  <r_i_glide_evdw>  (283) 
-24.4079

>  <r_i_glide_ecoul>  (283) 
0.288269

>  <r_i_glide_erotb>  (283) 
0

>  <r_i_glide_esite>  (283) 
-0.0478556

>  <r_i_glide_emodel>  (283) 
-28.6118

>  <r_i_glide_energy>  (283) 
-24.1196

>  <r_i_glide_einternal>  (283) 
0

>  <r_i_glide_intrahb_reward>  (283) 
-0

>  <i_i_glide_confnum>  (283) 
1

>  <i_i_glide_posenum>  (283) 
33

>  <r_i_glide_eff_state_penalty>  (283) 
0

>  <ligand_id>  (283) 
81

>  <original_smiles>  (283) 
CC12CCC3C(CCC4C(C)(C)C(=O)CCC43C)(C1)c1ncnn1C2

>  <smiles>  (283) 
[H]c1nc2n(n1)C([H])([H])C1(C([H])([H])[H])C([H])([H])C([H])([H])C3([H])C2(C([H])([H])C([H])([H])C2([H])C(C([H])([H])[H])(C([H])([H])[H])C(=O)C([H])([H])C([H])([H])C23C([H])([H])[H])C1([H])[H]

$$$$
81:1:0
     RDKit          3D

 57 61  0  0  1  0  0  0  0  0999 V2000
    7.7709   -3.3026   -0.1853 C   0  0  0  0  0  0  0  0  0  0  0  0
    6.3264   -2.8014   -0.3910 C   0  0  2  0  0  0  0  0  0  0  0  0
    6.1410   -1.4889    0.4148 C   0  0  0  0  0  0  0  0  0  0  0  0
    4.6874   -0.9634    0.4567 C   0  0  0  0  0  0  0  0  0  0  0  0
    3.6162   -2.0265    0.8596 C   0  0  1  0  0  0  0  0  0  0  0  0
    3.8563   -3.3405    0.0349 C   0  0  2  0  0  0  0  0  0  0  0  0
    2.8761   -4.4292    0.4937 C   0  0  0  0  0  0  0  0  0  0  0  0
    2.8823   -4.6339    2.0131 C   0  0  0  0  0  0  0  0  0  0  0  0
    2.3823   -3.3775    2.7747 C   0  0  1  0  0  0  0  0  0  0  0  0
    2.1364   -3.6592    4.3190 C   0  0  0  0  0  0  0  0  0  0  0  0
    1.1505   -2.6408    4.9532 C   0  0  0  0  0  0  0  0  0  0  0  0
    1.4935   -5.0548    4.5664 C   0  0  0  0  0  0  0  0  0  0  0  0
    3.4754   -3.5738    5.0774 C   0  0  0  0  0  0  0  0  0  0  0  0
    3.8237   -4.4137    5.9063 O   0  0  0  0  0  0  0  0  0  0  0  0
    4.3484   -2.3606    4.7958 C   0  0  0  0  0  0  0  0  0  0  0  0
    4.5819   -2.1843    3.2883 C   0  0  0  0  0  0  0  0  0  0  0  0
    3.2883   -2.1258    2.4209 C   0  0  1  0  0  0  0  0  0  0  0  0
    2.5072   -0.8181    2.7657 C   0  0  0  0  0  0  0  0  0  0  0  0
    5.3221   -3.8373    0.1720 C   0  0  0  0  0  0  0  0  0  0  0  0
    3.6575   -3.0641   -1.4432 C   0  0  0  0  0  0  0  0  0  0  0  0
    2.5280   -3.0533   -2.1685 N   0  0  0  0  0  0  0  0  0  0  0  0
    2.9384   -2.6795   -3.4442 C   0  0  0  0  0  0  0  0  0  0  0  0
    4.2452   -2.4614   -3.4945 N   0  0  0  0  0  0  0  0  0  0  0  0
    4.6579   -2.6969   -2.2568 N   0  0  0  0  0  0  0  0  0  0  0  0
    6.0770   -2.5964   -1.9115 C   0  0  0  0  0  0  0  0  0  0  0  0
    8.5087   -2.5883   -0.5579 H   0  0  0  0  0  0  0  0  0  0  0  0
    7.9422   -4.2442   -0.7054 H   0  0  0  0  0  0  0  0  0  0  0  0
    7.9844   -3.4777    0.8709 H   0  0  0  0  0  0  0  0  0  0  0  0
    6.4940   -1.6552    1.4307 H   0  0  0  0  0  0  0  0  0  0  0  0
    6.7893   -0.6983    0.0351 H   0  0  0  0  0  0  0  0  0  0  0  0
    4.6546   -0.0952    1.1100 H   0  0  0  0  0  0  0  0  0  0  0  0
    4.4350   -0.5655   -0.5280 H   0  0  0  0  0  0  0  0  0  0  0  0
    2.6779   -1.6406    0.4556 H   0  0  0  0  0  0  0  0  0  0  0  0
    1.8657   -4.1459    0.1997 H   0  0  0  0  0  0  0  0  0  0  0  0
    3.0874   -5.3716   -0.0194 H   0  0  0  0  0  0  0  0  0  0  0  0
    2.2245   -5.4852    2.1816 H   0  0  0  0  0  0  0  0  0  0  0  0
    3.8670   -4.9426    2.3653 H   0  0  0  0  0  0  0  0  0  0  0  0
    1.3974   -3.1788    2.3575 H   0  0  0  0  0  0  0  0  0  0  0  0
    0.3140   -2.4187    4.2888 H   0  0  0  0  0  0  0  0  0  0  0  0
    1.6189   -1.6952    5.2212 H   0  0  0  0  0  0  0  0  0  0  0  0
    0.7233   -3.0115    5.8883 H   0  0  0  0  0  0  0  0  0  0  0  0
    0.6023   -5.1975    3.9541 H   0  0  0  0  0  0  0  0  0  0  0  0
    1.1969   -5.1926    5.6098 H   0  0  0  0  0  0  0  0  0  0  0  0
    2.1870   -5.8702    4.3530 H   0  0  0  0  0  0  0  0  0  0  0  0
    3.8769   -1.4814    5.2285 H   0  0  0  0  0  0  0  0  0  0  0  0
    5.3008   -2.4799    5.3097 H   0  0  0  0  0  0  0  0  0  0  0  0
    5.1742   -1.2815    3.1475 H   0  0  0  0  0  0  0  0  0  0  0  0
    5.1997   -3.0213    2.9725 H   0  0  0  0  0  0  0  0  0  0  0  0
    2.6303   -0.5047    3.7973 H   0  0  0  0  0  0  0  0  0  0  0  0
    1.4361   -0.9232    2.5824 H   0  0  0  0  0  0  0  0  0  0  0  0
    2.8234    0.0416    2.1788 H   0  0  0  0  0  0  0  0  0  0  0  0
    5.4391   -4.7689   -0.3858 H   0  0  0  0  0  0  0  0  0  0  0  0
    5.5734   -4.0805    1.1988 H   0  0  0  0  0  0  0  0  0  0  0  0
    2.2785   -2.5835   -4.2963 H   0  0  0  0  0  0  0  0  0  0  0  0
    6.4393   -1.6263   -2.2422 H   0  0  0  0  0  0  0  0  0  0  0  0
    6.5947   -3.3582   -2.4982 H   0  0  0  0  0  0  0  0  0  0  0  0
    1.5722   -3.2532   -1.8979 H   0  0  0  0  0  0  0  0  0  0  0  0
  2  1  1  6
  1 26  1  0
  1 27  1  0
  1 28  1  0
  2 19  1  0
  2 25  1  0
  2  3  1  0
  3  4  1  0
  3 29  1  0
  3 30  1  0
  4  5  1  0
  4 31  1  0
  4 32  1  0
  5 17  1  0
  5  6  1  0
  5 33  1  6
  6  7  1  1
  6 19  1  0
  6 20  1  0
  7  8  1  0
  7 34  1  0
  7 35  1  0
  8  9  1  0
  8 36  1  0
  8 37  1  0
  9 17  1  0
  9 10  1  0
  9 38  1  6
 10 11  1  0
 10 12  1  0
 10 13  1  0
 11 39  1  0
 11 40  1  0
 11 41  1  0
 12 42  1  0
 12 43  1  0
 12 44  1  0
 13 14  2  0
 13 15  1  0
 15 16  1  0
 15 45  1  0
 15 46  1  0
 16 17  1  0
 16 47  1  0
 16 48  1  0
 17 18  1  1
 18 49  1  0
 18 50  1  0
 18 51  1  0
 19 52  1  0
 19 53  1  0
 20 24  1  0
 20 21  2  0
 21 22  1  0
 21 57  1  0
 22 23  2  0
 22 54  1  0
 23 24  1  0
 24 25  1  0
 25 55  1  0
 25 56  1  0
M  CHG  1  21   1
M  END
>  <i_m_ct_stereo_status>  (284) 
1

>  <s_m_source_file>  (284) 
/var/tmp/pbs.5076255.sched01/tmprcd7yfff/907v12ihtf.sdf

>  <i_m_source_file_index>  (284) 
31

>  <i_lp_mmshare_version>  (284) 
48012

>  <i_f3d_flags>  (284) 
0

>  <s_epik_input>  (284) 
bjFbY0hdbmMybjFbQ0gyXVtDQF0oW0NIM10pKFtDSDJdMylbQ0gyXVtDSDJdW0NAQEhdKFtDQEBdMjM0KVtDQEBdNShbQ0gzXSlbQ0BASF0oW0NIMl1bQ0gyXTQpQyhbQ0gzXSkoW0NIM10pQyg9TylbQ0gyXVtDSDJdNQ==

>  <s_epik_cmdline>  (284) 
J2VwaWtfcHl0aG9uJywgJy1waHQnLCAnMi4wJywgJy1waCcsICc3LjAnLCAnLXRuJywgJzgnLCAnLW1hJywgJzIwMCcsICctaW1hZScsICc8aW5maWxlLm1hZT4nLCAnLW9tYWUnLCAnPG91dGZpbGUubWFlPic=

>  <r_lp_tautomer_probability>  (284) 
0.999941

>  <r_epik_Ionization_Penalty>  (284) 
1.91346

>  <r_epik_Ionization_Penalty_Charging>  (284) 
1.91346

>  <r_epik_Ionization_Penalty_Neutral>  (284) 
1.27335e-07

>  <r_epik_State_Penalty>  (284) 
2.03568

>  <r_epik_Charging_Adjusted_Penalty>  (284) 
3.94914

>  <i_epik_Tot_Q>  (284) 
1

>  <i_epik_Tot_abs_Q>  (284) 
1

>  <s_lp_Force_Field>  (284) 
OPLS3e

>  <r_lp_Energy>  (284) 
70.3409

>  <b_lp_Chiralities_Consistent>  (284) 
1

>  <s_lp_Variant>  (284) 
81:0-2

>  <s_i_glide_gridfile>  (284) 
pfpi4k_grid

>  <i_i_glide_lignum>  (284) 
31

>  <i_i_glide_rotatable_bonds>  (284) 
0

>  <r_i_docking_score>  (284) 
-4.01664

>  <r_i_glide_ligand_efficiency>  (284) 
-0.160666

>  <r_i_glide_ligand_efficiency_sa>  (284) 
-0.469789

>  <r_i_glide_ligand_efficiency_ln>  (284) 
-0.952064

>  <r_i_glide_gscore>  (284) 
-4.01664

>  <r_i_glide_lipo>  (284) 
-0.497301

>  <r_i_glide_hbond>  (284) 
0

>  <r_i_glide_metal>  (284) 
-0

>  <r_i_glide_rewards>  (284) 
-1.41153

>  <r_i_glide_evdw>  (284) 
-27.6906

>  <r_i_glide_ecoul>  (284) 
-4.77596

>  <r_i_glide_erotb>  (284) 
0

>  <r_i_glide_esite>  (284) 
-0.00688574

>  <r_i_glide_emodel>  (284) 
-41.3241

>  <r_i_glide_energy>  (284) 
-32.4666

>  <r_i_glide_einternal>  (284) 
0

>  <r_i_glide_intrahb_reward>  (284) 
-0

>  <i_i_glide_confnum>  (284) 
2

>  <i_i_glide_posenum>  (284) 
7

>  <r_i_glide_eff_state_penalty>  (284) 
0

>  <ligand_id>  (284) 
81

>  <original_smiles>  (284) 
CC12CCC3C(CCC4C(C)(C)C(=O)CCC43C)(C1)c1ncnn1C2

>  <smiles>  (284) 
[H]c1nn2c([n+]1[H])C13C([H])([H])C([H])([H])C4([H])C(C([H])([H])[H])(C([H])([H])[H])C(=O)C([H])([H])C([H])([H])C4(C([H])([H])[H])C1([H])C([H])([H])C([H])([H])C(C([H])([H])[H])(C2([H])[H])C3([H])[H]

$$$$
81:1:1
     RDKit          3D

 57 61  0  0  1  0  0  0  0  0999 V2000
    7.8230   -3.4537    0.2038 C   0  0  0  0  0  0  0  0  0  0  0  0
    6.4640   -2.8468   -0.2007 C   0  0  2  0  0  0  0  0  0  0  0  0
    6.4024   -1.3892    0.3167 C   0  0  0  0  0  0  0  0  0  0  0  0
    5.0342   -0.6986    0.1290 C   0  0  0  0  0  0  0  0  0  0  0  0
    3.8158   -1.5120    0.6584 C   0  0  1  0  0  0  0  0  0  0  0  0
    3.9285   -2.9913    0.1505 C   0  0  2  0  0  0  0  0  0  0  0  0
    2.7943   -3.8322    0.7462 C   0  0  0  0  0  0  0  0  0  0  0  0
    2.7016   -3.6984    2.2696 C   0  0  0  0  0  0  0  0  0  0  0  0
    2.3207   -2.2599    2.7077 C   0  0  1  0  0  0  0  0  0  0  0  0
    1.9711   -2.1726    4.2528 C   0  0  0  0  0  0  0  0  0  0  0  0
    1.0958   -0.9367    4.5887 C   0  0  0  0  0  0  0  0  0  0  0  0
    1.1456   -3.3979    4.7406 C   0  0  0  0  0  0  0  0  0  0  0  0
    3.2692   -2.0770    5.0806 C   0  0  0  0  0  0  0  0  0  0  0  0
    3.4655   -2.7514    6.0877 O   0  0  0  0  0  0  0  0  0  0  0  0
    4.3057   -1.0615    4.6179 C   0  0  0  0  0  0  0  0  0  0  0  0
    4.6338   -1.2442    3.1299 C   0  0  0  0  0  0  0  0  0  0  0  0
    3.3996   -1.2278    2.1734 C   0  0  1  0  0  0  0  0  0  0  0  0
    2.7799    0.2035    2.1748 C   0  0  0  0  0  0  0  0  0  0  0  0
    5.3103   -3.6157    0.4936 C   0  0  0  0  0  0  0  0  0  0  0  0
    3.8421   -3.0212   -1.3588 C   0  0  0  0  0  0  0  0  0  0  0  0
    2.7559   -3.0404   -2.1516 N   0  0  0  0  0  0  0  0  0  0  0  0
    3.2713   -3.0039   -3.4429 C   0  0  0  0  0  0  0  0  0  0  0  0
    4.5902   -2.9433   -3.4470 N   0  0  0  0  0  0  0  0  0  0  0  0
    4.9187   -2.9444   -2.1620 N   0  0  0  0  0  0  0  0  0  0  0  0
    6.3200   -2.9312   -1.7464 C   0  0  0  0  0  0  0  0  0  0  0  0
    8.6605   -2.9161   -0.2494 H   0  0  0  0  0  0  0  0  0  0  0  0
    7.8952   -4.4993   -0.0960 H   0  0  0  0  0  0  0  0  0  0  0  0
    7.9599   -3.4250    1.2833 H   0  0  0  0  0  0  0  0  0  0  0  0
    6.6796   -1.3699    1.3690 H   0  0  0  0  0  0  0  0  0  0  0  0
    7.1643   -0.7867   -0.1683 H   0  0  0  0  0  0  0  0  0  0  0  0
    5.0813    0.2859    0.5868 H   0  0  0  0  0  0  0  0  0  0  0  0
    4.8835   -0.4912   -0.9336 H   0  0  0  0  0  0  0  0  0  0  0  0
    2.9663   -1.1142    0.1030 H   0  0  0  0  0  0  0  0  0  0  0  0
    1.8449   -3.5002    0.3212 H   0  0  0  0  0  0  0  0  0  0  0  0
    2.9174   -4.8818    0.4567 H   0  0  0  0  0  0  0  0  0  0  0  0
    1.9342   -4.4143    2.5610 H   0  0  0  0  0  0  0  0  0  0  0  0
    3.6210   -4.0300    2.7533 H   0  0  0  0  0  0  0  0  0  0  0  0
    1.3861   -2.0534    2.1820 H   0  0  0  0  0  0  0  0  0  0  0  0
    0.3277   -0.7698    3.8323 H   0  0  0  0  0  0  0  0  0  0  0  0
    1.6667   -0.0160    4.6906 H   0  0  0  0  0  0  0  0  0  0  0  0
    0.5794   -1.0486    5.5463 H   0  0  0  0  0  0  0  0  0  0  0  0
    0.2720   -3.5657    4.1082 H   0  0  0  0  0  0  0  0  0  0  0  0
    0.7857   -3.2679    5.7653 H   0  0  0  0  0  0  0  0  0  0  0  0
    1.7405   -4.3134    4.7567 H   0  0  0  0  0  0  0  0  0  0  0  0
    3.9314   -0.0617    4.8204 H   0  0  0  0  0  0  0  0  0  0  0  0
    5.2096   -1.1743    5.2145 H   0  0  0  0  0  0  0  0  0  0  0  0
    5.3429   -0.4633    2.8485 H   0  0  0  0  0  0  0  0  0  0  0  0
    5.1590   -2.1927    3.0432 H   0  0  0  0  0  0  0  0  0  0  0  0
    2.8905    0.7127    3.1257 H   0  0  0  0  0  0  0  0  0  0  0  0
    1.7168    0.1811    1.9320 H   0  0  0  0  0  0  0  0  0  0  0  0
    3.2370    0.8729    1.4491 H   0  0  0  0  0  0  0  0  0  0  0  0
    5.3403   -4.6539    0.1518 H   0  0  0  0  0  0  0  0  0  0  0  0
    5.4827   -3.6482    1.5636 H   0  0  0  0  0  0  0  0  0  0  0  0
    2.6598   -3.0257   -4.3368 H   0  0  0  0  0  0  0  0  0  0  0  0
    6.8339   -2.1164   -2.2560 H   0  0  0  0  0  0  0  0  0  0  0  0
    6.7535   -3.8449   -2.1206 H   0  0  0  0  0  0  0  0  0  0  0  0
    1.7735   -3.0660   -1.9043 H   0  0  0  0  0  0  0  0  0  0  0  0
  2  1  1  6
  1 26  1  0
  1 27  1  0
  1 28  1  0
  2 19  1  0
  2 25  1  0
  2  3  1  0
  3  4  1  0
  3 29  1  0
  3 30  1  0
  4  5  1  0
  4 31  1  0
  4 32  1  0
  5 17  1  0
  5  6  1  0
  5 33  1  6
  6  7  1  1
  6 19  1  0
  6 20  1  0
  7  8  1  0
  7 34  1  0
  7 35  1  0
  8  9  1  0
  8 36  1  0
  8 37  1  0
  9 17  1  0
  9 10  1  0
  9 38  1  6
 10 11  1  0
 10 12  1  0
 10 13  1  0
 11 39  1  0
 11 40  1  0
 11 41  1  0
 12 42  1  0
 12 43  1  0
 12 44  1  0
 13 14  2  0
 13 15  1  0
 15 16  1  0
 15 45  1  0
 15 46  1  0
 16 17  1  0
 16 47  1  0
 16 48  1  0
 17 18  1  6
 18 49  1  0
 18 50  1  0
 18 51  1  0
 19 52  1  0
 19 53  1  0
 20 24  1  0
 20 21  2  0
 21 22  1  0
 21 57  1  0
 22 23  2  0
 22 54  1  0
 23 24  1  0
 24 25  1  0
 25 55  1  0
 25 56  1  0
M  CHG  1  21   1
M  END
>  <i_m_ct_stereo_status>  (285) 
1

>  <s_m_source_file>  (285) 
/var/tmp/pbs.5076255.sched01/tmprcd7yfff/907v12ihtf.sdf

>  <i_m_source_file_index>  (285) 
31

>  <i_lp_mmshare_version>  (285) 
48012

>  <i_f3d_flags>  (285) 
0

>  <s_epik_input>  (285) 
bjFbY0hdbmMybjFbQ0gyXVtDQF0oW0NIM10pKFtDSDJdMylbQ0gyXVtDSDJdW0NAQEhdKFtDQEBdMjM0KVtDQEBdNShbQ0gzXSlbQ0BASF0oW0NIMl1bQ0gyXTQpQyhbQ0gzXSkoW0NIM10pQyg9TylbQ0gyXVtDSDJdNQ==

>  <s_epik_cmdline>  (285) 
J2VwaWtfcHl0aG9uJywgJy1waHQnLCAnMi4wJywgJy1waCcsICc3LjAnLCAnLXRuJywgJzgnLCAnLW1hJywgJzIwMCcsICctaW1hZScsICc8aW5maWxlLm1hZT4nLCAnLW9tYWUnLCAnPG91dGZpbGUubWFlPic=

>  <r_lp_tautomer_probability>  (285) 
0.999941

>  <r_epik_Ionization_Penalty>  (285) 
1.91346

>  <r_epik_Ionization_Penalty_Charging>  (285) 
1.91346

>  <r_epik_Ionization_Penalty_Neutral>  (285) 
1.27335e-07

>  <r_epik_State_Penalty>  (285) 
2.03568

>  <r_epik_Charging_Adjusted_Penalty>  (285) 
3.94914

>  <i_epik_Tot_Q>  (285) 
1

>  <i_epik_Tot_abs_Q>  (285) 
1

>  <s_lp_Force_Field>  (285) 
OPLS3e

>  <r_lp_Energy>  (285) 
70.3409

>  <b_lp_Chiralities_Consistent>  (285) 
1

>  <s_lp_Variant>  (285) 
81:0-2

>  <s_i_glide_gridfile>  (285) 
pfpi4k_grid

>  <i_i_glide_lignum>  (285) 
31

>  <i_i_glide_rotatable_bonds>  (285) 
0

>  <r_i_docking_score>  (285) 
-3.96995

>  <r_i_glide_ligand_efficiency>  (285) 
-0.158798

>  <r_i_glide_ligand_efficiency_sa>  (285) 
-0.464328

>  <r_i_glide_ligand_efficiency_ln>  (285) 
-0.940997

>  <r_i_glide_gscore>  (285) 
-3.96995

>  <r_i_glide_lipo>  (285) 
-0.4833

>  <r_i_glide_hbond>  (285) 
0

>  <r_i_glide_metal>  (285) 
-0

>  <r_i_glide_rewards>  (285) 
-1.42613

>  <r_i_glide_evdw>  (285) 
-28.0986

>  <r_i_glide_ecoul>  (285) 
-4.2634

>  <r_i_glide_erotb>  (285) 
0

>  <r_i_glide_esite>  (285) 
-0.0160771

>  <r_i_glide_emodel>  (285) 
-41.1015

>  <r_i_glide_energy>  (285) 
-32.362

>  <r_i_glide_einternal>  (285) 
0

>  <r_i_glide_intrahb_reward>  (285) 
-0

>  <i_i_glide_confnum>  (285) 
1

>  <i_i_glide_posenum>  (285) 
4

>  <r_i_glide_eff_state_penalty>  (285) 
0

>  <ligand_id>  (285) 
81

>  <original_smiles>  (285) 
CC12CCC3C(CCC4C(C)(C)C(=O)CCC43C)(C1)c1ncnn1C2

>  <smiles>  (285) 
[H]c1nn2c([n+]1[H])C13C([H])([H])C([H])([H])C4([H])C(C([H])([H])[H])(C([H])([H])[H])C(=O)C([H])([H])C([H])([H])C4(C([H])([H])[H])C1([H])C([H])([H])C([H])([H])C(C([H])([H])[H])(C2([H])[H])C3([H])[H]

$$$$
81:1:2
     RDKit          3D

 57 61  0  0  1  0  0  0  0  0999 V2000
    3.8181    0.1172    3.8343 C   0  0  0  0  0  0  0  0  0  0  0  0
    4.3268   -1.2554    3.3596 C   0  0  2  0  0  0  0  0  0  0  0  0
    5.6456   -1.0426    2.5804 C   0  0  0  0  0  0  0  0  0  0  0  0
    6.1657   -2.3073    1.8477 C   0  0  0  0  0  0  0  0  0  0  0  0
    5.1358   -3.0897    1.0171 C   0  0  1  0  0  0  0  0  0  0  0  0
    3.8303   -3.2681    1.8563 C   0  0  2  0  0  0  0  0  0  0  0  0
    2.7865   -3.9552    0.9654 C   0  0  0  0  0  0  0  0  0  0  0  0
    2.6133   -3.2746   -0.3898 C   0  0  0  0  0  0  0  0  0  0  0  0
    3.8704   -3.3421   -1.2667 C   0  0  1  0  0  0  0  0  0  0  0  0
    3.6028   -2.8259   -2.7344 C   0  0  0  0  0  0  0  0  0  0  0  0
    4.6288   -3.4418   -3.7051 C   0  0  0  0  0  0  0  0  0  0  0  0
    2.2162   -3.1981   -3.3061 C   0  0  0  0  0  0  0  0  0  0  0  0
    3.7271   -1.3109   -2.8162 C   0  0  0  0  0  0  0  0  0  0  0  0
    3.0344   -0.6119   -3.5441 O   0  0  0  0  0  0  0  0  0  0  0  0
    4.8894   -0.6833   -2.1221 C   0  0  0  0  0  0  0  0  0  0  0  0
    5.0334   -1.1271   -0.6726 C   0  0  0  0  0  0  0  0  0  0  0  0
    5.0827   -2.6707   -0.5074 C   0  0  1  0  0  0  0  0  0  0  0  0
    6.4079   -3.1981   -1.1297 C   0  0  0  0  0  0  0  0  0  0  0  0
    3.3138   -1.8957    2.3746 C   0  0  0  0  0  0  0  0  0  0  0  0
    4.0833   -4.1073    3.0589 C   0  0  0  0  0  0  0  0  0  0  0  0
    4.0721   -5.4481    3.1815 N   0  0  0  0  0  0  0  0  0  0  0  0
    4.4082   -5.6536    4.5147 C   0  0  0  0  0  0  0  0  0  0  0  0
    4.6184   -4.5149    5.1569 N   0  0  0  0  0  0  0  0  0  0  0  0
    4.4196   -3.5943    4.2559 N   0  0  0  0  0  0  0  0  0  0  0  0
    4.5197   -2.1780    4.5941 C   0  0  0  0  0  0  0  0  0  0  0  0
    4.5236    0.5964    4.5169 H   0  0  0  0  0  0  0  0  0  0  0  0
    2.8633    0.0289    4.3535 H   0  0  0  0  0  0  0  0  0  0  0  0
    3.6670    0.7947    2.9909 H   0  0  0  0  0  0  0  0  0  0  0  0
    5.5007   -0.2455    1.8538 H   0  0  0  0  0  0  0  0  0  0  0  0
    6.4168   -0.6541    3.2509 H   0  0  0  0  0  0  0  0  0  0  0  0
    7.0506   -2.0363    1.2748 H   0  0  0  0  0  0  0  0  0  0  0  0
    6.5064   -3.0247    2.5706 H   0  0  0  0  0  0  0  0  0  0  0  0
    5.5403   -4.1040    0.9631 H   0  0  0  0  0  0  0  0  0  0  0  0
    3.0679   -4.9922    0.7687 H   0  0  0  0  0  0  0  0  0  0  0  0
    1.8450   -3.9729    1.5081 H   0  0  0  0  0  0  0  0  0  0  0  0
    1.7691   -3.7522   -0.8795 H   0  0  0  0  0  0  0  0  0  0  0  0
    2.3394   -2.2472   -0.2089 H   0  0  0  0  0  0  0  0  0  0  0  0
    4.0763   -4.4086   -1.3559 H   0  0  0  0  0  0  0  0  0  0  0  0
    4.8491   -4.4894   -3.5010 H   0  0  0  0  0  0  0  0  0  0  0  0
    5.5798   -2.9075   -3.7026 H   0  0  0  0  0  0  0  0  0  0  0  0
    4.2747   -3.3879   -4.7225 H   0  0  0  0  0  0  0  0  0  0  0  0
    2.0327   -4.2523   -3.1863 H   0  0  0  0  0  0  0  0  0  0  0  0
    2.1274   -2.9948   -4.3684 H   0  0  0  0  0  0  0  0  0  0  0  0
    1.4133   -2.6668   -2.8121 H   0  0  0  0  0  0  0  0  0  0  0  0
    5.7898   -0.9193   -2.6826 H   0  0  0  0  0  0  0  0  0  0  0  0
    4.7337    0.3890   -2.2211 H   0  0  0  0  0  0  0  0  0  0  0  0
    5.9313   -0.6620   -0.2639 H   0  0  0  0  0  0  0  0  0  0  0  0
    4.1819   -0.7167   -0.1309 H   0  0  0  0  0  0  0  0  0  0  0  0
    6.7509   -2.6380   -1.9942 H   0  0  0  0  0  0  0  0  0  0  0  0
    6.2536   -4.2271   -1.4475 H   0  0  0  0  0  0  0  0  0  0  0  0
    7.2583   -3.2086   -0.4508 H   0  0  0  0  0  0  0  0  0  0  0  0
    2.3703   -2.0374    2.9060 H   0  0  0  0  0  0  0  0  0  0  0  0
    3.0942   -1.1950    1.5759 H   0  0  0  0  0  0  0  0  0  0  0  0
    4.4891   -6.6353    5.0045 H   0  0  0  0  0  0  0  0  0  0  0  0
    5.4757   -2.0055    5.0996 H   0  0  0  0  0  0  0  0  0  0  0  0
    3.7378   -1.9887    5.3368 H   0  0  0  0  0  0  0  0  0  0  0  0
    3.8532   -6.1622    2.5034 H   0  0  0  0  0  0  0  0  0  0  0  0
  2  1  1  1
  1 26  1  0
  1 27  1  0
  1 28  1  0
  2 19  1  0
  2 25  1  0
  2  3  1  0
  3  4  1  0
  3 29  1  0
  3 30  1  0
  4  5  1  0
  4 31  1  0
  4 32  1  0
  5 17  1  0
  5  6  1  0
  5 33  1  6
  6  7  1  6
  6 19  1  0
  6 20  1  0
  7  8  1  0
  7 34  1  0
  7 35  1  0
  8  9  1  0
  8 36  1  0
  8 37  1  0
  9 17  1  0
  9 10  1  0
  9 38  1  6
 10 11  1  0
 10 12  1  0
 10 13  1  0
 11 39  1  0
 11 40  1  0
 11 41  1  0
 12 42  1  0
 12 43  1  0
 12 44  1  0
 13 14  2  0
 13 15  1  0
 15 16  1  0
 15 45  1  0
 15 46  1  0
 16 17  1  0
 16 47  1  0
 16 48  1  0
 17 18  1  6
 18 49  1  0
 18 50  1  0
 18 51  1  0
 19 52  1  0
 19 53  1  0
 20 24  1  0
 20 21  2  0
 21 22  1  0
 21 57  1  0
 22 23  2  0
 22 54  1  0
 23 24  1  0
 24 25  1  0
 25 55  1  0
 25 56  1  0
M  CHG  1  21   1
M  END
>  <i_m_ct_stereo_status>  (286) 
1

>  <s_m_source_file>  (286) 
/var/tmp/pbs.5076255.sched01/tmprcd7yfff/907v12ihtf.sdf

>  <i_m_source_file_index>  (286) 
31

>  <i_lp_mmshare_version>  (286) 
48012

>  <i_f3d_flags>  (286) 
0

>  <s_epik_input>  (286) 
bjFbY0hdbmMybjFbQ0gyXVtDQF0oW0NIM10pKFtDSDJdMylbQ0gyXVtDSDJdW0NAQEhdKFtDQEBdMjM0KVtDQEBdNShbQ0gzXSlbQ0BASF0oW0NIMl1bQ0gyXTQpQyhbQ0gzXSkoW0NIM10pQyg9TylbQ0gyXVtDSDJdNQ==

>  <s_epik_cmdline>  (286) 
J2VwaWtfcHl0aG9uJywgJy1waHQnLCAnMi4wJywgJy1waCcsICc3LjAnLCAnLXRuJywgJzgnLCAnLW1hJywgJzIwMCcsICctaW1hZScsICc8aW5maWxlLm1hZT4nLCAnLW9tYWUnLCAnPG91dGZpbGUubWFlPic=

>  <r_lp_tautomer_probability>  (286) 
0.999941

>  <r_epik_Ionization_Penalty>  (286) 
1.91346

>  <r_epik_Ionization_Penalty_Charging>  (286) 
1.91346

>  <r_epik_Ionization_Penalty_Neutral>  (286) 
1.27335e-07

>  <r_epik_State_Penalty>  (286) 
2.03568

>  <r_epik_Charging_Adjusted_Penalty>  (286) 
3.94914

>  <i_epik_Tot_Q>  (286) 
1

>  <i_epik_Tot_abs_Q>  (286) 
1

>  <s_lp_Force_Field>  (286) 
OPLS3e

>  <r_lp_Energy>  (286) 
70.3409

>  <b_lp_Chiralities_Consistent>  (286) 
1

>  <s_lp_Variant>  (286) 
81:0-2

>  <s_i_glide_gridfile>  (286) 
pfpi4k_grid

>  <i_i_glide_lignum>  (286) 
31

>  <i_i_glide_rotatable_bonds>  (286) 
0

>  <r_i_docking_score>  (286) 
-3.25346

>  <r_i_glide_ligand_efficiency>  (286) 
-0.130139

>  <r_i_glide_ligand_efficiency_sa>  (286) 
-0.380527

>  <r_i_glide_ligand_efficiency_ln>  (286) 
-0.771168

>  <r_i_glide_gscore>  (286) 
-3.25346

>  <r_i_glide_lipo>  (286) 
-0.763759

>  <r_i_glide_hbond>  (286) 
0

>  <r_i_glide_metal>  (286) 
-0

>  <r_i_glide_rewards>  (286) 
-1.08711

>  <r_i_glide_evdw>  (286) 
-22.3971

>  <r_i_glide_ecoul>  (286) 
-1.7088

>  <r_i_glide_erotb>  (286) 
0

>  <r_i_glide_esite>  (286) 
-0.0264215

>  <r_i_glide_emodel>  (286) 
-30.9658

>  <r_i_glide_energy>  (286) 
-24.1059

>  <r_i_glide_einternal>  (286) 
0

>  <r_i_glide_intrahb_reward>  (286) 
-0

>  <i_i_glide_confnum>  (286) 
1

>  <i_i_glide_posenum>  (286) 
5

>  <r_i_glide_eff_state_penalty>  (286) 
0

>  <ligand_id>  (286) 
81

>  <original_smiles>  (286) 
CC12CCC3C(CCC4C(C)(C)C(=O)CCC43C)(C1)c1ncnn1C2

>  <smiles>  (286) 
[H]c1nn2c([n+]1[H])C13C([H])([H])C([H])([H])C4([H])C(C([H])([H])[H])(C([H])([H])[H])C(=O)C([H])([H])C([H])([H])C4(C([H])([H])[H])C1([H])C([H])([H])C([H])([H])C(C([H])([H])[H])(C2([H])[H])C3([H])[H]

$$$$
82:0:0
     RDKit          3D

 14 15  0  0  1  0  0  0  0  0999 V2000
    4.7361   -1.0603    0.5745 C   0  0  0  0  0  0  0  0  0  0  0  0
    6.0252   -1.3513    0.0796 C   0  0  0  0  0  0  0  0  0  0  0  0
    6.2576   -1.9145   -1.1041 N   0  0  0  0  0  0  0  0  0  0  0  0
    5.1861   -2.2622   -1.8453 C   0  0  0  0  0  0  0  0  0  0  0  0
    5.1547   -2.8482   -3.0427 N   0  0  0  0  0  0  0  0  0  0  0  0
    3.8100   -2.9776   -3.3762 C   0  0  0  0  0  0  0  0  0  0  0  0
    3.0153   -2.4530   -2.3950 C   0  0  0  0  0  0  0  0  0  0  0  0
    3.8672   -2.0006   -1.4029 N   0  0  0  0  0  0  0  0  0  0  0  0
    3.6474   -1.3990   -0.1979 C   0  0  0  0  0  0  0  0  0  0  0  0
    4.5975   -0.5691    1.5299 H   0  0  0  0  0  0  0  0  0  0  0  0
    6.9007   -1.0877    0.6713 H   0  0  0  0  0  0  0  0  0  0  0  0
    3.5150   -3.4380   -4.3116 H   0  0  0  0  0  0  0  0  0  0  0  0
    1.9461   -2.3481   -2.2894 H   0  0  0  0  0  0  0  0  0  0  0  0
    2.6170   -1.2002    0.0865 H   0  0  0  0  0  0  0  0  0  0  0  0
  1  9  2  0
  1  2  1  0
  1 10  1  0
  2  3  2  0
  2 11  1  0
  3  4  1  0
  4  8  1  0
  4  5  2  0
  5  6  1  0
  6  7  2  0
  6 12  1  0
  7  8  1  0
  7 13  1  0
  8  9  1  0
  9 14  1  0
M  END
>  <i_m_ct_stereo_status>  (287) 
1

>  <s_m_source_file>  (287) 
/var/tmp/pbs.5076255.sched01/tmprcd7yfff/907v12ihtf.sdf

>  <i_m_source_file_index>  (287) 
32

>  <i_lp_mmshare_version>  (287) 
48012

>  <i_f3d_flags>  (287) 
0

>  <s_epik_input>  (287) 
bjFbY0hdW2NIXVtjSF1uKGMxMilbY0hdW2NIXW4y

>  <s_epik_cmdline>  (287) 
J2VwaWtfcHl0aG9uJywgJy1waHQnLCAnMi4wJywgJy1waCcsICc3LjAnLCAnLXRuJywgJzgnLCAnLW1hJywgJzIwMCcsICctaW1hZScsICc8aW5maWxlLm1hZT4nLCAnLW9tYWUnLCAnPG91dGZpbGUubWFlPic=

>  <r_lp_tautomer_probability>  (287) 
1

>  <r_epik_Ionization_Penalty>  (287) 
0.000283514

>  <r_epik_Ionization_Penalty_Charging>  (287) 
0.000283514

>  <r_epik_Ionization_Penalty_Neutral>  (287) 
3.26343e-12

>  <r_epik_State_Penalty>  (287) 
-0

>  <r_epik_Charging_Adjusted_Penalty>  (287) 
0.000283514

>  <i_epik_Tot_Q>  (287) 
0

>  <i_epik_Tot_abs_Q>  (287) 
0

>  <s_lp_Force_Field>  (287) 
OPLS3e

>  <r_lp_Energy>  (287) 
15.6776

>  <b_lp_Chiralities_Consistent>  (287) 
1

>  <s_lp_Variant>  (287) 
82:0-1

>  <s_i_glide_gridfile>  (287) 
pfpi4k_grid

>  <i_i_glide_lignum>  (287) 
32

>  <i_i_glide_rotatable_bonds>  (287) 
0

>  <r_i_docking_score>  (287) 
-4.03315

>  <r_i_glide_ligand_efficiency>  (287) 
-0.448128

>  <r_i_glide_ligand_efficiency_sa>  (287) 
-0.932143

>  <r_i_glide_ligand_efficiency_ln>  (287) 
-1.26145

>  <r_i_glide_gscore>  (287) 
-4.03315

>  <r_i_glide_lipo>  (287) 
-0.215884

>  <r_i_glide_hbond>  (287) 
-0.139259

>  <r_i_glide_metal>  (287) 
-0

>  <r_i_glide_rewards>  (287) 
-2.25

>  <r_i_glide_evdw>  (287) 
-15.6297

>  <r_i_glide_ecoul>  (287) 
-3.91576

>  <r_i_glide_erotb>  (287) 
0

>  <r_i_glide_esite>  (287) 
-0.0591557

>  <r_i_glide_emodel>  (287) 
-25.5547

>  <r_i_glide_energy>  (287) 
-19.5455

>  <r_i_glide_einternal>  (287) 
0

>  <r_i_glide_intrahb_reward>  (287) 
-0

>  <i_i_glide_confnum>  (287) 
2

>  <i_i_glide_posenum>  (287) 
7

>  <r_i_glide_eff_state_penalty>  (287) 
0

>  <ligand_id>  (287) 
82

>  <original_smiles>  (287) 
c1cnc2nccn2c1

>  <smiles>  (287) 
[H]c1nc2nc([H])c([H])n2c([H])c1[H]

$$$$
82:0:1
     RDKit          3D

 14 15  0  0  1  0  0  0  0  0999 V2000
    2.5033   -9.7849    2.2532 C   0  0  0  0  0  0  0  0  0  0  0  0
    2.7334   -8.5047    1.7008 C   0  0  0  0  0  0  0  0  0  0  0  0
    1.8282   -7.5297    1.6701 N   0  0  0  0  0  0  0  0  0  0  0  0
    0.6174   -7.8071    2.1827 C   0  0  0  0  0  0  0  0  0  0  0  0
   -0.4557   -7.0074    2.2623 N   0  0  0  0  0  0  0  0  0  0  0  0
   -1.4439   -7.7607    2.8891 C   0  0  0  0  0  0  0  0  0  0  0  0
   -0.9807   -9.0086    3.1899 C   0  0  0  0  0  0  0  0  0  0  0  0
    0.3284   -9.0723    2.7545 N   0  0  0  0  0  0  0  0  0  0  0  0
    1.2669  -10.0596    2.7953 C   0  0  0  0  0  0  0  0  0  0  0  0
    3.2731  -10.5490    2.2287 H   0  0  0  0  0  0  0  0  0  0  0  0
    3.6988   -8.2719    1.2619 H   0  0  0  0  0  0  0  0  0  0  0  0
   -2.4254   -7.3514    3.0927 H   0  0  0  0  0  0  0  0  0  0  0  0
   -1.4294   -9.8554    3.6791 H   0  0  0  0  0  0  0  0  0  0  0  0
    0.9928  -11.0182    3.2299 H   0  0  0  0  0  0  0  0  0  0  0  0
  1  9  2  0
  1  2  1  0
  1 10  1  0
  2  3  2  0
  2 11  1  0
  3  4  1  0
  4  8  1  0
  4  5  2  0
  5  6  1  0
  6  7  2  0
  6 12  1  0
  7  8  1  0
  7 13  1  0
  8  9  1  0
  9 14  1  0
M  END
>  <i_m_ct_stereo_status>  (288) 
1

>  <s_m_source_file>  (288) 
/var/tmp/pbs.5076255.sched01/tmprcd7yfff/907v12ihtf.sdf

>  <i_m_source_file_index>  (288) 
32

>  <i_lp_mmshare_version>  (288) 
48012

>  <i_f3d_flags>  (288) 
0

>  <s_epik_input>  (288) 
bjFbY0hdW2NIXVtjSF1uKGMxMilbY0hdW2NIXW4y

>  <s_epik_cmdline>  (288) 
J2VwaWtfcHl0aG9uJywgJy1waHQnLCAnMi4wJywgJy1waCcsICc3LjAnLCAnLXRuJywgJzgnLCAnLW1hJywgJzIwMCcsICctaW1hZScsICc8aW5maWxlLm1hZT4nLCAnLW9tYWUnLCAnPG91dGZpbGUubWFlPic=

>  <r_lp_tautomer_probability>  (288) 
1

>  <r_epik_Ionization_Penalty>  (288) 
0.000283514

>  <r_epik_Ionization_Penalty_Charging>  (288) 
0.000283514

>  <r_epik_Ionization_Penalty_Neutral>  (288) 
3.26343e-12

>  <r_epik_State_Penalty>  (288) 
-0

>  <r_epik_Charging_Adjusted_Penalty>  (288) 
0.000283514

>  <i_epik_Tot_Q>  (288) 
0

>  <i_epik_Tot_abs_Q>  (288) 
0

>  <s_lp_Force_Field>  (288) 
OPLS3e

>  <r_lp_Energy>  (288) 
15.6776

>  <b_lp_Chiralities_Consistent>  (288) 
1

>  <s_lp_Variant>  (288) 
82:0-1

>  <s_i_glide_gridfile>  (288) 
pfpi4k_grid

>  <i_i_glide_lignum>  (288) 
32

>  <i_i_glide_rotatable_bonds>  (288) 
0

>  <r_i_docking_score>  (288) 
-4.00361

>  <r_i_glide_ligand_efficiency>  (288) 
-0.444846

>  <r_i_glide_ligand_efficiency_sa>  (288) 
-0.925316

>  <r_i_glide_ligand_efficiency_ln>  (288) 
-1.25221

>  <r_i_glide_gscore>  (288) 
-4.00361

>  <r_i_glide_lipo>  (288) 
-0.123899

>  <r_i_glide_hbond>  (288) 
-0.138179

>  <r_i_glide_metal>  (288) 
-0

>  <r_i_glide_rewards>  (288) 
-2.25

>  <r_i_glide_evdw>  (288) 
-14.7145

>  <r_i_glide_ecoul>  (288) 
-4.5369

>  <r_i_glide_erotb>  (288) 
0

>  <r_i_glide_esite>  (288) 
-0.0752702

>  <r_i_glide_emodel>  (288) 
-25.215

>  <r_i_glide_energy>  (288) 
-19.2514

>  <r_i_glide_einternal>  (288) 
0

>  <r_i_glide_intrahb_reward>  (288) 
-0

>  <i_i_glide_confnum>  (288) 
1

>  <i_i_glide_posenum>  (288) 
1

>  <r_i_glide_eff_state_penalty>  (288) 
0

>  <ligand_id>  (288) 
82

>  <original_smiles>  (288) 
c1cnc2nccn2c1

>  <smiles>  (288) 
[H]c1nc2nc([H])c([H])n2c([H])c1[H]

$$$$
82:0:2
     RDKit          3D

 14 15  0  0  1  0  0  0  0  0999 V2000
    0.5730   -8.1256    6.4454 C   0  0  0  0  0  0  0  0  0  0  0  0
    0.2988   -6.7636    6.1699 C   0  0  0  0  0  0  0  0  0  0  0  0
   -0.2130   -6.3248    5.0256 N   0  0  0  0  0  0  0  0  0  0  0  0
   -0.4635   -7.2446    4.0759 C   0  0  0  0  0  0  0  0  0  0  0  0
   -0.9687   -7.0568    2.8554 N   0  0  0  0  0  0  0  0  0  0  0  0
   -1.0146   -8.3114    2.2629 C   0  0  0  0  0  0  0  0  0  0  0  0
   -0.5634   -9.2714    3.1220 C   0  0  0  0  0  0  0  0  0  0  0  0
   -0.2034   -8.6206    4.2868 N   0  0  0  0  0  0  0  0  0  0  0  0
    0.3052   -9.0613    5.4717 C   0  0  0  0  0  0  0  0  0  0  0  0
    0.9818   -8.4369    7.4021 H   0  0  0  0  0  0  0  0  0  0  0  0
    0.4960   -6.0108    6.9289 H   0  0  0  0  0  0  0  0  0  0  0  0
   -1.3798   -8.4295    1.2543 H   0  0  0  0  0  0  0  0  0  0  0  0
   -0.4703  -10.3434    3.0418 H   0  0  0  0  0  0  0  0  0  0  0  0
    0.4715  -10.1312    5.5895 H   0  0  0  0  0  0  0  0  0  0  0  0
  1  9  2  0
  1  2  1  0
  1 10  1  0
  2  3  2  0
  2 11  1  0
  3  4  1  0
  4  8  1  0
  4  5  2  0
  5  6  1  0
  6  7  2  0
  6 12  1  0
  7  8  1  0
  7 13  1  0
  8  9  1  0
  9 14  1  0
M  END
>  <i_m_ct_stereo_status>  (289) 
1

>  <s_m_source_file>  (289) 
/var/tmp/pbs.5076255.sched01/tmprcd7yfff/907v12ihtf.sdf

>  <i_m_source_file_index>  (289) 
32

>  <i_lp_mmshare_version>  (289) 
48012

>  <i_f3d_flags>  (289) 
0

>  <s_epik_input>  (289) 
bjFbY0hdW2NIXVtjSF1uKGMxMilbY0hdW2NIXW4y

>  <s_epik_cmdline>  (289) 
J2VwaWtfcHl0aG9uJywgJy1waHQnLCAnMi4wJywgJy1waCcsICc3LjAnLCAnLXRuJywgJzgnLCAnLW1hJywgJzIwMCcsICctaW1hZScsICc8aW5maWxlLm1hZT4nLCAnLW9tYWUnLCAnPG91dGZpbGUubWFlPic=

>  <r_lp_tautomer_probability>  (289) 
1

>  <r_epik_Ionization_Penalty>  (289) 
0.000283514

>  <r_epik_Ionization_Penalty_Charging>  (289) 
0.000283514

>  <r_epik_Ionization_Penalty_Neutral>  (289) 
3.26343e-12

>  <r_epik_State_Penalty>  (289) 
-0

>  <r_epik_Charging_Adjusted_Penalty>  (289) 
0.000283514

>  <i_epik_Tot_Q>  (289) 
0

>  <i_epik_Tot_abs_Q>  (289) 
0

>  <s_lp_Force_Field>  (289) 
OPLS3e

>  <r_lp_Energy>  (289) 
15.6776

>  <b_lp_Chiralities_Consistent>  (289) 
1

>  <s_lp_Variant>  (289) 
82:0-1

>  <s_i_glide_gridfile>  (289) 
pfpi4k_grid

>  <i_i_glide_lignum>  (289) 
32

>  <i_i_glide_rotatable_bonds>  (289) 
0

>  <r_i_docking_score>  (289) 
-3.70588

>  <r_i_glide_ligand_efficiency>  (289) 
-0.411764

>  <r_i_glide_ligand_efficiency_sa>  (289) 
-0.856504

>  <r_i_glide_ligand_efficiency_ln>  (289) 
-1.15909

>  <r_i_glide_gscore>  (289) 
-3.70588

>  <r_i_glide_lipo>  (289) 
0

>  <r_i_glide_hbond>  (289) 
-0.16

>  <r_i_glide_metal>  (289) 
-0

>  <r_i_glide_rewards>  (289) 
-2.25

>  <r_i_glide_evdw>  (289) 
-12.3533

>  <r_i_glide_ecoul>  (289) 
-3.82396

>  <r_i_glide_erotb>  (289) 
0

>  <r_i_glide_esite>  (289) 
-0.104615

>  <r_i_glide_emodel>  (289) 
-21.6975

>  <r_i_glide_energy>  (289) 
-16.1773

>  <r_i_glide_einternal>  (289) 
0

>  <r_i_glide_intrahb_reward>  (289) 
-0

>  <i_i_glide_confnum>  (289) 
1

>  <i_i_glide_posenum>  (289) 
2

>  <r_i_glide_eff_state_penalty>  (289) 
0

>  <ligand_id>  (289) 
82

>  <original_smiles>  (289) 
c1cnc2nccn2c1

>  <smiles>  (289) 
[H]c1nc2nc([H])c([H])n2c([H])c1[H]

$$$$
83:0:0
     RDKit          3D

 42 46  0  0  1  0  0  0  0  0999 V2000
    1.7533    1.0912    5.6298 C   0  0  0  0  0  0  0  0  0  0  0  0
    0.4729    1.8744    5.3103 C   0  0  2  0  0  0  0  0  0  0  0  0
   -0.6444    0.9207    4.9220 C   0  0  0  0  0  0  0  0  0  0  0  0
   -1.1278    0.0682    5.6646 O   0  0  0  0  0  0  0  0  0  0  0  0
   -1.1197    1.1242    3.4917 C   0  0  0  0  0  0  0  0  0  0  0  0
   -0.6523    2.5392    3.1375 C   0  0  1  0  0  0  0  0  0  0  0  0
   -1.7964    3.5667    3.3808 C   0  0  0  0  0  0  0  0  0  0  0  0
   -1.4725    4.8560    2.9006 O   0  0  0  0  0  0  0  0  0  0  0  0
    0.6365    2.7054    4.0007 C   0  0  1  0  0  0  0  0  0  0  0  0
    1.0787    4.1628    4.1834 C   0  0  0  0  0  0  0  0  0  0  0  0
    1.2521    4.7414    5.3868 C   0  0  0  0  0  0  0  0  0  0  0  0
    1.0639    3.9755    6.6748 C   0  0  1  0  0  0  0  0  0  0  0  0
    0.7718    4.8488    7.9184 C   0  0  1  0  0  0  0  0  0  0  0  0
   -0.1057    6.1571    8.1292 C   0  0  0  0  0  0  0  0  0  0  0  0
   -0.9866    5.3728    9.0836 C   0  0  0  0  0  0  0  0  0  0  0  0
   -2.3202    5.2432    9.4630 C   0  0  0  0  0  0  0  0  0  0  0  0
   -2.7661    3.9022    9.6657 C   0  0  0  0  0  0  0  0  0  0  0  0
   -2.0198    2.7619    9.2193 C   0  0  0  0  0  0  0  0  0  0  0  0
   -0.7328    2.8849    8.6232 C   0  0  0  0  0  0  0  0  0  0  0  0
   -0.2816    4.1944    8.7110 C   0  0  0  0  0  0  0  0  0  0  0  0
   -0.1613    2.0481    7.6890 O   0  0  0  0  0  0  0  0  0  0  0  0
    0.0678    2.7794    6.4719 C   0  0  2  0  0  0  0  0  0  0  0  0
    2.6372    1.7294    5.6359 H   0  0  0  0  0  0  0  0  0  0  0  0
    1.9336    0.2999    4.9020 H   0  0  0  0  0  0  0  0  0  0  0  0
    1.6842    0.6230    6.6046 H   0  0  0  0  0  0  0  0  0  0  0  0
   -0.6114    0.3774    2.8774 H   0  0  0  0  0  0  0  0  0  0  0  0
   -2.1793    0.9773    3.4157 H   0  0  0  0  0  0  0  0  0  0  0  0
   -0.3999    2.5506    2.0744 H   0  0  0  0  0  0  0  0  0  0  0  0
   -2.6751    3.2367    2.8234 H   0  0  0  0  0  0  0  0  0  0  0  0
   -2.0956    3.6342    4.4304 H   0  0  0  0  0  0  0  0  0  0  0  0
   -0.8748    4.7304    2.1433 H   0  0  0  0  0  0  0  0  0  0  0  0
    1.4544    2.2559    3.4158 H   0  0  0  0  0  0  0  0  0  0  0  0
    1.2314    4.7324    3.2639 H   0  0  0  0  0  0  0  0  0  0  0  0
    1.5667    5.7668    5.4765 H   0  0  0  0  0  0  0  0  0  0  0  0
    2.0442    3.5262    6.8574 H   0  0  0  0  0  0  0  0  0  0  0  0
    1.6254    4.9233    8.5798 H   0  0  0  0  0  0  0  0  0  0  0  0
    0.4166    6.9248    8.6924 H   0  0  0  0  0  0  0  0  0  0  0  0
   -0.5868    6.5382    7.2256 H   0  0  0  0  0  0  0  0  0  0  0  0
   -2.9434    6.1067    9.6192 H   0  0  0  0  0  0  0  0  0  0  0  0
   -3.7571    3.7171   10.0516 H   0  0  0  0  0  0  0  0  0  0  0  0
   -2.4890    1.7857    9.2465 H   0  0  0  0  0  0  0  0  0  0  0  0
   -0.8857    3.2274    6.2201 H   0  0  0  0  0  0  0  0  0  0  0  0
  2  1  1  1
  1 23  1  0
  1 24  1  0
  1 25  1  0
  2  9  1  0
  2 22  1  0
  2  3  1  0
  3  4  2  0
  3  5  1  0
  5  6  1  0
  5 26  1  0
  5 27  1  0
  6  7  1  0
  6  9  1  0
  6 28  1  6
  7  8  1  0
  7 29  1  0
  7 30  1  0
  8 31  1  0
  9 10  1  0
  9 32  1  6
 10 11  2  0
 10 33  1  0
 11 12  1  0
 11 34  1  0
 12 22  1  0
 12 13  1  0
 12 35  1  1
 13 20  1  0
 13 14  1  0
 13 36  1  1
 14 15  1  0
 14 37  1  0
 14 38  1  0
 15 20  2  0
 15 16  1  0
 16 17  2  0
 16 39  1  0
 17 18  1  0
 17 40  1  0
 18 19  2  0
 18 41  1  0
 19 20  1  0
 19 21  1  0
 21 22  1  0
 22 42  1  6
M  END
>  <i_m_ct_stereo_status>  (290) 
1

>  <s_m_source_file>  (290) 
/var/tmp/pbs.5076255.sched01/tmprcd7yfff/907v12ihtf.sdf

>  <i_m_source_file_index>  (290) 
33

>  <i_lp_mmshare_version>  (290) 
48012

>  <i_f3d_flags>  (290) 
0

>  <s_epik_input>  (290) 
Tz1DMVtDSDJdW0NAQEhdKFtDSDJdW09IXSlbQ0BIXShbQ0BdMTJbQ0gzXSlbQ0hdPVtDSF1bQ0BIXTNbQ0BASF00YzVjKFtDSDJdNClbY0hdW2NIXVtjSF1jNU9bQ0BIXTIz

>  <s_epik_cmdline>  (290) 
J2VwaWtfcHl0aG9uJywgJy1waHQnLCAnMi4wJywgJy1waCcsICc3LjAnLCAnLXRuJywgJzgnLCAnLW1hJywgJzIwMCcsICctaW1hZScsICc8aW5maWxlLm1hZT4nLCAnLW9tYWUnLCAnPG91dGZpbGUubWFlPic=

>  <r_lp_tautomer_probability>  (290) 
1

>  <r_epik_Ionization_Penalty>  (290) 
1.95384e-07

>  <r_epik_Ionization_Penalty_Charging>  (290) 
0

>  <r_epik_Ionization_Penalty_Neutral>  (290) 
1.95384e-07

>  <r_epik_State_Penalty>  (290) 
-0

>  <r_epik_Charging_Adjusted_Penalty>  (290) 
0

>  <i_epik_Tot_Q>  (290) 
0

>  <i_epik_Tot_abs_Q>  (290) 
0

>  <s_lp_Force_Field>  (290) 
OPLS3e

>  <r_lp_Energy>  (290) 
51.6539

>  <b_lp_Chiralities_Consistent>  (290) 
1

>  <s_lp_Variant>  (290) 
83:0-1

>  <s_i_glide_gridfile>  (290) 
pfpi4k_grid

>  <i_i_glide_lignum>  (290) 
33

>  <i_i_glide_rotatable_bonds>  (290) 
2

>  <r_i_docking_score>  (290) 
-3.62812

>  <r_i_glide_ligand_efficiency>  (290) 
-0.164915

>  <r_i_glide_ligand_efficiency_sa>  (290) 
-0.462097

>  <r_i_glide_ligand_efficiency_ln>  (290) 
-0.886845

>  <r_i_glide_gscore>  (290) 
-3.62812

>  <r_i_glide_lipo>  (290) 
0

>  <r_i_glide_hbond>  (290) 
-0.32

>  <r_i_glide_metal>  (290) 
-0

>  <r_i_glide_rewards>  (290) 
-1.38845

>  <r_i_glide_evdw>  (290) 
-15.4179

>  <r_i_glide_ecoul>  (290) 
-8.93657

>  <r_i_glide_erotb>  (290) 
0.208572

>  <r_i_glide_esite>  (290) 
-0.0168618

>  <r_i_glide_emodel>  (290) 
-29.8112

>  <r_i_glide_energy>  (290) 
-24.3544

>  <r_i_glide_einternal>  (290) 
1.48469

>  <r_i_glide_intrahb_reward>  (290) 
-0

>  <i_i_glide_confnum>  (290) 
6

>  <i_i_glide_posenum>  (290) 
25

>  <r_i_glide_eff_state_penalty>  (290) 
0

>  <ligand_id>  (290) 
83

>  <original_smiles>  (290) 
CC12C(=O)CC(CO)C1C=CC1C3Cc4cccc(c43)OC12

>  <smiles>  (290) 
[H]OC([H])([H])C1([H])C([H])([H])C(=O)C2(C([H])([H])[H])C3([H])Oc4c([H])c([H])c([H])c5c4C([H])(C5([H])[H])C3([H])C([H])=C([H])C12[H]

$$$$
83:0:1
     RDKit          3D

 42 46  0  0  1  0  0  0  0  0999 V2000
    0.6615   -0.8262    6.7635 C   0  0  0  0  0  0  0  0  0  0  0  0
    0.1705    0.4118    5.9893 C   0  0  2  0  0  0  0  0  0  0  0  0
   -1.0803    0.0542    5.1890 C   0  0  0  0  0  0  0  0  0  0  0  0
   -2.1283   -0.3738    5.6908 O   0  0  0  0  0  0  0  0  0  0  0  0
   -0.8826    0.2136    3.6981 C   0  0  0  0  0  0  0  0  0  0  0  0
    0.3384    1.1281    3.5709 C   0  0  1  0  0  0  0  0  0  0  0  0
   -0.0783    2.5997    3.3842 C   0  0  0  0  0  0  0  0  0  0  0  0
    1.0034    3.3483    2.8803 O   0  0  0  0  0  0  0  0  0  0  0  0
    1.1645    0.8141    4.8543 C   0  0  1  0  0  0  0  0  0  0  0  0
    2.1810    1.8921    5.2319 C   0  0  0  0  0  0  0  0  0  0  0  0
    2.2236    2.4990    6.4323 C   0  0  0  0  0  0  0  0  0  0  0  0
    1.2509    2.1613    7.5383 C   0  0  1  0  0  0  0  0  0  0  0  0
    1.0520    3.2747    8.6050 C   0  0  1  0  0  0  0  0  0  0  0  0
    0.9640    4.8564    8.4899 C   0  0  0  0  0  0  0  0  0  0  0  0
   -0.4731    4.7826    8.9853 C   0  0  0  0  0  0  0  0  0  0  0  0
   -1.7215    5.3850    8.8745 C   0  0  0  0  0  0  0  0  0  0  0  0
   -2.8184    4.4875    8.8625 C   0  0  0  0  0  0  0  0  0  0  0  0
   -2.6592    3.0649    8.6965 C   0  0  0  0  0  0  0  0  0  0  0  0
   -1.3893    2.4507    8.6335 C   0  0  0  0  0  0  0  0  0  0  0  0
   -0.3840    3.3654    8.9136 C   0  0  0  0  0  0  0  0  0  0  0  0
   -1.0598    1.2890    7.9733 O   0  0  0  0  0  0  0  0  0  0  0  0
   -0.0831    1.5865    6.9473 C   0  0  2  0  0  0  0  0  0  0  0  0
    1.6827   -0.7048    7.1227 H   0  0  0  0  0  0  0  0  0  0  0  0
    0.6412   -1.7232    6.1460 H   0  0  0  0  0  0  0  0  0  0  0  0
    0.0371   -1.0206    7.6349 H   0  0  0  0  0  0  0  0  0  0  0  0
   -0.6353   -0.7703    3.3108 H   0  0  0  0  0  0  0  0  0  0  0  0
   -1.7784    0.5802    3.1933 H   0  0  0  0  0  0  0  0  0  0  0  0
    0.9003    0.8119    2.6849 H   0  0  0  0  0  0  0  0  0  0  0  0
   -0.8856    2.6649    2.6500 H   0  0  0  0  0  0  0  0  0  0  0  0
   -0.4507    3.0573    4.2968 H   0  0  0  0  0  0  0  0  0  0  0  0
    0.7197    3.7304    2.0228 H   0  0  0  0  0  0  0  0  0  0  0  0
    1.7697   -0.0688    4.6328 H   0  0  0  0  0  0  0  0  0  0  0  0
    2.8982    2.1520    4.4584 H   0  0  0  0  0  0  0  0  0  0  0  0
    2.9734    3.2425    6.6539 H   0  0  0  0  0  0  0  0  0  0  0  0
    1.7324    1.3351    8.0675 H   0  0  0  0  0  0  0  0  0  0  0  0
    1.5556    3.0369    9.5313 H   0  0  0  0  0  0  0  0  0  0  0  0
    1.5768    5.3671    9.2314 H   0  0  0  0  0  0  0  0  0  0  0  0
    1.1186    5.2432    7.4816 H   0  0  0  0  0  0  0  0  0  0  0  0
   -1.8541    6.4603    8.7689 H   0  0  0  0  0  0  0  0  0  0  0  0
   -3.8180    4.8700    8.8524 H   0  0  0  0  0  0  0  0  0  0  0  0
   -3.5428    2.4863    8.4936 H   0  0  0  0  0  0  0  0  0  0  0  0
   -0.5221    2.3893    6.3621 H   0  0  0  0  0  0  0  0  0  0  0  0
  2  1  1  1
  1 23  1  0
  1 24  1  0
  1 25  1  0
  2  9  1  0
  2 22  1  0
  2  3  1  0
  3  4  2  0
  3  5  1  0
  5  6  1  0
  5 26  1  0
  5 27  1  0
  6  7  1  0
  6  9  1  0
  6 28  1  6
  7  8  1  0
  7 29  1  0
  7 30  1  0
  8 31  1  0
  9 10  1  0
  9 32  1  6
 10 11  2  0
 10 33  1  0
 11 12  1  0
 11 34  1  0
 12 22  1  0
 12 13  1  0
 12 35  1  1
 13 20  1  0
 13 14  1  0
 13 36  1  1
 14 15  1  0
 14 37  1  0
 14 38  1  0
 15 20  2  0
 15 16  1  0
 16 17  2  0
 16 39  1  0
 17 18  1  0
 17 40  1  0
 18 19  2  0
 18 41  1  0
 19 20  1  0
 19 21  1  0
 21 22  1  0
 22 42  1  6
M  END
>  <i_m_ct_stereo_status>  (291) 
1

>  <s_m_source_file>  (291) 
/var/tmp/pbs.5076255.sched01/tmprcd7yfff/907v12ihtf.sdf

>  <i_m_source_file_index>  (291) 
33

>  <i_lp_mmshare_version>  (291) 
48012

>  <i_f3d_flags>  (291) 
0

>  <s_epik_input>  (291) 
Tz1DMVtDSDJdW0NAQEhdKFtDSDJdW09IXSlbQ0BIXShbQ0BdMTJbQ0gzXSlbQ0hdPVtDSF1bQ0BIXTNbQ0BASF00YzVjKFtDSDJdNClbY0hdW2NIXVtjSF1jNU9bQ0BIXTIz

>  <s_epik_cmdline>  (291) 
J2VwaWtfcHl0aG9uJywgJy1waHQnLCAnMi4wJywgJy1waCcsICc3LjAnLCAnLXRuJywgJzgnLCAnLW1hJywgJzIwMCcsICctaW1hZScsICc8aW5maWxlLm1hZT4nLCAnLW9tYWUnLCAnPG91dGZpbGUubWFlPic=

>  <r_lp_tautomer_probability>  (291) 
1

>  <r_epik_Ionization_Penalty>  (291) 
1.95384e-07

>  <r_epik_Ionization_Penalty_Charging>  (291) 
0

>  <r_epik_Ionization_Penalty_Neutral>  (291) 
1.95384e-07

>  <r_epik_State_Penalty>  (291) 
-0

>  <r_epik_Charging_Adjusted_Penalty>  (291) 
0

>  <i_epik_Tot_Q>  (291) 
0

>  <i_epik_Tot_abs_Q>  (291) 
0

>  <s_lp_Force_Field>  (291) 
OPLS3e

>  <r_lp_Energy>  (291) 
51.6539

>  <b_lp_Chiralities_Consistent>  (291) 
1

>  <s_lp_Variant>  (291) 
83:0-1

>  <s_i_glide_gridfile>  (291) 
pfpi4k_grid

>  <i_i_glide_lignum>  (291) 
33

>  <i_i_glide_rotatable_bonds>  (291) 
2

>  <r_i_docking_score>  (291) 
-3.58086

>  <r_i_glide_ligand_efficiency>  (291) 
-0.162766

>  <r_i_glide_ligand_efficiency_sa>  (291) 
-0.456078

>  <r_i_glide_ligand_efficiency_ln>  (291) 
-0.875292

>  <r_i_glide_gscore>  (291) 
-3.58086

>  <r_i_glide_lipo>  (291) 
-0.095563

>  <r_i_glide_hbond>  (291) 
-0.243884

>  <r_i_glide_metal>  (291) 
-0

>  <r_i_glide_rewards>  (291) 
-1.38845

>  <r_i_glide_evdw>  (291) 
-13.7356

>  <r_i_glide_ecoul>  (291) 
-8.94596

>  <r_i_glide_erotb>  (291) 
0.208572

>  <r_i_glide_esite>  (291) 
-0.0328574

>  <r_i_glide_emodel>  (291) 
-27.9627

>  <r_i_glide_energy>  (291) 
-22.6815

>  <r_i_glide_einternal>  (291) 
1.85946

>  <r_i_glide_intrahb_reward>  (291) 
-0

>  <i_i_glide_confnum>  (291) 
6

>  <i_i_glide_posenum>  (291) 
38

>  <r_i_glide_eff_state_penalty>  (291) 
0

>  <ligand_id>  (291) 
83

>  <original_smiles>  (291) 
CC12C(=O)CC(CO)C1C=CC1C3Cc4cccc(c43)OC12

>  <smiles>  (291) 
[H]OC([H])([H])C1([H])C([H])([H])C(=O)C2(C([H])([H])[H])C3([H])Oc4c([H])c([H])c([H])c5c4C([H])(C5([H])[H])C3([H])C([H])=C([H])C12[H]

$$$$
83:0:2
     RDKit          3D

 42 46  0  0  1  0  0  0  0  0999 V2000
    0.7445   -0.6890    6.8727 C   0  0  0  0  0  0  0  0  0  0  0  0
    0.1777    0.5484    6.1537 C   0  0  2  0  0  0  0  0  0  0  0  0
   -1.0811    0.1822    5.3875 C   0  0  0  0  0  0  0  0  0  0  0  0
   -2.1040   -0.2587    5.9318 O   0  0  0  0  0  0  0  0  0  0  0  0
   -0.9465    0.3582    3.8936 C   0  0  0  0  0  0  0  0  0  0  0  0
    0.2314    1.3275    3.7379 C   0  0  1  0  0  0  0  0  0  0  0  0
   -0.2488    2.7955    3.6164 C   0  0  0  0  0  0  0  0  0  0  0  0
   -1.0791    2.9325    2.4884 O   0  0  0  0  0  0  0  0  0  0  0  0
    1.1083    1.0198    4.9978 C   0  0  1  0  0  0  0  0  0  0  0  0
    2.1006    2.1337    5.3482 C   0  0  0  0  0  0  0  0  0  0  0  0
    2.1747    2.7029    6.5656 C   0  0  0  0  0  0  0  0  0  0  0  0
    1.2603    2.2959    7.7055 C   0  0  1  0  0  0  0  0  0  0  0  0
    1.0631    3.3642    8.7995 C   0  0  1  0  0  0  0  0  0  0  0  0
    0.9274    4.9547    8.7441 C   0  0  0  0  0  0  0  0  0  0  0  0
   -0.4855    4.8231    9.3046 C   0  0  0  0  0  0  0  0  0  0  0  0
   -1.7557    5.3916    9.2099 C   0  0  0  0  0  0  0  0  0  0  0  0
   -2.8305    4.4346    9.2168 C   0  0  0  0  0  0  0  0  0  0  0  0
   -2.6314    3.0377    9.0296 C   0  0  0  0  0  0  0  0  0  0  0  0
   -1.3294    2.4398    8.9074 C   0  0  0  0  0  0  0  0  0  0  0  0
   -0.3611    3.3911    9.1820 C   0  0  0  0  0  0  0  0  0  0  0  0
   -0.9935    1.3293    8.1940 O   0  0  0  0  0  0  0  0  0  0  0  0
   -0.0736    1.6936    7.1461 C   0  0  2  0  0  0  0  0  0  0  0  0
    1.7729   -0.5450    7.1961 H   0  0  0  0  0  0  0  0  0  0  0  0
    0.7287   -1.5707    6.2290 H   0  0  0  0  0  0  0  0  0  0  0  0
    0.1601   -0.9265    7.7537 H   0  0  0  0  0  0  0  0  0  0  0  0
   -0.6980   -0.6134    3.4668 H   0  0  0  0  0  0  0  0  0  0  0  0
   -1.8706    0.7180    3.4377 H   0  0  0  0  0  0  0  0  0  0  0  0
    0.7896    1.0771    2.8324 H   0  0  0  0  0  0  0  0  0  0  0  0
   -0.8065    3.1146    4.4930 H   0  0  0  0  0  0  0  0  0  0  0  0
    0.6061    3.4705    3.4999 H   0  0  0  0  0  0  0  0  0  0  0  0
   -0.5957    3.4552    1.8196 H   0  0  0  0  0  0  0  0  0  0  0  0
    1.7457    0.1704    4.7214 H   0  0  0  0  0  0  0  0  0  0  0  0
    2.7897    2.4310    4.5596 H   0  0  0  0  0  0  0  0  0  0  0  0
    2.9147    3.4507    6.7930 H   0  0  0  0  0  0  0  0  0  0  0  0
    1.7893    1.4710    8.1904 H   0  0  0  0  0  0  0  0  0  0  0  0
    1.6105    3.1242    9.7116 H   0  0  0  0  0  0  0  0  0  0  0  0
    1.5443    5.4569    9.4798 H   0  0  0  0  0  0  0  0  0  0  0  0
    1.0209    5.3685    7.7412 H   0  0  0  0  0  0  0  0  0  0  0  0
   -1.9328    6.4487    9.1614 H   0  0  0  0  0  0  0  0  0  0  0  0
   -3.8461    4.7923    9.2302 H   0  0  0  0  0  0  0  0  0  0  0  0
   -3.4948    2.4114    8.8501 H   0  0  0  0  0  0  0  0  0  0  0  0
   -0.5561    2.4975    6.5954 H   0  0  0  0  0  0  0  0  0  0  0  0
  2  1  1  1
  1 23  1  0
  1 24  1  0
  1 25  1  0
  2  9  1  0
  2 22  1  0
  2  3  1  0
  3  4  2  0
  3  5  1  0
  5  6  1  0
  5 26  1  0
  5 27  1  0
  6  7  1  0
  6  9  1  0
  6 28  1  6
  7  8  1  0
  7 29  1  0
  7 30  1  0
  8 31  1  0
  9 10  1  0
  9 32  1  6
 10 11  2  0
 10 33  1  0
 11 12  1  0
 11 34  1  0
 12 22  1  0
 12 13  1  0
 12 35  1  1
 13 20  1  0
 13 14  1  0
 13 36  1  1
 14 15  1  0
 14 37  1  0
 14 38  1  0
 15 20  2  0
 15 16  1  0
 16 17  2  0
 16 39  1  0
 17 18  1  0
 17 40  1  0
 18 19  2  0
 18 41  1  0
 19 20  1  0
 19 21  1  0
 21 22  1  0
 22 42  1  6
M  END
>  <i_m_ct_stereo_status>  (292) 
1

>  <s_m_source_file>  (292) 
/var/tmp/pbs.5076255.sched01/tmprcd7yfff/907v12ihtf.sdf

>  <i_m_source_file_index>  (292) 
33

>  <i_lp_mmshare_version>  (292) 
48012

>  <i_f3d_flags>  (292) 
0

>  <s_epik_input>  (292) 
Tz1DMVtDSDJdW0NAQEhdKFtDSDJdW09IXSlbQ0BIXShbQ0BdMTJbQ0gzXSlbQ0hdPVtDSF1bQ0BIXTNbQ0BASF00YzVjKFtDSDJdNClbY0hdW2NIXVtjSF1jNU9bQ0BIXTIz

>  <s_epik_cmdline>  (292) 
J2VwaWtfcHl0aG9uJywgJy1waHQnLCAnMi4wJywgJy1waCcsICc3LjAnLCAnLXRuJywgJzgnLCAnLW1hJywgJzIwMCcsICctaW1hZScsICc8aW5maWxlLm1hZT4nLCAnLW9tYWUnLCAnPG91dGZpbGUubWFlPic=

>  <r_lp_tautomer_probability>  (292) 
1

>  <r_epik_Ionization_Penalty>  (292) 
1.95384e-07

>  <r_epik_Ionization_Penalty_Charging>  (292) 
0

>  <r_epik_Ionization_Penalty_Neutral>  (292) 
1.95384e-07

>  <r_epik_State_Penalty>  (292) 
-0

>  <r_epik_Charging_Adjusted_Penalty>  (292) 
0

>  <i_epik_Tot_Q>  (292) 
0

>  <i_epik_Tot_abs_Q>  (292) 
0

>  <s_lp_Force_Field>  (292) 
OPLS3e

>  <r_lp_Energy>  (292) 
51.6539

>  <b_lp_Chiralities_Consistent>  (292) 
1

>  <s_lp_Variant>  (292) 
83:0-1

>  <s_i_glide_gridfile>  (292) 
pfpi4k_grid

>  <i_i_glide_lignum>  (292) 
33

>  <i_i_glide_rotatable_bonds>  (292) 
2

>  <r_i_docking_score>  (292) 
-3.50083

>  <r_i_glide_ligand_efficiency>  (292) 
-0.159129

>  <r_i_glide_ligand_efficiency_sa>  (292) 
-0.445885

>  <r_i_glide_ligand_efficiency_ln>  (292) 
-0.855731

>  <r_i_glide_gscore>  (292) 
-3.50083

>  <r_i_glide_lipo>  (292) 
-0.0716129

>  <r_i_glide_hbond>  (292) 
-0.303015

>  <r_i_glide_metal>  (292) 
-0

>  <r_i_glide_rewards>  (292) 
-1.38845

>  <r_i_glide_evdw>  (292) 
-11.3482

>  <r_i_glide_ecoul>  (292) 
-8.97499

>  <r_i_glide_erotb>  (292) 
0.208572

>  <r_i_glide_esite>  (292) 
-0.0326641

>  <r_i_glide_emodel>  (292) 
-25.4316

>  <r_i_glide_energy>  (292) 
-20.3232

>  <r_i_glide_einternal>  (292) 
1.24087

>  <r_i_glide_intrahb_reward>  (292) 
-0

>  <i_i_glide_confnum>  (292) 
4

>  <i_i_glide_posenum>  (292) 
28

>  <r_i_glide_eff_state_penalty>  (292) 
0

>  <ligand_id>  (292) 
83

>  <original_smiles>  (292) 
CC12C(=O)CC(CO)C1C=CC1C3Cc4cccc(c43)OC12

>  <smiles>  (292) 
[H]OC([H])([H])C1([H])C([H])([H])C(=O)C2(C([H])([H])[H])C3([H])Oc4c([H])c([H])c([H])c5c4C([H])(C5([H])[H])C3([H])C([H])=C([H])C12[H]

$$$$
84:0:0
     RDKit          3D

 52 56  0  0  1  0  0  0  0  0999 V2000
    1.8552    0.2735    2.0172 C   0  0  0  0  0  0  0  0  0  0  0  0
    2.7525   -0.6776    2.5743 O   0  0  0  0  0  0  0  0  0  0  0  0
    3.3875   -1.5243    1.6205 C   0  0  1  0  0  0  0  0  0  0  0  0
    2.5054   -2.4243    0.9302 O   0  0  0  0  0  0  0  0  0  0  0  0
    2.9857   -3.2886    0.0114 C   0  0  0  0  0  0  0  0  0  0  0  0
    2.2854   -4.0462   -0.6608 O   0  0  0  0  0  0  0  0  0  0  0  0
    4.5242   -3.2323   -0.1270 C   0  0  1  0  0  0  0  0  0  0  0  0
    5.0430   -4.2830   -1.1510 C   0  0  0  0  0  0  0  0  0  0  0  0
    4.8332   -1.7253   -0.5291 C   0  0  1  0  0  0  0  0  0  0  0  0
    6.2160   -1.4752   -0.7369 O   0  0  0  0  0  0  0  0  0  0  0  0
    4.1329   -1.1941   -1.8352 C   0  0  0  0  0  0  0  0  0  0  0  0
    4.4613   -1.9402   -2.9991 O   0  0  0  0  0  0  0  0  0  0  0  0
    4.4520   -0.8645    0.7141 C   0  0  2  0  0  0  0  0  0  0  0  0
    5.4282   -1.1192    1.7805 O   0  0  0  0  0  0  0  0  0  0  0  0
    4.6313   -2.2611    2.1603 C   0  0  1  0  0  0  0  0  0  0  0  0
    4.5507   -2.7398    3.6000 C   0  0  0  0  0  0  0  0  0  0  0  0
    4.8878   -2.1058    4.7359 C   0  0  0  0  0  0  0  0  0  0  0  0
    4.7484   -2.7438    6.1181 C   0  0  0  0  0  0  0  0  0  0  0  0
    4.0146   -4.0815    6.0533 C   0  0  0  0  0  0  0  0  0  0  0  0
    3.2177   -4.4060    6.9395 O   0  0  0  0  0  0  0  0  0  0  0  0
    4.3418   -5.0036    4.8553 C   0  0  0  0  0  0  0  0  0  0  0  0
    5.8075   -5.4630    5.0386 C   0  0  0  0  0  0  0  0  0  0  0  0
    3.4306   -6.2516    4.8776 C   0  0  0  0  0  0  0  0  0  0  0  0
    4.0983   -4.1855    3.5361 C   0  0  2  0  0  0  0  0  0  0  0  0
    4.7218   -4.7222    2.2063 C   0  0  1  0  0  0  0  0  0  0  0  0
    3.8393   -5.6478    1.6040 O   0  0  0  0  0  0  0  0  0  0  0  0
    5.0986   -3.4643    1.3278 C   0  0  1  0  0  0  0  0  0  0  0  0
    6.5188   -3.4671    1.2858 O   0  0  0  0  0  0  0  0  0  0  0  0
    1.2565    0.7374    2.8048 H   0  0  0  0  0  0  0  0  0  0  0  0
    1.1656   -0.1961    1.3168 H   0  0  0  0  0  0  0  0  0  0  0  0
    2.3980    1.0631    1.4971 H   0  0  0  0  0  0  0  0  0  0  0  0
    6.0880   -4.0976   -1.4001 H   0  0  0  0  0  0  0  0  0  0  0  0
    4.4778   -4.2643   -2.0864 H   0  0  0  0  0  0  0  0  0  0  0  0
    4.9550   -5.3008   -0.7714 H   0  0  0  0  0  0  0  0  0  0  0  0
    6.6518   -1.7695    0.0511 H   0  0  0  0  0  0  0  0  0  0  0  0
    3.0449   -1.1922   -1.7380 H   0  0  0  0  0  0  0  0  0  0  0  0
    4.4270   -0.1600   -2.0347 H   0  0  0  0  0  0  0  0  0  0  0  0
    4.1793   -2.8353   -2.8756 H   0  0  0  0  0  0  0  0  0  0  0  0
    4.3040    0.2018    0.5399 H   0  0  0  0  0  0  0  0  0  0  0  0
    5.2763   -1.0980    4.7059 H   0  0  0  0  0  0  0  0  0  0  0  0
    5.7244   -2.8926    6.5751 H   0  0  0  0  0  0  0  0  0  0  0  0
    4.1932   -2.0714    6.7720 H   0  0  0  0  0  0  0  0  0  0  0  0
    6.0639   -6.2903    4.3759 H   0  0  0  0  0  0  0  0  0  0  0  0
    5.9791   -5.8193    6.0569 H   0  0  0  0  0  0  0  0  0  0  0  0
    6.5148   -4.6537    4.8590 H   0  0  0  0  0  0  0  0  0  0  0  0
    3.6682   -6.9410    4.0687 H   0  0  0  0  0  0  0  0  0  0  0  0
    2.3776   -5.9881    4.7825 H   0  0  0  0  0  0  0  0  0  0  0  0
    3.5364   -6.8098    5.8087 H   0  0  0  0  0  0  0  0  0  0  0  0
    3.0176   -4.1088    3.3805 H   0  0  0  0  0  0  0  0  0  0  0  0
    5.6362   -5.2739    2.4229 H   0  0  0  0  0  0  0  0  0  0  0  0
    4.2683   -6.0196    0.8481 H   0  0  0  0  0  0  0  0  0  0  0  0
    6.7978   -4.2366    0.8153 H   0  0  0  0  0  0  0  0  0  0  0  0
  1  2  1  0
  1 29  1  0
  1 30  1  0
  1 31  1  0
  3  2  1  1
  3 13  1  0
  3 15  1  0
  3  4  1  0
  4  5  1  0
  5  6  2  0
  5  7  1  0
  7 27  1  0
  7  8  1  6
  7  9  1  0
  8 32  1  0
  8 33  1  0
  8 34  1  0
  9 10  1  6
  9 11  1  0
  9 13  1  0
 10 35  1  0
 11 12  1  0
 11 36  1  0
 11 37  1  0
 12 38  1  0
 13 14  1  0
 13 39  1  6
 14 15  1  0
 15 27  1  0
 15 16  1  1
 16 24  1  0
 16 17  2  0
 17 18  1  0
 17 40  1  0
 18 19  1  0
 18 41  1  0
 18 42  1  0
 19 20  2  0
 19 21  1  0
 21 22  1  0
 21 23  1  0
 21 24  1  0
 22 43  1  0
 22 44  1  0
 22 45  1  0
 23 46  1  0
 23 47  1  0
 23 48  1  0
 24 25  1  0
 24 49  1  6
 25 26  1  0
 25 27  1  0
 25 50  1  1
 26 51  1  0
 27 28  1  6
 28 52  1  0
M  END
>  <i_m_ct_stereo_status>  (293) 
1

>  <s_m_source_file>  (293) 
/var/tmp/pbs.5076255.sched01/tmprcd7yfff/907v12ihtf.sdf

>  <i_m_source_file_index>  (293) 
34

>  <i_lp_mmshare_version>  (293) 
48012

>  <i_f3d_flags>  (293) 
0

>  <s_epik_input>  (293) 
W0NIM11PW0NAXTEoW0NAQF0yMzQpW0NAQEhdKE8yKVtDQF0oW09IXSkoW0NIMl1bT0hdKVtDQEBdKEMoTzEpPU8pKFtDSDNdKVtDQF00KFtPSF0pW0NASF0oW09IXSlbQ0BASF01QzM9W0NIXVtDSDJdQyg9TylDNShbQ0gzXSlbQ0gzXQ==

>  <s_epik_cmdline>  (293) 
J2VwaWtfcHl0aG9uJywgJy1waHQnLCAnMi4wJywgJy1waCcsICc3LjAnLCAnLXRuJywgJzgnLCAnLW1hJywgJzIwMCcsICctaW1hZScsICc8aW5maWxlLm1hZT4nLCAnLW9tYWUnLCAnPG91dGZpbGUubWFlPic=

>  <r_lp_tautomer_probability>  (293) 
1

>  <r_epik_Ionization_Penalty>  (293) 
1.8999e-05

>  <r_epik_Ionization_Penalty_Charging>  (293) 
0

>  <r_epik_Ionization_Penalty_Neutral>  (293) 
1.8999e-05

>  <r_epik_State_Penalty>  (293) 
-0

>  <r_epik_Charging_Adjusted_Penalty>  (293) 
0

>  <i_epik_Tot_Q>  (293) 
0

>  <i_epik_Tot_abs_Q>  (293) 
0

>  <s_epik_Chemistry_Notes>  (293) 
This compound has an ester and may undergo hydrolysis at high or low pH.

>  <s_lp_Force_Field>  (293) 
OPLS3e

>  <r_lp_Energy>  (293) 
46.228

>  <b_lp_Chiralities_Consistent>  (293) 
1

>  <s_lp_Variant>  (293) 
84:0-1

>  <s_i_glide_gridfile>  (293) 
pfpi4k_grid

>  <i_i_glide_lignum>  (293) 
34

>  <i_i_glide_rotatable_bonds>  (293) 
6

>  <r_i_docking_score>  (293) 
-3.01063

>  <r_i_glide_ligand_efficiency>  (293) 
-0.107523

>  <r_i_glide_ligand_efficiency_sa>  (293) 
-0.326502

>  <r_i_glide_ligand_efficiency_ln>  (293) 
-0.694943

>  <r_i_glide_gscore>  (293) 
-3.01063

>  <r_i_glide_lipo>  (293) 
-0.237122

>  <r_i_glide_hbond>  (293) 
0

>  <r_i_glide_metal>  (293) 
-0

>  <r_i_glide_rewards>  (293) 
-1.20644

>  <r_i_glide_evdw>  (293) 
-20.9317

>  <r_i_glide_ecoul>  (293) 
-4.10505

>  <r_i_glide_erotb>  (293) 
0.124515

>  <r_i_glide_esite>  (293) 
-0.0292408

>  <r_i_glide_emodel>  (293) 
-33.365

>  <r_i_glide_energy>  (293) 
-25.0368

>  <r_i_glide_einternal>  (293) 
3.9565

>  <r_i_glide_intrahb_reward>  (293) 
-0.5

>  <i_i_glide_confnum>  (293) 
2

>  <i_i_glide_posenum>  (293) 
8

>  <r_i_glide_eff_state_penalty>  (293) 
0

>  <ligand_id>  (293) 
84

>  <original_smiles>  (293) 
COC12OC(=O)C3(C)C(O)(CO)C1OC21C2=CCC(=O)C(C)(C)C2C(O)C31O

>  <smiles>  (293) 
[H]OC([H])([H])C1(O[H])C2([H])OC34C5=C([H])C([H])([H])C(=O)C(C([H])([H])[H])(C([H])([H])[H])C5([H])C([H])(O[H])C3(O[H])C1(C([H])([H])[H])C(=O)OC24OC([H])([H])[H]

$$$$
84:0:1
     RDKit          3D

 52 56  0  0  1  0  0  0  0  0999 V2000
    3.1167   -0.6169    3.7984 C   0  0  0  0  0  0  0  0  0  0  0  0
    3.0789   -2.0379    3.7122 O   0  0  0  0  0  0  0  0  0  0  0  0
    3.6643   -2.5846    2.5229 C   0  0  1  0  0  0  0  0  0  0  0  0
    3.0231   -2.2280    1.2783 O   0  0  0  0  0  0  0  0  0  0  0  0
    3.4792   -2.7164    0.1024 C   0  0  0  0  0  0  0  0  0  0  0  0
    3.0146   -2.5096   -1.0179 O   0  0  0  0  0  0  0  0  0  0  0  0
    4.7184   -3.6039    0.2839 C   0  0  1  0  0  0  0  0  0  0  0  0
    5.2657   -4.0979   -1.0657 C   0  0  0  0  0  0  0  0  0  0  0  0
    5.7882   -2.7433    1.0732 C   0  0  1  0  0  0  0  0  0  0  0  0
    7.0080   -3.4470    1.2325 O   0  0  0  0  0  0  0  0  0  0  0  0
    6.3223   -1.4358    0.3926 C   0  0  0  0  0  0  0  0  0  0  0  0
    5.3692   -0.4645    0.0252 O   0  0  0  0  0  0  0  0  0  0  0  0
    5.2010   -2.5160    2.4860 C   0  0  2  0  0  0  0  0  0  0  0  0
    5.2289   -3.7889    3.2028 O   0  0  0  0  0  0  0  0  0  0  0  0
    3.9633   -4.0987    2.5960 C   0  0  1  0  0  0  0  0  0  0  0  0
    2.9303   -4.9441    3.2950 C   0  0  0  0  0  0  0  0  0  0  0  0
    2.8179   -5.2674    4.6016 C   0  0  0  0  0  0  0  0  0  0  0  0
    1.6823   -6.1358    5.1314 C   0  0  0  0  0  0  0  0  0  0  0  0
    0.6156   -6.4106    4.0612 C   0  0  0  0  0  0  0  0  0  0  0  0
   -0.5815   -6.4071    4.3437 O   0  0  0  0  0  0  0  0  0  0  0  0
    1.1165   -6.6739    2.6266 C   0  0  0  0  0  0  0  0  0  0  0  0
    1.8740   -8.0181    2.6451 C   0  0  0  0  0  0  0  0  0  0  0  0
   -0.0638   -6.8077    1.6421 C   0  0  0  0  0  0  0  0  0  0  0  0
    2.0267   -5.4706    2.2159 C   0  0  2  0  0  0  0  0  0  0  0  0
    2.9584   -5.6542    0.9712 C   0  0  1  0  0  0  0  0  0  0  0  0
    2.1628   -5.3434   -0.1572 O   0  0  0  0  0  0  0  0  0  0  0  0
    4.2460   -4.7665    1.2386 C   0  0  1  0  0  0  0  0  0  0  0  0
    5.2802   -5.7277    1.4334 O   0  0  0  0  0  0  0  0  0  0  0  0
    2.4574   -0.2640    4.5987 H   0  0  0  0  0  0  0  0  0  0  0  0
    2.7663   -0.1776    2.8660 H   0  0  0  0  0  0  0  0  0  0  0  0
    4.1276   -0.2508    4.0040 H   0  0  0  0  0  0  0  0  0  0  0  0
    6.2075   -4.6299   -0.9310 H   0  0  0  0  0  0  0  0  0  0  0  0
    5.4562   -3.2493   -1.7409 H   0  0  0  0  0  0  0  0  0  0  0  0
    4.5596   -4.7570   -1.5710 H   0  0  0  0  0  0  0  0  0  0  0  0
    6.7991   -4.2520    1.6840 H   0  0  0  0  0  0  0  0  0  0  0  0
    7.0649   -0.9563    1.0447 H   0  0  0  0  0  0  0  0  0  0  0  0
    6.8474   -1.7338   -0.5185 H   0  0  0  0  0  0  0  0  0  0  0  0
    4.7961   -0.2465    0.7414 H   0  0  0  0  0  0  0  0  0  0  0  0
    5.6533   -1.7153    3.0699 H   0  0  0  0  0  0  0  0  0  0  0  0
    3.5444   -4.9048    5.3179 H   0  0  0  0  0  0  0  0  0  0  0  0
    2.0737   -7.0805    5.4932 H   0  0  0  0  0  0  0  0  0  0  0  0
    1.2145   -5.6394    5.9772 H   0  0  0  0  0  0  0  0  0  0  0  0
    2.0565   -8.3945    1.6348 H   0  0  0  0  0  0  0  0  0  0  0  0
    1.2765   -8.7757    3.1542 H   0  0  0  0  0  0  0  0  0  0  0  0
    2.8304   -7.9352    3.1658 H   0  0  0  0  0  0  0  0  0  0  0  0
    0.2590   -7.0592    0.6303 H   0  0  0  0  0  0  0  0  0  0  0  0
   -0.6154   -5.8843    1.5671 H   0  0  0  0  0  0  0  0  0  0  0  0
   -0.7543   -7.5866    1.9522 H   0  0  0  0  0  0  0  0  0  0  0  0
    1.4028   -4.5929    2.0152 H   0  0  0  0  0  0  0  0  0  0  0  0
    3.2762   -6.6996    0.8621 H   0  0  0  0  0  0  0  0  0  0  0  0
    2.6383   -5.6041   -0.9407 H   0  0  0  0  0  0  0  0  0  0  0  0
    5.0226   -6.3375    2.1078 H   0  0  0  0  0  0  0  0  0  0  0  0
  1  2  1  0
  1 29  1  0
  1 30  1  0
  1 31  1  0
  3  2  1  1
  3 13  1  0
  3 15  1  0
  3  4  1  0
  4  5  1  0
  5  6  2  0
  5  7  1  0
  7 27  1  0
  7  8  1  6
  7  9  1  0
  8 32  1  0
  8 33  1  0
  8 34  1  0
  9 10  1  1
  9 11  1  0
  9 13  1  0
 10 35  1  0
 11 12  1  0
 11 36  1  0
 11 37  1  0
 12 38  1  0
 13 14  1  0
 13 39  1  1
 14 15  1  0
 15 27  1  0
 15 16  1  1
 16 24  1  0
 16 17  2  0
 17 18  1  0
 17 40  1  0
 18 19  1  0
 18 41  1  0
 18 42  1  0
 19 20  2  0
 19 21  1  0
 21 22  1  0
 21 23  1  0
 21 24  1  0
 22 43  1  0
 22 44  1  0
 22 45  1  0
 23 46  1  0
 23 47  1  0
 23 48  1  0
 24 25  1  0
 24 49  1  6
 25 26  1  0
 25 27  1  0
 25 50  1  6
 26 51  1  0
 27 28  1  1
 28 52  1  0
M  END
>  <i_m_ct_stereo_status>  (294) 
1

>  <s_m_source_file>  (294) 
/var/tmp/pbs.5076255.sched01/tmprcd7yfff/907v12ihtf.sdf

>  <i_m_source_file_index>  (294) 
34

>  <i_lp_mmshare_version>  (294) 
48012

>  <i_f3d_flags>  (294) 
0

>  <s_epik_input>  (294) 
W0NIM11PW0NAXTEoW0NAQF0yMzQpW0NAQEhdKE8yKVtDQF0oW09IXSkoW0NIMl1bT0hdKVtDQEBdKEMoTzEpPU8pKFtDSDNdKVtDQF00KFtPSF0pW0NASF0oW09IXSlbQ0BASF01QzM9W0NIXVtDSDJdQyg9TylDNShbQ0gzXSlbQ0gzXQ==

>  <s_epik_cmdline>  (294) 
J2VwaWtfcHl0aG9uJywgJy1waHQnLCAnMi4wJywgJy1waCcsICc3LjAnLCAnLXRuJywgJzgnLCAnLW1hJywgJzIwMCcsICctaW1hZScsICc8aW5maWxlLm1hZT4nLCAnLW9tYWUnLCAnPG91dGZpbGUubWFlPic=

>  <r_lp_tautomer_probability>  (294) 
1

>  <r_epik_Ionization_Penalty>  (294) 
1.8999e-05

>  <r_epik_Ionization_Penalty_Charging>  (294) 
0

>  <r_epik_Ionization_Penalty_Neutral>  (294) 
1.8999e-05

>  <r_epik_State_Penalty>  (294) 
-0

>  <r_epik_Charging_Adjusted_Penalty>  (294) 
0

>  <i_epik_Tot_Q>  (294) 
0

>  <i_epik_Tot_abs_Q>  (294) 
0

>  <s_epik_Chemistry_Notes>  (294) 
This compound has an ester and may undergo hydrolysis at high or low pH.

>  <s_lp_Force_Field>  (294) 
OPLS3e

>  <r_lp_Energy>  (294) 
46.228

>  <b_lp_Chiralities_Consistent>  (294) 
1

>  <s_lp_Variant>  (294) 
84:0-1

>  <s_i_glide_gridfile>  (294) 
pfpi4k_grid

>  <i_i_glide_lignum>  (294) 
34

>  <i_i_glide_rotatable_bonds>  (294) 
6

>  <r_i_docking_score>  (294) 
-2.76546

>  <r_i_glide_ligand_efficiency>  (294) 
-0.0987664

>  <r_i_glide_ligand_efficiency_sa>  (294) 
-0.299913

>  <r_i_glide_ligand_efficiency_ln>  (294) 
-0.638349

>  <r_i_glide_gscore>  (294) 
-2.76546

>  <r_i_glide_lipo>  (294) 
-0.256038

>  <r_i_glide_hbond>  (294) 
0

>  <r_i_glide_metal>  (294) 
-0

>  <r_i_glide_rewards>  (294) 
-1.20685

>  <r_i_glide_evdw>  (294) 
-17.512

>  <r_i_glide_ecoul>  (294) 
-3.33397

>  <r_i_glide_erotb>  (294) 
0.124515

>  <r_i_glide_esite>  (294) 
-0.0513885

>  <r_i_glide_emodel>  (294) 
-28.3593

>  <r_i_glide_energy>  (294) 
-20.846

>  <r_i_glide_einternal>  (294) 
3.93599

>  <r_i_glide_intrahb_reward>  (294) 
-0.5

>  <i_i_glide_confnum>  (294) 
5

>  <i_i_glide_posenum>  (294) 
23

>  <r_i_glide_eff_state_penalty>  (294) 
0

>  <ligand_id>  (294) 
84

>  <original_smiles>  (294) 
COC12OC(=O)C3(C)C(O)(CO)C1OC21C2=CCC(=O)C(C)(C)C2C(O)C31O

>  <smiles>  (294) 
[H]OC([H])([H])C1(O[H])C2([H])OC34C5=C([H])C([H])([H])C(=O)C(C([H])([H])[H])(C([H])([H])[H])C5([H])C([H])(O[H])C3(O[H])C1(C([H])([H])[H])C(=O)OC24OC([H])([H])[H]

$$$$
84:0:2
     RDKit          3D

 52 56  0  0  1  0  0  0  0  0999 V2000
    2.7302    0.1184    3.1625 C   0  0  0  0  0  0  0  0  0  0  0  0
    2.2464   -1.0872    2.5867 O   0  0  0  0  0  0  0  0  0  0  0  0
    3.0484   -1.7646    1.6145 C   0  0  1  0  0  0  0  0  0  0  0  0
    2.2839   -2.7054    0.8675 O   0  0  0  0  0  0  0  0  0  0  0  0
    2.8442   -3.4726   -0.0773 C   0  0  0  0  0  0  0  0  0  0  0  0
    2.1975   -4.2620   -0.7556 O   0  0  0  0  0  0  0  0  0  0  0  0
    4.3699   -3.2485   -0.2350 C   0  0  1  0  0  0  0  0  0  0  0  0
    4.9895   -4.1767   -1.3209 C   0  0  0  0  0  0  0  0  0  0  0  0
    4.4854   -1.6995   -0.5744 C   0  0  1  0  0  0  0  0  0  0  0  0
    5.8119   -1.2394   -0.7925 O   0  0  0  0  0  0  0  0  0  0  0  0
    3.7098   -1.2054   -1.8593 C   0  0  0  0  0  0  0  0  0  0  0  0
    4.0847   -1.8913   -3.0415 O   0  0  0  0  0  0  0  0  0  0  0  0
    4.0142   -0.9467    0.7131 C   0  0  2  0  0  0  0  0  0  0  0  0
    5.0360   -1.1289    1.7600 O   0  0  0  0  0  0  0  0  0  0  0  0
    4.3876   -2.3752    2.1015 C   0  0  1  0  0  0  0  0  0  0  0  0
    4.3888   -2.9396    3.5119 C   0  0  0  0  0  0  0  0  0  0  0  0
    4.6846   -2.3428    4.6824 C   0  0  0  0  0  0  0  0  0  0  0  0
    4.6051   -3.0523    6.0284 C   0  0  0  0  0  0  0  0  0  0  0  0
    4.0255   -4.4648    5.9017 C   0  0  0  0  0  0  0  0  0  0  0  0
    3.2822   -4.9198    6.7687 O   0  0  0  0  0  0  0  0  0  0  0  0
    4.4486   -5.2704    4.6488 C   0  0  0  0  0  0  0  0  0  0  0  0
    5.9612   -5.5569    4.8006 C   0  0  0  0  0  0  0  0  0  0  0  0
    3.6913   -6.6174    4.6147 C   0  0  0  0  0  0  0  0  0  0  0  0
    4.0926   -4.4199    3.3764 C   0  0  2  0  0  0  0  0  0  0  0  0
    4.7585   -4.8149    2.0176 C   0  0  1  0  0  0  0  0  0  0  0  0
    3.9894   -5.8068    1.3678 O   0  0  0  0  0  0  0  0  0  0  0  0
    4.9825   -3.4793    1.2066 C   0  0  1  0  0  0  0  0  0  0  0  0
    6.3891   -3.2963    1.1842 O   0  0  0  0  0  0  0  0  0  0  0  0
    1.9903    0.4936    3.8684 H   0  0  0  0  0  0  0  0  0  0  0  0
    2.8963    0.8920    2.4149 H   0  0  0  0  0  0  0  0  0  0  0  0
    3.6551   -0.0388    3.7110 H   0  0  0  0  0  0  0  0  0  0  0  0
    6.0034   -3.8614   -1.5642 H   0  0  0  0  0  0  0  0  0  0  0  0
    4.4139   -4.1708   -2.2525 H   0  0  0  0  0  0  0  0  0  0  0  0
    5.0301   -5.2125   -0.9883 H   0  0  0  0  0  0  0  0  0  0  0  0
    5.7795   -0.2967   -0.7146 H   0  0  0  0  0  0  0  0  0  0  0  0
    2.6310   -1.2966   -1.7471 H   0  0  0  0  0  0  0  0  0  0  0  0
    3.9187   -0.1531   -2.0542 H   0  0  0  0  0  0  0  0  0  0  0  0
    3.8548   -2.8051   -2.9401 H   0  0  0  0  0  0  0  0  0  0  0  0
    3.7497    0.0975    0.5599 H   0  0  0  0  0  0  0  0  0  0  0  0
    4.9837   -1.3079    4.7214 H   0  0  0  0  0  0  0  0  0  0  0  0
    5.5901   -3.1037    6.4810 H   0  0  0  0  0  0  0  0  0  0  0  0
    3.9726   -2.4765    6.7035 H   0  0  0  0  0  0  0  0  0  0  0  0
    6.3082   -6.3103    4.0949 H   0  0  0  0  0  0  0  0  0  0  0  0
    6.1903   -5.9377    5.7977 H   0  0  0  0  0  0  0  0  0  0  0  0
    6.5602   -4.6559    4.6554 H   0  0  0  0  0  0  0  0  0  0  0  0
    4.0022   -7.2320    3.7701 H   0  0  0  0  0  0  0  0  0  0  0  0
    2.6135   -6.4777    4.5365 H   0  0  0  0  0  0  0  0  0  0  0  0
    3.8742   -7.2033    5.5160 H   0  0  0  0  0  0  0  0  0  0  0  0
    3.0079   -4.4607    3.2297 H   0  0  0  0  0  0  0  0  0  0  0  0
    5.7341   -5.2617    2.1929 H   0  0  0  0  0  0  0  0  0  0  0  0
    4.4515   -6.0689    0.5867 H   0  0  0  0  0  0  0  0  0  0  0  0
    6.5380   -2.4332    0.8263 H   0  0  0  0  0  0  0  0  0  0  0  0
  1  2  1  0
  1 29  1  0
  1 30  1  0
  1 31  1  0
  3  2  1  1
  3 13  1  0
  3 15  1  0
  3  4  1  0
  4  5  1  0
  5  6  2  0
  5  7  1  0
  7 27  1  0
  7  8  1  6
  7  9  1  0
  8 32  1  0
  8 33  1  0
  8 34  1  0
  9 10  1  6
  9 11  1  0
  9 13  1  0
 10 35  1  0
 11 12  1  0
 11 36  1  0
 11 37  1  0
 12 38  1  0
 13 14  1  0
 13 39  1  6
 14 15  1  0
 15 27  1  0
 15 16  1  1
 16 24  1  0
 16 17  2  0
 17 18  1  0
 17 40  1  0
 18 19  1  0
 18 41  1  0
 18 42  1  0
 19 20  2  0
 19 21  1  0
 21 22  1  0
 21 23  1  0
 21 24  1  0
 22 43  1  0
 22 44  1  0
 22 45  1  0
 23 46  1  0
 23 47  1  0
 23 48  1  0
 24 25  1  0
 24 49  1  6
 25 26  1  0
 25 27  1  0
 25 50  1  1
 26 51  1  0
 27 28  1  6
 28 52  1  0
M  END
>  <i_m_ct_stereo_status>  (295) 
1

>  <s_m_source_file>  (295) 
/var/tmp/pbs.5076255.sched01/tmprcd7yfff/907v12ihtf.sdf

>  <i_m_source_file_index>  (295) 
34

>  <i_lp_mmshare_version>  (295) 
48012

>  <i_f3d_flags>  (295) 
0

>  <s_epik_input>  (295) 
W0NIM11PW0NAXTEoW0NAQF0yMzQpW0NAQEhdKE8yKVtDQF0oW09IXSkoW0NIMl1bT0hdKVtDQEBdKEMoTzEpPU8pKFtDSDNdKVtDQF00KFtPSF0pW0NASF0oW09IXSlbQ0BASF01QzM9W0NIXVtDSDJdQyg9TylDNShbQ0gzXSlbQ0gzXQ==

>  <s_epik_cmdline>  (295) 
J2VwaWtfcHl0aG9uJywgJy1waHQnLCAnMi4wJywgJy1waCcsICc3LjAnLCAnLXRuJywgJzgnLCAnLW1hJywgJzIwMCcsICctaW1hZScsICc8aW5maWxlLm1hZT4nLCAnLW9tYWUnLCAnPG91dGZpbGUubWFlPic=

>  <r_lp_tautomer_probability>  (295) 
1

>  <r_epik_Ionization_Penalty>  (295) 
1.8999e-05

>  <r_epik_Ionization_Penalty_Charging>  (295) 
0

>  <r_epik_Ionization_Penalty_Neutral>  (295) 
1.8999e-05

>  <r_epik_State_Penalty>  (295) 
-0

>  <r_epik_Charging_Adjusted_Penalty>  (295) 
0

>  <i_epik_Tot_Q>  (295) 
0

>  <i_epik_Tot_abs_Q>  (295) 
0

>  <s_epik_Chemistry_Notes>  (295) 
This compound has an ester and may undergo hydrolysis at high or low pH.

>  <s_lp_Force_Field>  (295) 
OPLS3e

>  <r_lp_Energy>  (295) 
46.228

>  <b_lp_Chiralities_Consistent>  (295) 
1

>  <s_lp_Variant>  (295) 
84:0-1

>  <s_i_glide_gridfile>  (295) 
pfpi4k_grid

>  <i_i_glide_lignum>  (295) 
34

>  <i_i_glide_rotatable_bonds>  (295) 
6

>  <r_i_docking_score>  (295) 
-2.74497

>  <r_i_glide_ligand_efficiency>  (295) 
-0.0980346

>  <r_i_glide_ligand_efficiency_sa>  (295) 
-0.297691

>  <r_i_glide_ligand_efficiency_ln>  (295) 
-0.63362

>  <r_i_glide_gscore>  (295) 
-2.74497

>  <r_i_glide_lipo>  (295) 
-0.139384

>  <r_i_glide_hbond>  (295) 
-0.00152325

>  <r_i_glide_metal>  (295) 
-0

>  <r_i_glide_rewards>  (295) 
-1.20644

>  <r_i_glide_evdw>  (295) 
-18.6614

>  <r_i_glide_ecoul>  (295) 
-3.66066

>  <r_i_glide_erotb>  (295) 
0.124515

>  <r_i_glide_esite>  (295) 
-0.0399683

>  <r_i_glide_emodel>  (295) 
-27.4718

>  <r_i_glide_energy>  (295) 
-22.322

>  <r_i_glide_einternal>  (295) 
8.72414

>  <r_i_glide_intrahb_reward>  (295) 
-0.5

>  <i_i_glide_confnum>  (295) 
5

>  <i_i_glide_posenum>  (295) 
20

>  <r_i_glide_eff_state_penalty>  (295) 
0

>  <ligand_id>  (295) 
84

>  <original_smiles>  (295) 
COC12OC(=O)C3(C)C(O)(CO)C1OC21C2=CCC(=O)C(C)(C)C2C(O)C31O

>  <smiles>  (295) 
[H]OC([H])([H])C1(O[H])C2([H])OC34C5=C([H])C([H])([H])C(=O)C(C([H])([H])[H])(C([H])([H])[H])C5([H])C([H])(O[H])C3(O[H])C1(C([H])([H])[H])C(=O)OC24OC([H])([H])[H]

$$$$
85:0:0
     RDKit          3D

 32 37  0  0  1  0  0  0  0  0999 V2000
    5.9990   -2.2689    0.4801 C   0  0  0  0  0  0  0  0  0  0  0  0
    5.5053   -1.3497   -0.3813 C   0  0  0  0  0  0  0  0  0  0  0  0
    4.5103   -1.6363   -1.4459 C   0  0  0  0  0  0  0  0  0  0  0  0
    4.3912   -0.7584   -2.5465 C   0  0  0  0  0  0  0  0  0  0  0  0
    3.4911   -1.0414   -3.5872 C   0  0  0  0  0  0  0  0  0  0  0  0
    2.6917   -2.1989   -3.5304 C   0  0  0  0  0  0  0  0  0  0  0  0
    2.7854   -3.0668   -2.4320 C   0  0  0  0  0  0  0  0  0  0  0  0
    3.7001   -2.8225   -1.3929 C   0  0  0  0  0  0  0  0  0  0  0  0
    3.7034   -3.7714   -0.1589 C   0  0  1  0  0  0  0  0  0  0  0  0
    2.9857   -2.7130    0.7657 C   0  0  0  0  0  0  0  0  0  0  0  0
    2.6477   -2.6690    2.0745 C   0  0  0  0  0  0  0  0  0  0  0  0
    2.9819   -3.6438    3.1912 C   0  0  1  0  0  0  0  0  0  0  0  0
    2.9841   -5.0374    2.7822 N   0  0  0  0  0  0  0  0  0  0  0  0
    4.3733   -4.7967    2.4483 C   0  0  2  0  0  0  0  0  0  0  0  0
    4.4039   -3.6852    3.3586 O   0  0  0  0  0  0  0  0  0  0  0  0
    4.6130   -4.4069    0.9823 C   0  0  1  0  0  0  0  0  0  0  0  0
    5.0744   -5.4514    0.0153 C   0  0  0  0  0  0  0  0  0  0  0  0
    5.1854   -4.1172   -0.6499 C   0  0  0  0  0  0  0  0  0  0  0  0
    5.7773   -3.6008    0.4275 C   0  0  0  0  0  0  0  0  0  0  0  0
    6.6837   -1.9228    1.2403 H   0  0  0  0  0  0  0  0  0  0  0  0
    5.7882   -0.3172   -0.2512 H   0  0  0  0  0  0  0  0  0  0  0  0
    4.9985    0.1362   -2.5867 H   0  0  0  0  0  0  0  0  0  0  0  0
    3.4039   -0.3622   -4.4213 H   0  0  0  0  0  0  0  0  0  0  0  0
    1.9883   -2.4112   -4.3207 H   0  0  0  0  0  0  0  0  0  0  0  0
    2.1422   -3.9298   -2.3847 H   0  0  0  0  0  0  0  0  0  0  0  0
    2.5586   -1.8557    0.2632 H   0  0  0  0  0  0  0  0  0  0  0  0
    2.0904   -1.8078    2.4146 H   0  0  0  0  0  0  0  0  0  0  0  0
    2.4435   -3.4762    4.1239 H   0  0  0  0  0  0  0  0  0  0  0  0
    2.9477   -5.6085    3.6107 H   0  0  0  0  0  0  0  0  0  0  0  0
    5.0284   -5.5979    2.7923 H   0  0  0  0  0  0  0  0  0  0  0  0
    5.9863   -5.9763    0.3241 H   0  0  0  0  0  0  0  0  0  0  0  0
    4.2689   -6.1425   -0.2511 H   0  0  0  0  0  0  0  0  0  0  0  0
  1 19  1  0
  1  2  2  0
  1 20  1  0
  2  3  1  0
  2 21  1  0
  3  8  2  0
  3  4  1  0
  4  5  2  0
  4 22  1  0
  5  6  1  0
  5 23  1  0
  6  7  2  0
  6 24  1  0
  7  8  1  0
  7 25  1  0
  9  8  1  1
  9 16  1  0
  9 18  1  0
  9 10  1  0
 10 11  2  0
 10 26  1  0
 11 12  1  0
 11 27  1  0
 12 15  1  0
 12 13  1  0
 12 28  1  1
 13 14  1  0
 13 29  1  0
 14 15  1  0
 14 16  1  0
 14 30  1  1
 16 19  1  0
 16 17  1  6
 17 18  1  0
 17 31  1  0
 17 32  1  0
 18 19  2  0
M  END
>  <i_m_ct_stereo_status>  (296) 
1

>  <s_m_source_file>  (296) 
/var/tmp/pbs.5076255.sched01/tmprcd7yfff/907v12ihtf.sdf

>  <i_m_source_file_index>  (296) 
35

>  <i_lp_mmshare_version>  (296) 
48012

>  <i_f3d_flags>  (296) 
0

>  <s_epik_input>  (296) 
W0NIXTE9W0NIXVtDQEhdKE8yKVtOSF1bQ0BIXTJDMyhbQ0BdMTQ1KUMoPUM1W0NIMl0zKVtDSF09W0NIXWM2YzRbY0hdW2NIXVtjSF1bY0hdNg==

>  <s_epik_cmdline>  (296) 
J2VwaWtfcHl0aG9uJywgJy1waHQnLCAnMi4wJywgJy1waCcsICc3LjAnLCAnLXRuJywgJzgnLCAnLW1hJywgJzIwMCcsICctaW1hZScsICc8aW5maWxlLm1hZT4nLCAnLW9tYWUnLCAnPG91dGZpbGUubWFlPic=

>  <r_epik_Ionization_Penalty>  (296) 
0.000767223

>  <r_epik_Ionization_Penalty_Charging>  (296) 
0

>  <r_epik_Ionization_Penalty_Neutral>  (296) 
0.000767223

>  <r_epik_State_Penalty>  (296) 
0.000491281

>  <r_epik_Charging_Adjusted_Penalty>  (296) 
0.000491281

>  <i_epik_Tot_Q>  (296) 
0

>  <i_epik_Tot_abs_Q>  (296) 
0

>  <s_epik_Chemistry_Notes>  (296) 
This compound contains an acetal/aminal-like group ( X-CH(R)-Y where X, Y are N, S, or O) that may be acid/base labile, releasing an aldehyde.

>  <s_lp_Force_Field>  (296) 
OPLS3e

>  <r_lp_Energy>  (296) 
209.867

>  <b_lp_Chiralities_Consistent>  (296) 
1

>  <s_lp_Variant>  (296) 
85:0-1

>  <s_i_glide_gridfile>  (296) 
pfpi4k_grid

>  <i_i_glide_lignum>  (296) 
35

>  <i_i_glide_rotatable_bonds>  (296) 
0

>  <r_i_docking_score>  (296) 
-3.88885

>  <r_i_glide_ligand_efficiency>  (296) 
-0.204676

>  <r_i_glide_ligand_efficiency_sa>  (296) 
-0.546158

>  <r_i_glide_ligand_efficiency_ln>  (296) 
-0.985907

>  <r_i_glide_gscore>  (296) 
-3.88885

>  <r_i_glide_lipo>  (296) 
-0.712233

>  <r_i_glide_hbond>  (296) 
0

>  <r_i_glide_metal>  (296) 
-0

>  <r_i_glide_rewards>  (296) 
-1.72821

>  <r_i_glide_evdw>  (296) 
-23.4127

>  <r_i_glide_ecoul>  (296) 
-1.85132

>  <r_i_glide_erotb>  (296) 
0

>  <r_i_glide_esite>  (296) 
-6.83622e-05

>  <r_i_glide_emodel>  (296) 
-30.9793

>  <r_i_glide_energy>  (296) 
-25.2641

>  <r_i_glide_einternal>  (296) 
0

>  <r_i_glide_intrahb_reward>  (296) 
-0

>  <i_i_glide_confnum>  (296) 
2

>  <i_i_glide_posenum>  (296) 
1

>  <r_i_glide_eff_state_penalty>  (296) 
0

>  <ligand_id>  (296) 
85

>  <original_smiles>  (296) 
C1=Cc2ccccc2C23C=CC4NC(O4)C24CC3=C14

>  <smiles>  (296) 
[H]C1=C([H])c2c([H])c([H])c([H])c([H])c2C23C([H])=C([H])C4([H])OC([H])(N4[H])C24C1=C3C4([H])[H]

$$$$
85:0:1
     RDKit          3D

 32 37  0  0  1  0  0  0  0  0999 V2000
    4.6545   -4.2970    1.0507 C   0  0  0  0  0  0  0  0  0  0  0  0
    5.0989   -4.3368   -0.2252 C   0  0  0  0  0  0  0  0  0  0  0  0
    4.6122   -3.4561   -1.3189 C   0  0  0  0  0  0  0  0  0  0  0  0
    4.7993   -3.8451   -2.6583 C   0  0  0  0  0  0  0  0  0  0  0  0
    4.2817   -3.0746   -3.7088 C   0  0  0  0  0  0  0  0  0  0  0  0
    3.5915   -1.8837   -3.4337 C   0  0  0  0  0  0  0  0  0  0  0  0
    3.4134   -1.4786   -2.1023 C   0  0  0  0  0  0  0  0  0  0  0  0
    3.8943   -2.2509   -1.0268 C   0  0  0  0  0  0  0  0  0  0  0  0
    3.7444   -1.7051    0.4212 C   0  0  1  0  0  0  0  0  0  0  0  0
    5.2729   -1.3555    0.5202 C   0  0  0  0  0  0  0  0  0  0  0  0
    6.0720   -0.9118    1.5141 C   0  0  0  0  0  0  0  0  0  0  0  0
    5.7582   -0.6571    2.9753 C   0  0  1  0  0  0  0  0  0  0  0  0
    4.4247   -0.1549    3.2222 N   0  0  0  0  0  0  0  0  0  0  0  0
    4.0551   -1.5520    3.2836 C   0  0  2  0  0  0  0  0  0  0  0  0
    5.4141   -1.9022    3.5924 O   0  0  0  0  0  0  0  0  0  0  0  0
    3.5664   -2.1169    1.9497 C   0  0  1  0  0  0  0  0  0  0  0  0
    2.1006   -2.2592    1.7174 C   0  0  0  0  0  0  0  0  0  0  0  0
    2.8131   -2.9910    0.6249 C   0  0  0  0  0  0  0  0  0  0  0  0
    3.6095   -3.5783    1.5174 C   0  0  0  0  0  0  0  0  0  0  0  0
    5.1242   -4.9591    1.7558 H   0  0  0  0  0  0  0  0  0  0  0  0
    5.9056   -5.0069   -0.4656 H   0  0  0  0  0  0  0  0  0  0  0  0
    5.2996   -4.7710   -2.8831 H   0  0  0  0  0  0  0  0  0  0  0  0
    4.4093   -3.4196   -4.7193 H   0  0  0  0  0  0  0  0  0  0  0  0
    3.1815   -1.2848   -4.2345 H   0  0  0  0  0  0  0  0  0  0  0  0
    2.8512   -0.5853   -1.9054 H   0  0  0  0  0  0  0  0  0  0  0  0
    5.8288   -1.3562   -0.4075 H   0  0  0  0  0  0  0  0  0  0  0  0
    7.0977   -0.6913    1.2653 H   0  0  0  0  0  0  0  0  0  0  0  0
    6.5288   -0.1092    3.5205 H   0  0  0  0  0  0  0  0  0  0  0  0
    4.4005    0.2359    4.1486 H   0  0  0  0  0  0  0  0  0  0  0  0
    3.3952   -1.7770    4.1214 H   0  0  0  0  0  0  0  0  0  0  0  0
    1.5768   -2.8308    2.4936 H   0  0  0  0  0  0  0  0  0  0  0  0
    1.6283   -1.2880    1.5449 H   0  0  0  0  0  0  0  0  0  0  0  0
  1 19  1  0
  1  2  2  0
  1 20  1  0
  2  3  1  0
  2 21  1  0
  3  8  2  0
  3  4  1  0
  4  5  2  0
  4 22  1  0
  5  6  1  0
  5 23  1  0
  6  7  2  0
  6 24  1  0
  7  8  1  0
  7 25  1  0
  9  8  1  6
  9 16  1  0
  9 18  1  0
  9 10  1  0
 10 11  2  0
 10 26  1  0
 11 12  1  0
 11 27  1  0
 12 15  1  0
 12 13  1  0
 12 28  1  1
 13 14  1  0
 13 29  1  0
 14 15  1  0
 14 16  1  0
 14 30  1  1
 16 19  1  0
 16 17  1  1
 17 18  1  0
 17 31  1  0
 17 32  1  0
 18 19  2  0
M  END
>  <i_m_ct_stereo_status>  (297) 
1

>  <s_m_source_file>  (297) 
/var/tmp/pbs.5076255.sched01/tmprcd7yfff/907v12ihtf.sdf

>  <i_m_source_file_index>  (297) 
35

>  <i_lp_mmshare_version>  (297) 
48012

>  <i_f3d_flags>  (297) 
0

>  <s_epik_input>  (297) 
W0NIXTE9W0NIXVtDQEhdKE8yKVtOSF1bQ0BIXTJDMyhbQ0BdMTQ1KUMoPUM1W0NIMl0zKVtDSF09W0NIXWM2YzRbY0hdW2NIXVtjSF1bY0hdNg==

>  <s_epik_cmdline>  (297) 
J2VwaWtfcHl0aG9uJywgJy1waHQnLCAnMi4wJywgJy1waCcsICc3LjAnLCAnLXRuJywgJzgnLCAnLW1hJywgJzIwMCcsICctaW1hZScsICc8aW5maWxlLm1hZT4nLCAnLW9tYWUnLCAnPG91dGZpbGUubWFlPic=

>  <r_epik_Ionization_Penalty>  (297) 
0.000767223

>  <r_epik_Ionization_Penalty_Charging>  (297) 
0

>  <r_epik_Ionization_Penalty_Neutral>  (297) 
0.000767223

>  <r_epik_State_Penalty>  (297) 
0.000491281

>  <r_epik_Charging_Adjusted_Penalty>  (297) 
0.000491281

>  <i_epik_Tot_Q>  (297) 
0

>  <i_epik_Tot_abs_Q>  (297) 
0

>  <s_epik_Chemistry_Notes>  (297) 
This compound contains an acetal/aminal-like group ( X-CH(R)-Y where X, Y are N, S, or O) that may be acid/base labile, releasing an aldehyde.

>  <s_lp_Force_Field>  (297) 
OPLS3e

>  <r_lp_Energy>  (297) 
209.867

>  <b_lp_Chiralities_Consistent>  (297) 
1

>  <s_lp_Variant>  (297) 
85:0-1

>  <s_i_glide_gridfile>  (297) 
pfpi4k_grid

>  <i_i_glide_lignum>  (297) 
35

>  <i_i_glide_rotatable_bonds>  (297) 
0

>  <r_i_docking_score>  (297) 
-3.40687

>  <r_i_glide_ligand_efficiency>  (297) 
-0.179309

>  <r_i_glide_ligand_efficiency_sa>  (297) 
-0.478468

>  <r_i_glide_ligand_efficiency_ln>  (297) 
-0.863714

>  <r_i_glide_gscore>  (297) 
-3.40687

>  <r_i_glide_lipo>  (297) 
-0.635536

>  <r_i_glide_hbond>  (297) 
0

>  <r_i_glide_metal>  (297) 
-0

>  <r_i_glide_rewards>  (297) 
-1.85777

>  <r_i_glide_evdw>  (297) 
-19.2148

>  <r_i_glide_ecoul>  (297) 
0.314503

>  <r_i_glide_erotb>  (297) 
0

>  <r_i_glide_esite>  (297) 
0

>  <r_i_glide_emodel>  (297) 
-23.7979

>  <r_i_glide_energy>  (297) 
-18.9003

>  <r_i_glide_einternal>  (297) 
0

>  <r_i_glide_intrahb_reward>  (297) 
-0

>  <i_i_glide_confnum>  (297) 
1

>  <i_i_glide_posenum>  (297) 
5

>  <r_i_glide_eff_state_penalty>  (297) 
0

>  <ligand_id>  (297) 
85

>  <original_smiles>  (297) 
C1=Cc2ccccc2C23C=CC4NC(O4)C24CC3=C14

>  <smiles>  (297) 
[H]C1=C([H])c2c([H])c([H])c([H])c([H])c2C23C([H])=C([H])C4([H])OC([H])(N4[H])C24C1=C3C4([H])[H]

$$$$
85:0:2
     RDKit          3D

 32 37  0  0  1  0  0  0  0  0999 V2000
    5.3199   -3.9539   -0.0387 C   0  0  0  0  0  0  0  0  0  0  0  0
    5.6061   -3.5680   -1.2984 C   0  0  0  0  0  0  0  0  0  0  0  0
    4.7548   -2.6713   -2.1060 C   0  0  0  0  0  0  0  0  0  0  0  0
    4.8674   -2.7003   -3.5019 C   0  0  0  0  0  0  0  0  0  0  0  0
    4.0554   -1.8432   -4.2783 C   0  0  0  0  0  0  0  0  0  0  0  0
    3.1144   -1.0159   -3.7007 C   0  0  0  0  0  0  0  0  0  0  0  0
    3.0055   -1.0118   -2.3196 C   0  0  0  0  0  0  0  0  0  0  0  0
    3.7807   -1.8350   -1.4930 C   0  0  0  0  0  0  0  0  0  0  0  0
    3.6209   -1.7061    0.0425 C   0  0  1  0  0  0  0  0  0  0  0  0
    4.9692   -0.9199    0.1660 C   0  0  0  0  0  0  0  0  0  0  0  0
    5.7138   -0.4751    1.1945 C   0  0  0  0  0  0  0  0  0  0  0  0
    5.5277   -0.6777    2.6861 C   0  0  1  0  0  0  0  0  0  0  0  0
    4.1466   -0.6952    3.1215 N   0  0  0  0  0  0  0  0  0  0  0  0
    4.2079   -2.1106    2.8319 C   0  0  2  0  0  0  0  0  0  0  0  0
    5.6325   -2.0730    2.9754 O   0  0  0  0  0  0  0  0  0  0  0  0
    3.7493   -2.4887    1.4218 C   0  0  1  0  0  0  0  0  0  0  0  0
    2.3766   -3.0198    1.2267 C   0  0  0  0  0  0  0  0  0  0  0  0
    3.1232   -3.2298   -0.0422 C   0  0  0  0  0  0  0  0  0  0  0  0
    4.1654   -3.7197    0.6298 C   0  0  0  0  0  0  0  0  0  0  0  0
    6.0380   -4.5777    0.4555 H   0  0  0  0  0  0  0  0  0  0  0  0
    6.5405   -3.8549   -1.7412 H   0  0  0  0  0  0  0  0  0  0  0  0
    5.5946   -3.3711   -3.9181 H   0  0  0  0  0  0  0  0  0  0  0  0
    4.0911   -1.7210   -5.3255 H   0  0  0  0  0  0  0  0  0  0  0  0
    2.4577   -0.4014   -4.3093 H   0  0  0  0  0  0  0  0  0  0  0  0
    2.2511   -0.3502   -1.9302 H   0  0  0  0  0  0  0  0  0  0  0  0
    5.3853   -0.5255   -0.7490 H   0  0  0  0  0  0  0  0  0  0  0  0
    6.5923    0.0884    0.9033 H   0  0  0  0  0  0  0  0  0  0  0  0
    6.1655   -0.0650    3.3223 H   0  0  0  0  0  0  0  0  0  0  0  0
    4.1193   -0.5553    4.1183 H   0  0  0  0  0  0  0  0  0  0  0  0
    3.7563   -2.7193    3.6143 H   0  0  0  0  0  0  0  0  0  0  0  0
    2.1432   -3.8795    1.8517 H   0  0  0  0  0  0  0  0  0  0  0  0
    1.6394   -2.2250    1.3281 H   0  0  0  0  0  0  0  0  0  0  0  0
  1 19  1  0
  1  2  2  0
  1 20  1  0
  2  3  1  0
  2 21  1  0
  3  8  2  0
  3  4  1  0
  4  5  2  0
  4 22  1  0
  5  6  1  0
  5 23  1  0
  6  7  2  0
  6 24  1  0
  7  8  1  0
  7 25  1  0
  9  8  1  6
  9 16  1  0
  9 18  1  0
  9 10  1  0
 10 11  2  0
 10 26  1  0
 11 12  1  0
 11 27  1  0
 12 15  1  0
 12 13  1  0
 12 28  1  1
 13 14  1  0
 13 29  1  0
 14 15  1  0
 14 16  1  0
 14 30  1  1
 16 19  1  0
 16 17  1  1
 17 18  1  0
 17 31  1  0
 17 32  1  0
 18 19  2  0
M  END
>  <i_m_ct_stereo_status>  (298) 
1

>  <s_m_source_file>  (298) 
/var/tmp/pbs.5076255.sched01/tmprcd7yfff/907v12ihtf.sdf

>  <i_m_source_file_index>  (298) 
35

>  <i_lp_mmshare_version>  (298) 
48012

>  <i_f3d_flags>  (298) 
0

>  <s_epik_input>  (298) 
W0NIXTE9W0NIXVtDQEhdKE8yKVtOSF1bQ0BIXTJDMyhbQ0BdMTQ1KUMoPUM1W0NIMl0zKVtDSF09W0NIXWM2YzRbY0hdW2NIXVtjSF1bY0hdNg==

>  <s_epik_cmdline>  (298) 
J2VwaWtfcHl0aG9uJywgJy1waHQnLCAnMi4wJywgJy1waCcsICc3LjAnLCAnLXRuJywgJzgnLCAnLW1hJywgJzIwMCcsICctaW1hZScsICc8aW5maWxlLm1hZT4nLCAnLW9tYWUnLCAnPG91dGZpbGUubWFlPic=

>  <r_epik_Ionization_Penalty>  (298) 
0.000767223

>  <r_epik_Ionization_Penalty_Charging>  (298) 
0

>  <r_epik_Ionization_Penalty_Neutral>  (298) 
0.000767223

>  <r_epik_State_Penalty>  (298) 
0.000491281

>  <r_epik_Charging_Adjusted_Penalty>  (298) 
0.000491281

>  <i_epik_Tot_Q>  (298) 
0

>  <i_epik_Tot_abs_Q>  (298) 
0

>  <s_epik_Chemistry_Notes>  (298) 
This compound contains an acetal/aminal-like group ( X-CH(R)-Y where X, Y are N, S, or O) that may be acid/base labile, releasing an aldehyde.

>  <s_lp_Force_Field>  (298) 
OPLS3e

>  <r_lp_Energy>  (298) 
209.867

>  <b_lp_Chiralities_Consistent>  (298) 
1

>  <s_lp_Variant>  (298) 
85:0-1

>  <s_i_glide_gridfile>  (298) 
pfpi4k_grid

>  <i_i_glide_lignum>  (298) 
35

>  <i_i_glide_rotatable_bonds>  (298) 
0

>  <r_i_docking_score>  (298) 
-2.72661

>  <r_i_glide_ligand_efficiency>  (298) 
-0.143506

>  <r_i_glide_ligand_efficiency_sa>  (298) 
-0.382932

>  <r_i_glide_ligand_efficiency_ln>  (298) 
-0.691255

>  <r_i_glide_gscore>  (298) 
-2.72661

>  <r_i_glide_lipo>  (298) 
-0.658551

>  <r_i_glide_hbond>  (298) 
0

>  <r_i_glide_metal>  (298) 
-0

>  <r_i_glide_rewards>  (298) 
-1.86671

>  <r_i_glide_evdw>  (298) 
-9.53522

>  <r_i_glide_ecoul>  (298) 
1.83605

>  <r_i_glide_erotb>  (298) 
0

>  <r_i_glide_esite>  (298) 
0

>  <r_i_glide_emodel>  (298) 
-11.1793

>  <r_i_glide_energy>  (298) 
-7.69917

>  <r_i_glide_einternal>  (298) 
0

>  <r_i_glide_intrahb_reward>  (298) 
-0

>  <i_i_glide_confnum>  (298) 
2

>  <i_i_glide_posenum>  (298) 
11

>  <r_i_glide_eff_state_penalty>  (298) 
0

>  <ligand_id>  (298) 
85

>  <original_smiles>  (298) 
C1=Cc2ccccc2C23C=CC4NC(O4)C24CC3=C14

>  <smiles>  (298) 
[H]C1=C([H])c2c([H])c([H])c([H])c([H])c2C23C([H])=C([H])C4([H])OC([H])(N4[H])C24C1=C3C4([H])[H]

$$$$
85:1:0
     RDKit          3D

 32 37  0  0  1  0  0  0  0  0999 V2000
   -9.3950   -5.0581   -7.2408 C   0  0  0  0  0  0  0  0  0  0  0  0
   -8.5807   -5.4292   -6.2621 C   0  0  0  0  0  0  0  0  0  0  0  0
   -7.5294   -6.4317   -6.3483 C   0  0  0  0  0  0  0  0  0  0  0  0
   -6.7289   -6.5883   -5.1937 C   0  0  0  0  0  0  0  0  0  0  0  0
   -5.6686   -7.5011   -5.1786 C   0  0  0  0  0  0  0  0  0  0  0  0
   -5.4039   -8.2657   -6.3253 C   0  0  0  0  0  0  0  0  0  0  0  0
   -6.2079   -8.1184   -7.4719 C   0  0  0  0  0  0  0  0  0  0  0  0
   -7.2970   -7.2102   -7.5166 C   0  0  0  0  0  0  0  0  0  0  0  0
   -8.1411   -7.0921   -8.8254 C   0  0  1  0  0  0  0  0  0  0  0  0
   -7.8339   -8.2665   -9.7701 C   0  0  0  0  0  0  0  0  0  0  0  0
   -8.6134   -9.3612   -9.9210 C   0  0  0  0  0  0  0  0  0  0  0  0
   -9.9706   -9.6429   -9.2477 C   0  0  1  0  0  0  0  0  0  0  0  0
  -10.1362   -9.1005   -7.9123 N   0  0  0  0  0  0  0  0  0  0  0  0
  -10.6965   -7.9182   -8.5451 C   0  0  2  0  0  0  0  0  0  0  0  0
  -10.9807   -8.7257   -9.7142 O   0  0  0  0  0  0  0  0  0  0  0  0
   -9.6494   -6.8900   -8.9532 C   0  0  2  0  0  0  0  0  0  0  0  0
   -9.4885   -6.1995  -10.3095 C   0  0  0  0  0  0  0  0  0  0  0  0
   -8.3914   -5.6627   -9.3758 C   0  0  0  0  0  0  0  0  0  0  0  0
   -9.4326   -5.4366   -8.5294 C   0  0  0  0  0  0  0  0  0  0  0  0
  -10.1164   -4.3088   -6.9750 H   0  0  0  0  0  0  0  0  0  0  0  0
   -8.7295   -4.9688   -5.2960 H   0  0  0  0  0  0  0  0  0  0  0  0
   -6.9334   -6.0025   -4.3065 H   0  0  0  0  0  0  0  0  0  0  0  0
   -5.0641   -7.6284   -4.2909 H   0  0  0  0  0  0  0  0  0  0  0  0
   -4.5803   -8.9689   -6.3236 H   0  0  0  0  0  0  0  0  0  0  0  0
   -5.9317   -8.7228   -8.3200 H   0  0  0  0  0  0  0  0  0  0  0  0
   -6.9134   -8.1989  -10.3225 H   0  0  0  0  0  0  0  0  0  0  0  0
   -8.2832  -10.1328  -10.5925 H   0  0  0  0  0  0  0  0  0  0  0  0
  -10.2818  -10.6868   -9.3021 H   0  0  0  0  0  0  0  0  0  0  0  0
  -10.8885   -9.5947   -7.4624 H   0  0  0  0  0  0  0  0  0  0  0  0
  -11.6146   -7.5255   -8.0941 H   0  0  0  0  0  0  0  0  0  0  0  0
   -9.2672   -6.8637  -11.1450 H   0  0  0  0  0  0  0  0  0  0  0  0
  -10.3262   -5.5483  -10.6071 H   0  0  0  0  0  0  0  0  0  0  0  0
  1 19  1  0
  1  2  2  0
  1 20  1  0
  2  3  1  0
  2 21  1  0
  3  8  2  0
  3  4  1  0
  4  5  2  0
  4 22  1  0
  5  6  1  0
  5 23  1  0
  6  7  2  0
  6 24  1  0
  7  8  1  0
  7 25  1  0
  9  8  1  1
  9 16  1  0
  9 18  1  0
  9 10  1  0
 10 11  2  0
 10 26  1  0
 11 12  1  0
 11 27  1  0
 12 15  1  0
 12 13  1  0
 12 28  1  1
 13 14  1  0
 13 29  1  0
 14 15  1  0
 14 16  1  0
 14 30  1  1
 16 19  1  0
 16 17  1  6
 17 18  1  0
 17 31  1  0
 17 32  1  0
 18 19  2  0
M  END
>  <i_m_ct_stereo_status>  (299) 
1

>  <s_m_source_file>  (299) 
/var/tmp/pbs.5076255.sched01/tmprcd7yfff/907v12ihtf.sdf

>  <i_m_source_file_index>  (299) 
36

>  <i_lp_mmshare_version>  (299) 
48012

>  <i_f3d_flags>  (299) 
0

>  <s_epik_input>  (299) 
W0NIXTE9W0NIXVtDQEhdKE8yKVtOSF1bQ0BIXTJDMyhbQ0BdMTQ1KUMoPUM1W0NIMl0zKVtDSF09W0NIXWM2YzRbY0hdW2NIXVtjSF1bY0hdNg==

>  <s_epik_cmdline>  (299) 
J2VwaWtfcHl0aG9uJywgJy1waHQnLCAnMi4wJywgJy1waCcsICc3LjAnLCAnLXRuJywgJzgnLCAnLW1hJywgJzIwMCcsICctaW1hZScsICc8aW5maWxlLm1hZT4nLCAnLW9tYWUnLCAnPG91dGZpbGUubWFlPic=

>  <r_epik_Ionization_Penalty>  (299) 
0.000767223

>  <r_epik_Ionization_Penalty_Charging>  (299) 
0

>  <r_epik_Ionization_Penalty_Neutral>  (299) 
0.000767223

>  <r_epik_State_Penalty>  (299) 
0.000491281

>  <r_epik_Charging_Adjusted_Penalty>  (299) 
0.000491281

>  <i_epik_Tot_Q>  (299) 
0

>  <i_epik_Tot_abs_Q>  (299) 
0

>  <s_epik_Chemistry_Notes>  (299) 
This compound contains an acetal/aminal-like group ( X-CH(R)-Y where X, Y are N, S, or O) that may be acid/base labile, releasing an aldehyde.

>  <s_lp_Force_Field>  (299) 
OPLS3e

>  <r_lp_Energy>  (299) 
118.378

>  <b_lp_Chiralities_Consistent>  (299) 
1

>  <s_lp_Variant>  (299) 
85:0-2

>  <s_i_glide_gridfile>  (299) 
pfpi4k_grid

>  <i_i_glide_lignum>  (299) 
36

>  <i_i_glide_rotatable_bonds>  (299) 
0

>  <r_i_docking_score>  (299) 
-6.26268

>  <r_i_glide_ligand_efficiency>  (299) 
-0.329615

>  <r_i_glide_ligand_efficiency_sa>  (299) 
-0.879545

>  <r_i_glide_ligand_efficiency_ln>  (299) 
-1.58772

>  <r_i_glide_gscore>  (299) 
-6.26268

>  <r_i_glide_lipo>  (299) 
-2.58677

>  <r_i_glide_hbond>  (299) 
0

>  <r_i_glide_metal>  (299) 
-0

>  <r_i_glide_rewards>  (299) 
-2.27183

>  <r_i_glide_evdw>  (299) 
-24.677

>  <r_i_glide_ecoul>  (299) 
-1.05122

>  <r_i_glide_erotb>  (299) 
0

>  <r_i_glide_esite>  (299) 
-0.0125471

>  <r_i_glide_emodel>  (299) 
-35.2623

>  <r_i_glide_energy>  (299) 
-25.7283

>  <r_i_glide_einternal>  (299) 
0

>  <r_i_glide_intrahb_reward>  (299) 
-0

>  <i_i_glide_confnum>  (299) 
1

>  <i_i_glide_posenum>  (299) 
6

>  <r_i_glide_eff_state_penalty>  (299) 
0

>  <ligand_id>  (299) 
85

>  <original_smiles>  (299) 
C1=Cc2ccccc2C23C=CC4NC(O4)C24CC3=C14

>  <smiles>  (299) 
[H]C1=C([H])c2c([H])c([H])c([H])c([H])c2C23C([H])=C([H])C4([H])OC([H])(N4[H])C24C1=C3C4([H])[H]

$$$$
86:0:0
     RDKit          3D

 31 34  0  0  1  0  0  0  0  0999 V2000
    5.9813   -3.2736   -2.2105 C   0  0  0  0  0  0  0  0  0  0  0  0
    4.8239   -2.4148   -2.2712 N   0  0  0  0  0  0  0  0  0  0  0  0
    4.4259   -1.6738   -3.3631 C   0  0  0  0  0  0  0  0  0  0  0  0
    3.3199   -0.9633   -3.0064 C   0  0  0  0  0  0  0  0  0  0  0  0
    3.0331   -1.3463   -1.7122 N   0  0  0  0  0  0  0  0  0  0  0  0
    3.9511   -2.2030   -1.2587 C   0  0  0  0  0  0  0  0  0  0  0  0
    3.9377   -2.7338    0.1291 C   0  0  0  0  0  0  0  0  0  0  0  0
    3.2185   -2.2112    1.0287 N   0  0  0  0  0  0  0  0  0  0  0  0
    3.3931   -2.8595    2.2701 O   0  0  0  0  0  0  0  0  0  0  0  0
    4.2361   -3.9948    2.0882 C   0  0  2  0  0  0  0  0  0  0  0  0
    4.7248   -3.9008    0.6544 C   0  0  1  0  0  0  0  0  0  0  0  0
    4.3830   -5.2372   -0.0322 C   0  0  0  0  0  0  0  0  0  0  0  0
    3.5511   -6.0312    0.9364 C   0  0  2  0  0  0  0  0  0  0  0  0
    2.1942   -5.5277    1.3776 C   0  0  1  0  0  0  0  0  0  0  0  0
    1.1659   -6.5390    1.8841 C   0  0  0  0  0  0  0  0  0  0  0  0
   -0.0144   -6.2502    1.6078 O   0  0  0  0  0  0  0  0  0  0  0  0
    1.5620   -7.5363    2.5322 O   0  0  0  0  0  0  0  0  0  0  0  0
    3.4404   -5.2740    2.2065 C   0  0  2  0  0  0  0  0  0  0  0  0
    6.4938   -3.2340   -3.1637 H   0  0  0  0  0  0  0  0  0  0  0  0
    5.6494   -4.2852   -2.0554 H   0  0  0  0  0  0  0  0  0  0  0  0
    6.6530   -2.9419   -1.4125 H   0  0  0  0  0  0  0  0  0  0  0  0
    4.9410   -1.6677   -4.3037 H   0  0  0  0  0  0  0  0  0  0  0  0
    2.7270   -0.2521   -3.5768 H   0  0  0  0  0  0  0  0  0  0  0  0
    5.0802   -4.0121    2.8033 H   0  0  0  0  0  0  0  0  0  0  0  0
    5.7860   -3.6765    0.6091 H   0  0  0  0  0  0  0  0  0  0  0  0
    3.8244   -5.0633   -0.9422 H   0  0  0  0  0  0  0  0  0  0  0  0
    5.2870   -5.8088   -0.2653 H   0  0  0  0  0  0  0  0  0  0  0  0
    3.7529   -7.1021    0.9985 H   0  0  0  0  0  0  0  0  0  0  0  0
    1.8047   -4.6986    0.8089 H   0  0  0  0  0  0  0  0  0  0  0  0
    3.5525   -5.8369    3.1399 H   0  0  0  0  0  0  0  0  0  0  0  0
    2.1835   -1.0536   -1.1854 H   0  0  0  0  0  0  0  0  0  0  0  0
  1  2  1  0
  1 19  1  0
  1 20  1  0
  1 21  1  0
  2  6  1  0
  2  3  1  0
  3  4  2  0
  3 22  1  0
  4  5  1  0
  4 23  1  0
  5  6  2  0
  5 31  1  0
  6  7  1  0
  7 11  1  0
  7  8  2  0
  8  9  1  0
  9 10  1  0
 10 18  1  0
 10 11  1  0
 10 24  1  1
 11 12  1  0
 11 25  1  1
 12 13  1  0
 12 26  1  0
 12 27  1  0
 13 18  1  0
 13 14  1  0
 13 28  1  1
 14 15  1  0
 14 18  1  0
 14 29  1  6
 15 16  2  0
 15 17  1  0
 18 30  1  1
M  CHG  2   5   1  17  -1
M  END
>  <i_m_ct_stereo_status>  (300) 
1

>  <s_m_source_file>  (300) 
/var/tmp/pbs.5076255.sched01/tmprcd7yfff/907v12ihtf.sdf

>  <i_m_source_file_index>  (300) 
37

>  <i_lp_mmshare_version>  (300) 
48012

>  <i_f3d_flags>  (300) 
0

>  <s_epik_input>  (300) 
W0NIM11uMVtjSF1bY0hdbmMxQyg9Tk8yKVtDQEBIXShbQ0BASF0yMylbQ0gyXVtDQEhdNFtDQEBIXTNbQ0BASF00Qyg9TylbT0hd

>  <s_epik_cmdline>  (300) 
J2VwaWtfcHl0aG9uJywgJy1waHQnLCAnMi4wJywgJy1waCcsICc3LjAnLCAnLXRuJywgJzgnLCAnLW1hJywgJzIwMCcsICctaW1hZScsICc8aW5maWxlLm1hZT4nLCAnLW9tYWUnLCAnPG91dGZpbGUubWFlPic=

>  <r_epik_Ionization_Penalty>  (300) 
0.0259684

>  <r_epik_Ionization_Penalty_Charging>  (300) 
0.000787193

>  <r_epik_Ionization_Penalty_Neutral>  (300) 
0.0251812

>  <r_epik_State_Penalty>  (300) 
0.0204844

>  <r_epik_Charging_Adjusted_Penalty>  (300) 
0.0212715

>  <i_epik_Tot_Q>  (300) 
0

>  <i_epik_Tot_abs_Q>  (300) 
2

>  <s_epik_Chemistry_Notes>  (300) 
This compound has an imine and may undergo hydrolysis.

>  <s_lp_Force_Field>  (300) 
OPLS3e

>  <r_lp_Energy>  (300) 
7.15633

>  <b_lp_Chiralities_Consistent>  (300) 
1

>  <s_lp_Variant>  (300) 
86:0-1

>  <s_i_glide_gridfile>  (300) 
pfpi4k_grid

>  <i_i_glide_lignum>  (300) 
37

>  <i_i_glide_rotatable_bonds>  (300) 
2

>  <r_i_docking_score>  (300) 
-4.42167

>  <r_i_glide_ligand_efficiency>  (300) 
-0.245649

>  <r_i_glide_ligand_efficiency_sa>  (300) 
-0.643781

>  <r_i_glide_ligand_efficiency_ln>  (300) 
-1.13657

>  <r_i_glide_gscore>  (300) 
-4.42167

>  <r_i_glide_lipo>  (300) 
-0.405465

>  <r_i_glide_hbond>  (300) 
-0.54575

>  <r_i_glide_metal>  (300) 
-0

>  <r_i_glide_rewards>  (300) 
-1.83321

>  <r_i_glide_evdw>  (300) 
-14.5482

>  <r_i_glide_ecoul>  (300) 
-6.41103

>  <r_i_glide_erotb>  (300) 
0.285357

>  <r_i_glide_esite>  (300) 
-0.233537

>  <r_i_glide_emodel>  (300) 
-30.2744

>  <r_i_glide_energy>  (300) 
-20.9593

>  <r_i_glide_einternal>  (300) 
0.519296

>  <r_i_glide_intrahb_reward>  (300) 
-0

>  <i_i_glide_confnum>  (300) 
4

>  <i_i_glide_posenum>  (300) 
10

>  <r_i_glide_eff_state_penalty>  (300) 
0

>  <ligand_id>  (300) 
86

>  <original_smiles>  (300) 
Cn1ccnc1C1=NOC2C1CC1C(C(=O)O)C12

>  <smiles>  (300) 
[H]c1c([H])[n+]([H])c(C2=NOC3([H])C2([H])C([H])([H])C2([H])C([H])(C(=O)[O-])C32[H])n1C([H])([H])[H]

$$$$
86:0:1
     RDKit          3D

 31 34  0  0  1  0  0  0  0  0999 V2000
    5.9227   -3.6906   -1.7837 C   0  0  0  0  0  0  0  0  0  0  0  0
    4.6071   -3.1411   -2.1029 N   0  0  0  0  0  0  0  0  0  0  0  0
    4.1697   -2.8536   -3.3666 C   0  0  0  0  0  0  0  0  0  0  0  0
    2.9231   -2.2959   -3.2545 C   0  0  0  0  0  0  0  0  0  0  0  0
    2.6350   -2.2819   -1.9122 N   0  0  0  0  0  0  0  0  0  0  0  0
    3.6419   -2.8287   -1.2150 C   0  0  0  0  0  0  0  0  0  0  0  0
    3.6754   -2.9556    0.2635 C   0  0  0  0  0  0  0  0  0  0  0  0
    2.9937   -2.1891    1.0038 N   0  0  0  0  0  0  0  0  0  0  0  0
    3.1970   -2.5057    2.3688 O   0  0  0  0  0  0  0  0  0  0  0  0
    4.0344   -3.6485    2.4798 C   0  0  2  0  0  0  0  0  0  0  0  0
    4.4691   -3.9638    1.0517 C   0  0  1  0  0  0  0  0  0  0  0  0
    4.1171   -5.4515    0.7791 C   0  0  0  0  0  0  0  0  0  0  0  0
    3.3259   -5.9338    1.9710 C   0  0  2  0  0  0  0  0  0  0  0  0
    1.9906   -5.3152    2.2876 C   0  0  1  0  0  0  0  0  0  0  0  0
    0.9709   -6.1435    3.0646 C   0  0  0  0  0  0  0  0  0  0  0  0
   -0.1448   -6.2662    2.5036 O   0  0  0  0  0  0  0  0  0  0  0  0
    1.2706   -6.6057    4.1876 O   0  0  0  0  0  0  0  0  0  0  0  0
    3.2495   -4.8386    2.9878 C   0  0  2  0  0  0  0  0  0  0  0  0
    6.4792   -3.8344   -2.7137 H   0  0  0  0  0  0  0  0  0  0  0  0
    5.7768   -4.6560   -1.2990 H   0  0  0  0  0  0  0  0  0  0  0  0
    6.4688   -3.0095   -1.1210 H   0  0  0  0  0  0  0  0  0  0  0  0
    4.7613   -3.0565   -4.2439 H   0  0  0  0  0  0  0  0  0  0  0  0
    2.2435   -1.9165   -3.9983 H   0  0  0  0  0  0  0  0  0  0  0  0
    4.8820   -3.4576    3.1388 H   0  0  0  0  0  0  0  0  0  0  0  0
    5.5370   -3.7677    0.9390 H   0  0  0  0  0  0  0  0  0  0  0  0
    3.5399   -5.6155   -0.1352 H   0  0  0  0  0  0  0  0  0  0  0  0
    5.0282   -6.0389    0.7023 H   0  0  0  0  0  0  0  0  0  0  0  0
    3.5475   -6.9315    2.3385 H   0  0  0  0  0  0  0  0  0  0  0  0
    1.5532   -4.6638    1.5398 H   0  0  0  0  0  0  0  0  0  0  0  0
    3.3827   -5.0961    4.0380 H   0  0  0  0  0  0  0  0  0  0  0  0
    1.8029   -1.8500   -1.4759 H   0  0  0  0  0  0  0  0  0  0  0  0
  1  2  1  0
  1 19  1  0
  1 20  1  0
  1 21  1  0
  2  6  1  0
  2  3  1  0
  3  4  2  0
  3 22  1  0
  4  5  1  0
  4 23  1  0
  5  6  2  0
  5 31  1  0
  6  7  1  0
  7 11  1  0
  7  8  2  0
  8  9  1  0
  9 10  1  0
 10 18  1  0
 10 11  1  0
 10 24  1  1
 11 12  1  0
 11 25  1  1
 12 13  1  0
 12 26  1  0
 12 27  1  0
 13 18  1  0
 13 14  1  0
 13 28  1  1
 14 15  1  0
 14 18  1  0
 14 29  1  6
 15 16  2  0
 15 17  1  0
 18 30  1  1
M  CHG  2   5   1  17  -1
M  END
>  <i_m_ct_stereo_status>  (301) 
1

>  <s_m_source_file>  (301) 
/var/tmp/pbs.5076255.sched01/tmprcd7yfff/907v12ihtf.sdf

>  <i_m_source_file_index>  (301) 
37

>  <i_lp_mmshare_version>  (301) 
48012

>  <i_f3d_flags>  (301) 
0

>  <s_epik_input>  (301) 
W0NIM11uMVtjSF1bY0hdbmMxQyg9Tk8yKVtDQEBIXShbQ0BASF0yMylbQ0gyXVtDQEhdNFtDQEBIXTNbQ0BASF00Qyg9TylbT0hd

>  <s_epik_cmdline>  (301) 
J2VwaWtfcHl0aG9uJywgJy1waHQnLCAnMi4wJywgJy1waCcsICc3LjAnLCAnLXRuJywgJzgnLCAnLW1hJywgJzIwMCcsICctaW1hZScsICc8aW5maWxlLm1hZT4nLCAnLW9tYWUnLCAnPG91dGZpbGUubWFlPic=

>  <r_epik_Ionization_Penalty>  (301) 
0.0259684

>  <r_epik_Ionization_Penalty_Charging>  (301) 
0.000787193

>  <r_epik_Ionization_Penalty_Neutral>  (301) 
0.0251812

>  <r_epik_State_Penalty>  (301) 
0.0204844

>  <r_epik_Charging_Adjusted_Penalty>  (301) 
0.0212715

>  <i_epik_Tot_Q>  (301) 
0

>  <i_epik_Tot_abs_Q>  (301) 
2

>  <s_epik_Chemistry_Notes>  (301) 
This compound has an imine and may undergo hydrolysis.

>  <s_lp_Force_Field>  (301) 
OPLS3e

>  <r_lp_Energy>  (301) 
7.15633

>  <b_lp_Chiralities_Consistent>  (301) 
1

>  <s_lp_Variant>  (301) 
86:0-1

>  <s_i_glide_gridfile>  (301) 
pfpi4k_grid

>  <i_i_glide_lignum>  (301) 
37

>  <i_i_glide_rotatable_bonds>  (301) 
2

>  <r_i_docking_score>  (301) 
-4.23668

>  <r_i_glide_ligand_efficiency>  (301) 
-0.235371

>  <r_i_glide_ligand_efficiency_sa>  (301) 
-0.616847

>  <r_i_glide_ligand_efficiency_ln>  (301) 
-1.08902

>  <r_i_glide_gscore>  (301) 
-4.23668

>  <r_i_glide_lipo>  (301) 
-0.466431

>  <r_i_glide_hbond>  (301) 
-0.402411

>  <r_i_glide_metal>  (301) 
-0

>  <r_i_glide_rewards>  (301) 
-1.7569

>  <r_i_glide_evdw>  (301) 
-14.9472

>  <r_i_glide_ecoul>  (301) 
-6.41779

>  <r_i_glide_erotb>  (301) 
0.285357

>  <r_i_glide_esite>  (301) 
-0.186266

>  <r_i_glide_emodel>  (301) 
-30.0096

>  <r_i_glide_energy>  (301) 
-21.365

>  <r_i_glide_einternal>  (301) 
1.14875

>  <r_i_glide_intrahb_reward>  (301) 
-0

>  <i_i_glide_confnum>  (301) 
2

>  <i_i_glide_posenum>  (301) 
7

>  <r_i_glide_eff_state_penalty>  (301) 
0

>  <ligand_id>  (301) 
86

>  <original_smiles>  (301) 
Cn1ccnc1C1=NOC2C1CC1C(C(=O)O)C12

>  <smiles>  (301) 
[H]c1c([H])[n+]([H])c(C2=NOC3([H])C2([H])C([H])([H])C2([H])C([H])(C(=O)[O-])C32[H])n1C([H])([H])[H]

$$$$
86:0:2
     RDKit          3D

 31 34  0  0  1  0  0  0  0  0999 V2000
    4.1229   -0.9391   -0.0908 C   0  0  0  0  0  0  0  0  0  0  0  0
    3.7087   -1.7838   -1.2148 N   0  0  0  0  0  0  0  0  0  0  0  0
    3.6934   -1.3887   -2.5329 C   0  0  0  0  0  0  0  0  0  0  0  0
    3.1894   -2.4399   -3.2570 C   0  0  0  0  0  0  0  0  0  0  0  0
    2.9387   -3.4454   -2.3581 N   0  0  0  0  0  0  0  0  0  0  0  0
    3.2498   -3.0488   -1.1192 C   0  0  0  0  0  0  0  0  0  0  0  0
    3.0539   -3.8950    0.0867 C   0  0  0  0  0  0  0  0  0  0  0  0
    2.2913   -4.9047    0.0727 N   0  0  0  0  0  0  0  0  0  0  0  0
    2.2336   -5.5152    1.3461 O   0  0  0  0  0  0  0  0  0  0  0  0
    3.1651   -4.8819    2.2133 C   0  0  2  0  0  0  0  0  0  0  0  0
    3.6944   -3.6857    1.4256 C   0  0  1  0  0  0  0  0  0  0  0  0
    5.2449   -3.7747    1.4381 C   0  0  0  0  0  0  0  0  0  0  0  0
    5.5979   -5.0967    2.0577 C   0  0  2  0  0  0  0  0  0  0  0  0
    5.1880   -6.3916    1.3906 C   0  0  1  0  0  0  0  0  0  0  0  0
    5.9867   -7.6574    1.7120 C   0  0  0  0  0  0  0  0  0  0  0  0
    5.7121   -8.6560    1.0099 O   0  0  0  0  0  0  0  0  0  0  0  0
    6.8503   -7.6161    2.6173 O   0  0  0  0  0  0  0  0  0  0  0  0
    4.3474   -5.7844    2.5011 C   0  0  2  0  0  0  0  0  0  0  0  0
    4.4274    0.0345   -0.4773 H   0  0  0  0  0  0  0  0  0  0  0  0
    4.9824   -1.3914    0.4079 H   0  0  0  0  0  0  0  0  0  0  0  0
    3.2788   -0.8099    0.5927 H   0  0  0  0  0  0  0  0  0  0  0  0
    4.0113   -0.4049   -2.8502 H   0  0  0  0  0  0  0  0  0  0  0  0
    3.0051   -2.5358   -4.3134 H   0  0  0  0  0  0  0  0  0  0  0  0
    2.6952   -4.5830    3.1506 H   0  0  0  0  0  0  0  0  0  0  0  0
    3.3324   -2.7583    1.8710 H   0  0  0  0  0  0  0  0  0  0  0  0
    5.7069   -3.7114    0.4515 H   0  0  0  0  0  0  0  0  0  0  0  0
    5.6597   -2.9764    2.0536 H   0  0  0  0  0  0  0  0  0  0  0  0
    6.4329   -5.0923    2.7521 H   0  0  0  0  0  0  0  0  0  0  0  0
    4.8191   -6.3295    0.3675 H   0  0  0  0  0  0  0  0  0  0  0  0
    4.3588   -6.2826    3.4694 H   0  0  0  0  0  0  0  0  0  0  0  0
    2.6034   -4.3842   -2.5738 H   0  0  0  0  0  0  0  0  0  0  0  0
  1  2  1  0
  1 19  1  0
  1 20  1  0
  1 21  1  0
  2  6  1  0
  2  3  1  0
  3  4  2  0
  3 22  1  0
  4  5  1  0
  4 23  1  0
  5  6  2  0
  5 31  1  0
  6  7  1  0
  7 11  1  0
  7  8  2  0
  8  9  1  0
  9 10  1  0
 10 18  1  0
 10 11  1  0
 10 24  1  1
 11 12  1  0
 11 25  1  1
 12 13  1  0
 12 26  1  0
 12 27  1  0
 13 18  1  0
 13 14  1  0
 13 28  1  1
 14 15  1  0
 14 18  1  0
 14 29  1  6
 15 16  2  0
 15 17  1  0
 18 30  1  1
M  CHG  2   5   1  17  -1
M  END
>  <i_m_ct_stereo_status>  (302) 
1

>  <s_m_source_file>  (302) 
/var/tmp/pbs.5076255.sched01/tmprcd7yfff/907v12ihtf.sdf

>  <i_m_source_file_index>  (302) 
37

>  <i_lp_mmshare_version>  (302) 
48012

>  <i_f3d_flags>  (302) 
0

>  <s_epik_input>  (302) 
W0NIM11uMVtjSF1bY0hdbmMxQyg9Tk8yKVtDQEBIXShbQ0BASF0yMylbQ0gyXVtDQEhdNFtDQEBIXTNbQ0BASF00Qyg9TylbT0hd

>  <s_epik_cmdline>  (302) 
J2VwaWtfcHl0aG9uJywgJy1waHQnLCAnMi4wJywgJy1waCcsICc3LjAnLCAnLXRuJywgJzgnLCAnLW1hJywgJzIwMCcsICctaW1hZScsICc8aW5maWxlLm1hZT4nLCAnLW9tYWUnLCAnPG91dGZpbGUubWFlPic=

>  <r_epik_Ionization_Penalty>  (302) 
0.0259684

>  <r_epik_Ionization_Penalty_Charging>  (302) 
0.000787193

>  <r_epik_Ionization_Penalty_Neutral>  (302) 
0.0251812

>  <r_epik_State_Penalty>  (302) 
0.0204844

>  <r_epik_Charging_Adjusted_Penalty>  (302) 
0.0212715

>  <i_epik_Tot_Q>  (302) 
0

>  <i_epik_Tot_abs_Q>  (302) 
2

>  <s_epik_Chemistry_Notes>  (302) 
This compound has an imine and may undergo hydrolysis.

>  <s_lp_Force_Field>  (302) 
OPLS3e

>  <r_lp_Energy>  (302) 
7.15633

>  <b_lp_Chiralities_Consistent>  (302) 
1

>  <s_lp_Variant>  (302) 
86:0-1

>  <s_i_glide_gridfile>  (302) 
pfpi4k_grid

>  <i_i_glide_lignum>  (302) 
37

>  <i_i_glide_rotatable_bonds>  (302) 
2

>  <r_i_docking_score>  (302) 
-3.8565

>  <r_i_glide_ligand_efficiency>  (302) 
-0.21425

>  <r_i_glide_ligand_efficiency_sa>  (302) 
-0.561494

>  <r_i_glide_ligand_efficiency_ln>  (302) 
-0.991293

>  <r_i_glide_gscore>  (302) 
-3.8565

>  <r_i_glide_lipo>  (302) 
-0.280041

>  <r_i_glide_hbond>  (302) 
0

>  <r_i_glide_metal>  (302) 
-0

>  <r_i_glide_rewards>  (302) 
-1.83659

>  <r_i_glide_evdw>  (302) 
-17.3366

>  <r_i_glide_ecoul>  (302) 
-6.46227

>  <r_i_glide_erotb>  (302) 
0.285357

>  <r_i_glide_esite>  (302) 
-0.189054

>  <r_i_glide_emodel>  (302) 
-31.7975

>  <r_i_glide_energy>  (302) 
-23.7989

>  <r_i_glide_einternal>  (302) 
0.861112

>  <r_i_glide_intrahb_reward>  (302) 
-0

>  <i_i_glide_confnum>  (302) 
4

>  <i_i_glide_posenum>  (302) 
20

>  <r_i_glide_eff_state_penalty>  (302) 
0

>  <ligand_id>  (302) 
86

>  <original_smiles>  (302) 
Cn1ccnc1C1=NOC2C1CC1C(C(=O)O)C12

>  <smiles>  (302) 
[H]c1c([H])[n+]([H])c(C2=NOC3([H])C2([H])C([H])([H])C2([H])C([H])(C(=O)[O-])C32[H])n1C([H])([H])[H]

$$$$
86:1:0
     RDKit          3D

 30 33  0  0  1  0  0  0  0  0999 V2000
    2.1218   -2.9515   -3.2285 C   0  0  0  0  0  0  0  0  0  0  0  0
    2.9831   -1.7799   -3.2459 N   0  0  0  0  0  0  0  0  0  0  0  0
    3.0006   -0.8729   -4.2713 C   0  0  0  0  0  0  0  0  0  0  0  0
    3.8318    0.1543   -3.9453 C   0  0  0  0  0  0  0  0  0  0  0  0
    4.4459   -0.1883   -2.7288 N   0  0  0  0  0  0  0  0  0  0  0  0
    3.8747   -1.3125   -2.3232 C   0  0  0  0  0  0  0  0  0  0  0  0
    4.2390   -1.9003   -1.0213 C   0  0  0  0  0  0  0  0  0  0  0  0
    3.8774   -1.3770    0.0838 N   0  0  0  0  0  0  0  0  0  0  0  0
    4.4132   -2.0896    1.1911 O   0  0  0  0  0  0  0  0  0  0  0  0
    5.1567   -3.2084    0.7062 C   0  0  2  0  0  0  0  0  0  0  0  0
    5.1811   -3.0624   -0.8121 C   0  0  1  0  0  0  0  0  0  0  0  0
    4.7287   -4.4154   -1.3716 C   0  0  0  0  0  0  0  0  0  0  0  0
    4.2237   -5.2537   -0.2411 C   0  0  2  0  0  0  0  0  0  0  0  0
    3.0198   -4.7925    0.5683 C   0  0  1  0  0  0  0  0  0  0  0  0
    2.1758   -5.8405    1.3060 C   0  0  0  0  0  0  0  0  0  0  0  0
    0.9707   -5.8698    1.0124 O   0  0  0  0  0  0  0  0  0  0  0  0
    2.7403   -6.5553    2.1823 O   0  0  0  0  0  0  0  0  0  0  0  0
    4.4372   -4.5109    1.0285 C   0  0  2  0  0  0  0  0  0  0  0  0
    1.4718   -2.9235   -4.0967 H   0  0  0  0  0  0  0  0  0  0  0  0
    1.5425   -2.9972   -2.2901 H   0  0  0  0  0  0  0  0  0  0  0  0
    2.6825   -3.8619   -3.4485 H   0  0  0  0  0  0  0  0  0  0  0  0
    2.3493   -0.9852   -5.0710 H   0  0  0  0  0  0  0  0  0  0  0  0
    4.0572    1.0706   -4.4903 H   0  0  0  0  0  0  0  0  0  0  0  0
    6.1843   -3.2402    1.0794 H   0  0  0  0  0  0  0  0  0  0  0  0
    6.1546   -2.7828   -1.2093 H   0  0  0  0  0  0  0  0  0  0  0  0
    3.8912   -4.2384   -2.0055 H   0  0  0  0  0  0  0  0  0  0  0  0
    5.4707   -4.9385   -1.9493 H   0  0  0  0  0  0  0  0  0  0  0  0
    4.3976   -6.3307   -0.2972 H   0  0  0  0  0  0  0  0  0  0  0  0
    2.4463   -3.9412    0.2056 H   0  0  0  0  0  0  0  0  0  0  0  0
    4.8565   -5.1130    1.8333 H   0  0  0  0  0  0  0  0  0  0  0  0
  1  2  1  0
  1 19  1  0
  1 20  1  0
  1 21  1  0
  2  6  1  0
  2  3  1  0
  3  4  2  0
  3 22  1  0
  4  5  1  0
  4 23  1  0
  5  6  2  0
  6  7  1  0
  7 11  1  0
  7  8  2  0
  8  9  1  0
  9 10  1  0
 10 18  1  0
 10 11  1  0
 10 24  1  1
 11 12  1  0
 11 25  1  6
 12 13  1  0
 12 26  1  0
 12 27  1  0
 13 18  1  0
 13 14  1  0
 13 28  1  1
 14 15  1  0
 14 18  1  0
 14 29  1  6
 15 16  2  0
 15 17  1  0
 18 30  1  1
M  CHG  1  17  -1
M  END
>  <i_m_ct_stereo_status>  (303) 
1

>  <s_m_source_file>  (303) 
/var/tmp/pbs.5076255.sched01/tmprcd7yfff/907v12ihtf.sdf

>  <i_m_source_file_index>  (303) 
38

>  <i_lp_mmshare_version>  (303) 
48012

>  <i_f3d_flags>  (303) 
0

>  <s_epik_input>  (303) 
W0NIM11uMVtjSF1bY0hdbmMxQyg9Tk8yKVtDQEBIXShbQ0BASF0yMylbQ0gyXVtDQEhdNFtDQEBIXTNbQ0BASF00Qyg9TylbT0hd

>  <s_epik_cmdline>  (303) 
J2VwaWtfcHl0aG9uJywgJy1waHQnLCAnMi4wJywgJy1waCcsICc3LjAnLCAnLXRuJywgJzgnLCAnLW1hJywgJzIwMCcsICctaW1hZScsICc8aW5maWxlLm1hZT4nLCAnLW9tYWUnLCAnPG91dGZpbGUubWFlPic=

>  <r_epik_Ionization_Penalty>  (303) 
1.88463

>  <r_epik_Ionization_Penalty_Charging>  (303) 
1.88463

>  <r_epik_Ionization_Penalty_Neutral>  (303) 
1.49991e-10

>  <r_epik_State_Penalty>  (303) 
2.00373

>  <r_epik_Charging_Adjusted_Penalty>  (303) 
3.88836

>  <i_epik_Tot_Q>  (303) 
-1

>  <i_epik_Tot_abs_Q>  (303) 
1

>  <s_epik_Chemistry_Notes>  (303) 
This compound has an imine and may undergo hydrolysis.

>  <s_lp_Force_Field>  (303) 
OPLS3e

>  <r_lp_Energy>  (303) 
4.44214

>  <b_lp_Chiralities_Consistent>  (303) 
1

>  <s_lp_Variant>  (303) 
86:0-2

>  <s_i_glide_gridfile>  (303) 
pfpi4k_grid

>  <i_i_glide_lignum>  (303) 
38

>  <i_i_glide_rotatable_bonds>  (303) 
2

>  <r_i_docking_score>  (303) 
-4.04296

>  <r_i_glide_ligand_efficiency>  (303) 
-0.224609

>  <r_i_glide_ligand_efficiency_sa>  (303) 
-0.588641

>  <r_i_glide_ligand_efficiency_ln>  (303) 
-1.03922

>  <r_i_glide_gscore>  (303) 
-4.04296

>  <r_i_glide_lipo>  (303) 
-0.490353

>  <r_i_glide_hbond>  (303) 
-0.2

>  <r_i_glide_metal>  (303) 
-0

>  <r_i_glide_rewards>  (303) 
-1.82464

>  <r_i_glide_evdw>  (303) 
-18.3141

>  <r_i_glide_ecoul>  (303) 
-4.8784

>  <r_i_glide_erotb>  (303) 
0.287359

>  <r_i_glide_esite>  (303) 
-0.16786

>  <r_i_glide_emodel>  (303) 
-26.9644

>  <r_i_glide_energy>  (303) 
-23.1925

>  <r_i_glide_einternal>  (303) 
3.87602

>  <r_i_glide_intrahb_reward>  (303) 
-0

>  <i_i_glide_confnum>  (303) 
6

>  <i_i_glide_posenum>  (303) 
13

>  <r_i_glide_eff_state_penalty>  (303) 
0

>  <ligand_id>  (303) 
86

>  <original_smiles>  (303) 
Cn1ccnc1C1=NOC2C1CC1C(C(=O)O)C12

>  <smiles>  (303) 
[H]c1nc(C2=NOC3([H])C2([H])C([H])([H])C2([H])C([H])(C(=O)[O-])C32[H])n(C([H])([H])[H])c1[H]

$$$$
86:1:1
     RDKit          3D

 30 33  0  0  1  0  0  0  0  0999 V2000
   -0.5268    1.7158    2.0426 C   0  0  0  0  0  0  0  0  0  0  0  0
    0.0252    0.6179    2.8204 N   0  0  0  0  0  0  0  0  0  0  0  0
    0.9237   -0.3154    2.3135 C   0  0  0  0  0  0  0  0  0  0  0  0
    1.1860   -1.2230    3.2926 C   0  0  0  0  0  0  0  0  0  0  0  0
    0.4840   -0.8747    4.4423 N   0  0  0  0  0  0  0  0  0  0  0  0
   -0.1732    0.2341    4.1088 C   0  0  0  0  0  0  0  0  0  0  0  0
   -1.0417    0.8997    5.1090 C   0  0  0  0  0  0  0  0  0  0  0  0
   -1.3190    0.3908    6.2417 N   0  0  0  0  0  0  0  0  0  0  0  0
   -2.2070    1.2253    6.9740 O   0  0  0  0  0  0  0  0  0  0  0  0
   -2.4346    2.4326    6.2539 C   0  0  2  0  0  0  0  0  0  0  0  0
   -1.7232    2.2308    4.9159 C   0  0  1  0  0  0  0  0  0  0  0  0
   -0.7903    3.4630    4.7294 C   0  0  0  0  0  0  0  0  0  0  0  0
   -0.8422    4.2558    6.0004 C   0  0  2  0  0  0  0  0  0  0  0  0
   -0.3226    3.6444    7.2819 C   0  0  1  0  0  0  0  0  0  0  0  0
    0.1447    4.6043    8.3657 C   0  0  0  0  0  0  0  0  0  0  0  0
    1.0646    4.1885    9.0930 O   0  0  0  0  0  0  0  0  0  0  0  0
   -0.4112    5.7294    8.4501 O   0  0  0  0  0  0  0  0  0  0  0  0
   -1.8061    3.6211    6.9474 C   0  0  2  0  0  0  0  0  0  0  0  0
   -0.2025    1.6172    0.9957 H   0  0  0  0  0  0  0  0  0  0  0  0
   -0.1564    2.6676    2.4353 H   0  0  0  0  0  0  0  0  0  0  0  0
   -1.6232    1.6700    2.0666 H   0  0  0  0  0  0  0  0  0  0  0  0
    1.2668   -0.2575    1.2874 H   0  0  0  0  0  0  0  0  0  0  0  0
    1.8129   -2.1006    3.2591 H   0  0  0  0  0  0  0  0  0  0  0  0
   -3.5025    2.6236    6.1432 H   0  0  0  0  0  0  0  0  0  0  0  0
   -2.4696    2.1599    4.1223 H   0  0  0  0  0  0  0  0  0  0  0  0
    0.2522    3.2000    4.5409 H   0  0  0  0  0  0  0  0  0  0  0  0
   -1.1419    4.0935    3.9077 H   0  0  0  0  0  0  0  0  0  0  0  0
   -0.8553    5.3434    5.8923 H   0  0  0  0  0  0  0  0  0  0  0  0
    0.2469    2.7106    7.1912 H   0  0  0  0  0  0  0  0  0  0  0  0
   -2.4843    4.2808    7.5047 H   0  0  0  0  0  0  0  0  0  0  0  0
  1  2  1  0
  1 19  1  0
  1 20  1  0
  1 21  1  0
  2  6  1  0
  2  3  1  0
  3  4  2  0
  3 22  1  0
  4  5  1  0
  4 23  1  0
  5  6  2  0
  6  7  1  0
  7 11  1  0
  7  8  2  0
  8  9  1  0
  9 10  1  0
 10 18  1  0
 10 11  1  0
 10 24  1  6
 11 12  1  0
 11 25  1  6
 12 13  1  0
 12 26  1  0
 12 27  1  0
 13 18  1  0
 13 14  1  0
 13 28  1  6
 14 15  1  0
 14 18  1  0
 14 29  1  6
 15 16  2  0
 15 17  1  0
 18 30  1  1
M  CHG  1  17  -1
M  END
>  <i_m_ct_stereo_status>  (304) 
1

>  <s_m_source_file>  (304) 
/var/tmp/pbs.5076255.sched01/tmprcd7yfff/907v12ihtf.sdf

>  <i_m_source_file_index>  (304) 
38

>  <i_lp_mmshare_version>  (304) 
48012

>  <i_f3d_flags>  (304) 
0

>  <s_epik_input>  (304) 
W0NIM11uMVtjSF1bY0hdbmMxQyg9Tk8yKVtDQEBIXShbQ0BASF0yMylbQ0gyXVtDQEhdNFtDQEBIXTNbQ0BASF00Qyg9TylbT0hd

>  <s_epik_cmdline>  (304) 
J2VwaWtfcHl0aG9uJywgJy1waHQnLCAnMi4wJywgJy1waCcsICc3LjAnLCAnLXRuJywgJzgnLCAnLW1hJywgJzIwMCcsICctaW1hZScsICc8aW5maWxlLm1hZT4nLCAnLW9tYWUnLCAnPG91dGZpbGUubWFlPic=

>  <r_epik_Ionization_Penalty>  (304) 
1.88463

>  <r_epik_Ionization_Penalty_Charging>  (304) 
1.88463

>  <r_epik_Ionization_Penalty_Neutral>  (304) 
1.49991e-10

>  <r_epik_State_Penalty>  (304) 
2.00373

>  <r_epik_Charging_Adjusted_Penalty>  (304) 
3.88836

>  <i_epik_Tot_Q>  (304) 
-1

>  <i_epik_Tot_abs_Q>  (304) 
1

>  <s_epik_Chemistry_Notes>  (304) 
This compound has an imine and may undergo hydrolysis.

>  <s_lp_Force_Field>  (304) 
OPLS3e

>  <r_lp_Energy>  (304) 
4.44214

>  <b_lp_Chiralities_Consistent>  (304) 
1

>  <s_lp_Variant>  (304) 
86:0-2

>  <s_i_glide_gridfile>  (304) 
pfpi4k_grid

>  <i_i_glide_lignum>  (304) 
38

>  <i_i_glide_rotatable_bonds>  (304) 
2

>  <r_i_docking_score>  (304) 
-3.24058

>  <r_i_glide_ligand_efficiency>  (304) 
-0.180032

>  <r_i_glide_ligand_efficiency_sa>  (304) 
-0.471818

>  <r_i_glide_ligand_efficiency_ln>  (304) 
-0.832974

>  <r_i_glide_gscore>  (304) 
-3.24058

>  <r_i_glide_lipo>  (304) 
-0.15424

>  <r_i_glide_hbond>  (304) 
0

>  <r_i_glide_metal>  (304) 
-0

>  <r_i_glide_rewards>  (304) 
-1.73017

>  <r_i_glide_evdw>  (304) 
-15.3965

>  <r_i_glide_ecoul>  (304) 
-4.31321

>  <r_i_glide_erotb>  (304) 
0.287359

>  <r_i_glide_esite>  (304) 
-0.226725

>  <r_i_glide_emodel>  (304) 
-25.34

>  <r_i_glide_energy>  (304) 
-19.7097

>  <r_i_glide_einternal>  (304) 
0.65552

>  <r_i_glide_intrahb_reward>  (304) 
-0

>  <i_i_glide_confnum>  (304) 
2

>  <i_i_glide_posenum>  (304) 
12

>  <r_i_glide_eff_state_penalty>  (304) 
0

>  <ligand_id>  (304) 
86

>  <original_smiles>  (304) 
Cn1ccnc1C1=NOC2C1CC1C(C(=O)O)C12

>  <smiles>  (304) 
[H]c1nc(C2=NOC3([H])C2([H])C([H])([H])C2([H])C([H])(C(=O)[O-])C32[H])n(C([H])([H])[H])c1[H]

$$$$
86:1:2
     RDKit          3D

 30 33  0  0  1  0  0  0  0  0999 V2000
    2.6332    0.2326    2.3040 C   0  0  0  0  0  0  0  0  0  0  0  0
    2.2221   -1.1139    2.6344 N   0  0  0  0  0  0  0  0  0  0  0  0
    1.1022   -1.3752    3.4174 C   0  0  0  0  0  0  0  0  0  0  0  0
    1.0166   -2.7309    3.5777 C   0  0  0  0  0  0  0  0  0  0  0  0
    2.0493   -3.3334    2.8733 N   0  0  0  0  0  0  0  0  0  0  0  0
    2.7488   -2.3253    2.3210 C   0  0  0  0  0  0  0  0  0  0  0  0
    3.9375   -2.6285    1.5117 C   0  0  0  0  0  0  0  0  0  0  0  0
    4.3443   -3.8080    1.2601 N   0  0  0  0  0  0  0  0  0  0  0  0
    5.5592   -3.8111    0.5272 O   0  0  0  0  0  0  0  0  0  0  0  0
    5.9084   -2.4724    0.1824 C   0  0  2  0  0  0  0  0  0  0  0  0
    4.8679   -1.6117    0.9014 C   0  0  1  0  0  0  0  0  0  0  0  0
    4.2291   -0.7032   -0.1803 C   0  0  0  0  0  0  0  0  0  0  0  0
    4.8009   -1.1087   -1.4944 C   0  0  2  0  0  0  0  0  0  0  0  0
    4.4278   -2.4701   -2.0290 C   0  0  1  0  0  0  0  0  0  0  0  0
    4.4360   -2.6786   -3.5275 C   0  0  0  0  0  0  0  0  0  0  0  0
    4.2410   -1.6873   -4.2689 O   0  0  0  0  0  0  0  0  0  0  0  0
    4.6452   -3.8376   -3.9364 O   0  0  0  0  0  0  0  0  0  0  0  0
    5.7594   -2.2359   -1.3086 C   0  0  2  0  0  0  0  0  0  0  0  0
    2.0444    0.9538    2.8766 H   0  0  0  0  0  0  0  0  0  0  0  0
    2.4759    0.4305    1.2397 H   0  0  0  0  0  0  0  0  0  0  0  0
    3.6860    0.3875    2.5814 H   0  0  0  0  0  0  0  0  0  0  0  0
    0.4726   -0.5865    3.7711 H   0  0  0  0  0  0  0  0  0  0  0  0
    0.2776   -3.3155    4.1074 H   0  0  0  0  0  0  0  0  0  0  0  0
    6.9260   -2.2309    0.5067 H   0  0  0  0  0  0  0  0  0  0  0  0
    5.3391   -1.0411    1.6971 H   0  0  0  0  0  0  0  0  0  0  0  0
    3.1460   -0.8158   -0.2727 H   0  0  0  0  0  0  0  0  0  0  0  0
    4.4665    0.3418    0.0292 H   0  0  0  0  0  0  0  0  0  0  0  0
    5.0258   -0.3158   -2.2124 H   0  0  0  0  0  0  0  0  0  0  0  0
    3.6520   -3.0246   -1.4904 H   0  0  0  0  0  0  0  0  0  0  0  0
    6.6759   -2.2143   -1.9049 H   0  0  0  0  0  0  0  0  0  0  0  0
  1  2  1  0
  1 19  1  0
  1 20  1  0
  1 21  1  0
  2  6  1  0
  2  3  1  0
  3  4  2  0
  3 22  1  0
  4  5  1  0
  4 23  1  0
  5  6  2  0
  6  7  1  0
  7 11  1  0
  7  8  2  0
  8  9  1  0
  9 10  1  0
 10 18  1  0
 10 11  1  0
 10 24  1  1
 11 12  1  0
 11 25  1  1
 12 13  1  0
 12 26  1  0
 12 27  1  0
 13 18  1  0
 13 14  1  0
 13 28  1  6
 14 15  1  0
 14 18  1  0
 14 29  1  1
 15 16  2  0
 15 17  1  0
 18 30  1  6
M  CHG  1  17  -1
M  END
>  <i_m_ct_stereo_status>  (305) 
1

>  <s_m_source_file>  (305) 
/var/tmp/pbs.5076255.sched01/tmprcd7yfff/907v12ihtf.sdf

>  <i_m_source_file_index>  (305) 
38

>  <i_lp_mmshare_version>  (305) 
48012

>  <i_f3d_flags>  (305) 
0

>  <s_epik_input>  (305) 
W0NIM11uMVtjSF1bY0hdbmMxQyg9Tk8yKVtDQEBIXShbQ0BASF0yMylbQ0gyXVtDQEhdNFtDQEBIXTNbQ0BASF00Qyg9TylbT0hd

>  <s_epik_cmdline>  (305) 
J2VwaWtfcHl0aG9uJywgJy1waHQnLCAnMi4wJywgJy1waCcsICc3LjAnLCAnLXRuJywgJzgnLCAnLW1hJywgJzIwMCcsICctaW1hZScsICc8aW5maWxlLm1hZT4nLCAnLW9tYWUnLCAnPG91dGZpbGUubWFlPic=

>  <r_epik_Ionization_Penalty>  (305) 
1.88463

>  <r_epik_Ionization_Penalty_Charging>  (305) 
1.88463

>  <r_epik_Ionization_Penalty_Neutral>  (305) 
1.49991e-10

>  <r_epik_State_Penalty>  (305) 
2.00373

>  <r_epik_Charging_Adjusted_Penalty>  (305) 
3.88836

>  <i_epik_Tot_Q>  (305) 
-1

>  <i_epik_Tot_abs_Q>  (305) 
1

>  <s_epik_Chemistry_Notes>  (305) 
This compound has an imine and may undergo hydrolysis.

>  <s_lp_Force_Field>  (305) 
OPLS3e

>  <r_lp_Energy>  (305) 
4.44214

>  <b_lp_Chiralities_Consistent>  (305) 
1

>  <s_lp_Variant>  (305) 
86:0-2

>  <s_i_glide_gridfile>  (305) 
pfpi4k_grid

>  <i_i_glide_lignum>  (305) 
38

>  <i_i_glide_rotatable_bonds>  (305) 
2

>  <r_i_docking_score>  (305) 
-3.13252

>  <r_i_glide_ligand_efficiency>  (305) 
-0.174029

>  <r_i_glide_ligand_efficiency_sa>  (305) 
-0.456085

>  <r_i_glide_ligand_efficiency_ln>  (305) 
-0.805199

>  <r_i_glide_gscore>  (305) 
-3.13252

>  <r_i_glide_lipo>  (305) 
-0.129797

>  <r_i_glide_hbond>  (305) 
-0.16

>  <r_i_glide_metal>  (305) 
-0

>  <r_i_glide_rewards>  (305) 
-1.93432

>  <r_i_glide_evdw>  (305) 
-17.7616

>  <r_i_glide_ecoul>  (305) 
-1.89485

>  <r_i_glide_erotb>  (305) 
0.287359

>  <r_i_glide_esite>  (305) 
-0.0234583

>  <r_i_glide_emodel>  (305) 
-24.2272

>  <r_i_glide_energy>  (305) 
-19.6564

>  <r_i_glide_einternal>  (305) 
1.86332

>  <r_i_glide_intrahb_reward>  (305) 
-0

>  <i_i_glide_confnum>  (305) 
5

>  <i_i_glide_posenum>  (305) 
17

>  <r_i_glide_eff_state_penalty>  (305) 
0

>  <ligand_id>  (305) 
86

>  <original_smiles>  (305) 
Cn1ccnc1C1=NOC2C1CC1C(C(=O)O)C12

>  <smiles>  (305) 
[H]c1nc(C2=NOC3([H])C2([H])C([H])([H])C2([H])C([H])(C(=O)[O-])C32[H])n(C([H])([H])[H])c1[H]

$$$$
87:0:0
     RDKit          3D

 29 31  0  0  1  0  0  0  0  0999 V2000
    4.7288   -7.3991    1.4759 C   0  0  0  0  0  0  0  0  0  0  0  0
    3.3438   -6.9634    1.3336 N   0  0  0  0  0  0  0  0  0  0  0  0
    2.2548   -7.6035    1.7874 C   0  0  0  0  0  0  0  0  0  0  0  0
    1.0866   -7.0033    1.5268 N   0  0  0  0  0  0  0  0  0  0  0  0
    1.4368   -5.8604    0.8316 N   0  0  0  0  0  0  0  0  0  0  0  0
    2.7729   -5.8762    0.7461 C   0  0  0  0  0  0  0  0  0  0  0  0
    3.5245   -4.8783    0.1061 N   0  0  0  0  0  0  0  0  0  0  0  0
    4.9721   -4.8295   -0.0857 C   0  0  0  0  0  0  0  0  0  0  0  0
    5.3245   -3.7303   -1.0650 C   0  0  1  0  0  0  0  0  0  0  0  0
    5.4100   -4.2450   -2.2906 F   0  0  0  0  0  0  0  0  0  0  0  0
    4.1444   -2.7870   -0.9255 C   0  0  1  0  0  0  0  0  0  0  0  0
    3.9215   -1.9777   -2.1124 N   0  0  0  0  0  0  0  0  0  0  0  0
    4.2124   -0.6504   -2.2784 C   0  0  0  0  0  0  0  0  0  0  0  0
    3.8471   -0.3895   -3.5665 C   0  0  0  0  0  0  0  0  0  0  0  0
    3.4165   -1.5699   -4.1514 N   0  0  0  0  0  0  0  0  0  0  0  0
    3.4429   -2.5143   -3.2660 N   0  0  0  0  0  0  0  0  0  0  0  0
    2.9734   -3.7022   -0.5622 C   0  0  0  0  0  0  0  0  0  0  0  0
    4.8093   -8.1929    2.2190 H   0  0  0  0  0  0  0  0  0  0  0  0
    5.3642   -6.5828    1.8194 H   0  0  0  0  0  0  0  0  0  0  0  0
    5.0988   -7.7792    0.5219 H   0  0  0  0  0  0  0  0  0  0  0  0
    2.3278   -8.5465    2.3196 H   0  0  0  0  0  0  0  0  0  0  0  0
    5.4280   -4.6037    0.8771 H   0  0  0  0  0  0  0  0  0  0  0  0
    5.3563   -5.7727   -0.4735 H   0  0  0  0  0  0  0  0  0  0  0  0
    6.2887   -3.2729   -0.8399 H   0  0  0  0  0  0  0  0  0  0  0  0
    4.3359   -2.1222   -0.0813 H   0  0  0  0  0  0  0  0  0  0  0  0
    4.6126   -0.0254   -1.4964 H   0  0  0  0  0  0  0  0  0  0  0  0
    3.8743    0.5406   -4.1117 H   0  0  0  0  0  0  0  0  0  0  0  0
    2.4172   -4.0400   -1.4433 H   0  0  0  0  0  0  0  0  0  0  0  0
    2.2746   -3.1801    0.1002 H   0  0  0  0  0  0  0  0  0  0  0  0
  1  2  1  0
  1 18  1  0
  1 19  1  0
  1 20  1  0
  2  6  1  0
  2  3  1  0
  3  4  2  0
  3 21  1  0
  4  5  1  0
  5  6  2  0
  6  7  1  0
  7 17  1  0
  7  8  1  0
  8  9  1  0
  8 22  1  0
  8 23  1  0
  9 10  1  0
  9 11  1  0
  9 24  1  1
 11 12  1  0
 11 17  1  0
 11 25  1  1
 12 16  1  0
 12 13  1  0
 13 14  2  0
 13 26  1  0
 14 15  1  0
 14 27  1  0
 15 16  2  0
 17 28  1  0
 17 29  1  0
M  END
>  <i_m_ct_stereo_status>  (306) 
1

>  <s_m_source_file>  (306) 
/var/tmp/pbs.5076255.sched01/tmprcd7yfff/907v12ihtf.sdf

>  <i_m_source_file_index>  (306) 
39

>  <i_lp_mmshare_version>  (306) 
48012

>  <i_f3d_flags>  (306) 
0

>  <s_epik_input>  (306) 
W0NIM11uMVtjSF1ubmMxTjJbQ0gyXVtDQEBIXShGKVtDQEhdKFtDSDJdMiluM1tjSF1bY0hdbm4z

>  <s_epik_cmdline>  (306) 
J2VwaWtfcHl0aG9uJywgJy1waHQnLCAnMi4wJywgJy1waCcsICc3LjAnLCAnLXRuJywgJzgnLCAnLW1hJywgJzIwMCcsICctaW1hZScsICc8aW5maWxlLm1hZT4nLCAnLW9tYWUnLCAnPG91dGZpbGUubWFlPic=

>  <r_lp_tautomer_probability>  (306) 
1

>  <r_epik_Ionization_Penalty>  (306) 
0.0407724

>  <r_epik_Ionization_Penalty_Charging>  (306) 
0

>  <r_epik_Ionization_Penalty_Neutral>  (306) 
0.0407724

>  <r_epik_State_Penalty>  (306) 
0.00403999

>  <r_epik_Charging_Adjusted_Penalty>  (306) 
0.00403999

>  <i_epik_Tot_Q>  (306) 
0

>  <i_epik_Tot_abs_Q>  (306) 
0

>  <s_lp_Force_Field>  (306) 
OPLS3e

>  <r_lp_Energy>  (306) 
10.7209

>  <b_lp_Chiralities_Consistent>  (306) 
1

>  <s_lp_Variant>  (306) 
87:0-1

>  <s_i_glide_gridfile>  (306) 
pfpi4k_grid

>  <i_i_glide_lignum>  (306) 
39

>  <i_i_glide_rotatable_bonds>  (306) 
2

>  <r_i_docking_score>  (306) 
-3.69368

>  <r_i_glide_ligand_efficiency>  (306) 
-0.217275

>  <r_i_glide_ligand_efficiency_sa>  (306) 
-0.558676

>  <r_i_glide_ligand_efficiency_ln>  (306) 
-0.963599

>  <r_i_glide_gscore>  (306) 
-3.69368

>  <r_i_glide_lipo>  (306) 
-0.421032

>  <r_i_glide_hbond>  (306) 
0

>  <r_i_glide_metal>  (306) 
-0

>  <r_i_glide_rewards>  (306) 
-1.88238

>  <r_i_glide_evdw>  (306) 
-22.96

>  <r_i_glide_ecoul>  (306) 
-3.91074

>  <r_i_glide_erotb>  (306) 
0.612462

>  <r_i_glide_esite>  (306) 
-0.268113

>  <r_i_glide_emodel>  (306) 
-33.0248

>  <r_i_glide_energy>  (306) 
-26.8708

>  <r_i_glide_einternal>  (306) 
0.350023

>  <r_i_glide_intrahb_reward>  (306) 
-0

>  <i_i_glide_confnum>  (306) 
5

>  <i_i_glide_posenum>  (306) 
5

>  <r_i_glide_eff_state_penalty>  (306) 
0

>  <ligand_id>  (306) 
87

>  <original_smiles>  (306) 
Cn1cnnc1N1CC(F)C(n2ccnn2)C1

>  <smiles>  (306) 
[H]c1nnn(C2([H])C([H])([H])N(c3nnc([H])n3C([H])([H])[H])C([H])([H])C2([H])F)c1[H]

$$$$
87:0:1
     RDKit          3D

 29 31  0  0  1  0  0  0  0  0999 V2000
    4.1530   -7.6114    2.1867 C   0  0  0  0  0  0  0  0  0  0  0  0
    2.7976   -7.2562    1.7713 N   0  0  0  0  0  0  0  0  0  0  0  0
    1.6698   -7.9269    2.0547 C   0  0  0  0  0  0  0  0  0  0  0  0
    0.5464   -7.3719    1.5830 N   0  0  0  0  0  0  0  0  0  0  0  0
    0.9721   -6.2554    0.9056 N   0  0  0  0  0  0  0  0  0  0  0  0
    2.3038   -6.2159    1.0495 C   0  0  0  0  0  0  0  0  0  0  0  0
    3.1166   -5.2013    0.5264 N   0  0  0  0  0  0  0  0  0  0  0  0
    4.5748   -5.1217    0.5310 C   0  0  0  0  0  0  0  0  0  0  0  0
    5.0243   -4.0100   -0.3945 C   0  0  1  0  0  0  0  0  0  0  0  0
    5.2408   -4.5215   -1.6015 F   0  0  0  0  0  0  0  0  0  0  0  0
    3.8254   -3.0791   -0.4114 C   0  0  1  0  0  0  0  0  0  0  0  0
    3.7289   -2.3095   -1.6448 N   0  0  0  0  0  0  0  0  0  0  0  0
    3.1643   -2.6559   -2.8546 C   0  0  0  0  0  0  0  0  0  0  0  0
    3.4046   -1.5784   -3.6501 C   0  0  0  0  0  0  0  0  0  0  0  0
    4.1626   -0.6610   -2.9364 N   0  0  0  0  0  0  0  0  0  0  0  0
    4.3454   -1.1060   -1.7302 N   0  0  0  0  0  0  0  0  0  0  0  0
    2.6358   -4.0287   -0.1975 C   0  0  0  0  0  0  0  0  0  0  0  0
    4.1264   -8.3718    2.9655 H   0  0  0  0  0  0  0  0  0  0  0  0
    4.6683   -6.7478    2.6037 H   0  0  0  0  0  0  0  0  0  0  0  0
    4.7131   -8.0014    1.3374 H   0  0  0  0  0  0  0  0  0  0  0  0
    1.6815   -8.8463    2.6314 H   0  0  0  0  0  0  0  0  0  0  0  0
    4.8877   -4.8792    1.5444 H   0  0  0  0  0  0  0  0  0  0  0  0
    5.0226   -6.0627    0.2091 H   0  0  0  0  0  0  0  0  0  0  0  0
    5.9515   -3.5455   -0.0564 H   0  0  0  0  0  0  0  0  0  0  0  0
    3.8930   -2.3985    0.4428 H   0  0  0  0  0  0  0  0  0  0  0  0
    2.6609   -3.5929   -3.0475 H   0  0  0  0  0  0  0  0  0  0  0  0
    3.1073   -1.4069   -4.6699 H   0  0  0  0  0  0  0  0  0  0  0  0
    2.2083   -4.3977   -1.1329 H   0  0  0  0  0  0  0  0  0  0  0  0
    1.8441   -3.5189    0.3604 H   0  0  0  0  0  0  0  0  0  0  0  0
  1  2  1  0
  1 18  1  0
  1 19  1  0
  1 20  1  0
  2  6  1  0
  2  3  1  0
  3  4  2  0
  3 21  1  0
  4  5  1  0
  5  6  2  0
  6  7  1  0
  7 17  1  0
  7  8  1  0
  8  9  1  0
  8 22  1  0
  8 23  1  0
  9 10  1  0
  9 11  1  0
  9 24  1  1
 11 12  1  0
 11 17  1  0
 11 25  1  1
 12 16  1  0
 12 13  1  0
 13 14  2  0
 13 26  1  0
 14 15  1  0
 14 27  1  0
 15 16  2  0
 17 28  1  0
 17 29  1  0
M  END
>  <i_m_ct_stereo_status>  (307) 
1

>  <s_m_source_file>  (307) 
/var/tmp/pbs.5076255.sched01/tmprcd7yfff/907v12ihtf.sdf

>  <i_m_source_file_index>  (307) 
39

>  <i_lp_mmshare_version>  (307) 
48012

>  <i_f3d_flags>  (307) 
0

>  <s_epik_input>  (307) 
W0NIM11uMVtjSF1ubmMxTjJbQ0gyXVtDQEBIXShGKVtDQEhdKFtDSDJdMiluM1tjSF1bY0hdbm4z

>  <s_epik_cmdline>  (307) 
J2VwaWtfcHl0aG9uJywgJy1waHQnLCAnMi4wJywgJy1waCcsICc3LjAnLCAnLXRuJywgJzgnLCAnLW1hJywgJzIwMCcsICctaW1hZScsICc8aW5maWxlLm1hZT4nLCAnLW9tYWUnLCAnPG91dGZpbGUubWFlPic=

>  <r_lp_tautomer_probability>  (307) 
1

>  <r_epik_Ionization_Penalty>  (307) 
0.0407724

>  <r_epik_Ionization_Penalty_Charging>  (307) 
0

>  <r_epik_Ionization_Penalty_Neutral>  (307) 
0.0407724

>  <r_epik_State_Penalty>  (307) 
0.00403999

>  <r_epik_Charging_Adjusted_Penalty>  (307) 
0.00403999

>  <i_epik_Tot_Q>  (307) 
0

>  <i_epik_Tot_abs_Q>  (307) 
0

>  <s_lp_Force_Field>  (307) 
OPLS3e

>  <r_lp_Energy>  (307) 
10.7209

>  <b_lp_Chiralities_Consistent>  (307) 
1

>  <s_lp_Variant>  (307) 
87:0-1

>  <s_i_glide_gridfile>  (307) 
pfpi4k_grid

>  <i_i_glide_lignum>  (307) 
39

>  <i_i_glide_rotatable_bonds>  (307) 
2

>  <r_i_docking_score>  (307) 
-3.60649

>  <r_i_glide_ligand_efficiency>  (307) 
-0.212147

>  <r_i_glide_ligand_efficiency_sa>  (307) 
-0.545488

>  <r_i_glide_ligand_efficiency_ln>  (307) 
-0.940853

>  <r_i_glide_gscore>  (307) 
-3.60649

>  <r_i_glide_lipo>  (307) 
-0.347143

>  <r_i_glide_hbond>  (307) 
0

>  <r_i_glide_metal>  (307) 
-0

>  <r_i_glide_rewards>  (307) 
-1.80906

>  <r_i_glide_evdw>  (307) 
-23.3188

>  <r_i_glide_ecoul>  (307) 
-3.60503

>  <r_i_glide_erotb>  (307) 
0.612462

>  <r_i_glide_esite>  (307) 
-0.356055

>  <r_i_glide_emodel>  (307) 
-32.5452

>  <r_i_glide_energy>  (307) 
-26.9239

>  <r_i_glide_einternal>  (307) 
1.16979

>  <r_i_glide_intrahb_reward>  (307) 
-0

>  <i_i_glide_confnum>  (307) 
5

>  <i_i_glide_posenum>  (307) 
18

>  <r_i_glide_eff_state_penalty>  (307) 
0

>  <ligand_id>  (307) 
87

>  <original_smiles>  (307) 
Cn1cnnc1N1CC(F)C(n2ccnn2)C1

>  <smiles>  (307) 
[H]c1nnn(C2([H])C([H])([H])N(c3nnc([H])n3C([H])([H])[H])C([H])([H])C2([H])F)c1[H]

$$$$
87:0:2
     RDKit          3D

 29 31  0  0  1  0  0  0  0  0999 V2000
    2.2416   -3.1722   -3.5152 C   0  0  0  0  0  0  0  0  0  0  0  0
    3.1371   -2.0682   -3.2260 N   0  0  0  0  0  0  0  0  0  0  0  0
    3.3405   -0.9808   -3.9838 C   0  0  0  0  0  0  0  0  0  0  0  0
    4.2031   -0.1013   -3.4915 N   0  0  0  0  0  0  0  0  0  0  0  0
    4.6167   -0.6427   -2.2918 N   0  0  0  0  0  0  0  0  0  0  0  0
    3.9565   -1.7935   -2.1740 C   0  0  0  0  0  0  0  0  0  0  0  0
    4.0947   -2.6496   -1.0798 N   0  0  0  0  0  0  0  0  0  0  0  0
    4.5958   -2.2719    0.2419 C   0  0  0  0  0  0  0  0  0  0  0  0
    4.3003   -3.4091    1.2192 C   0  0  1  0  0  0  0  0  0  0  0  0
    3.1159   -3.1702    1.7827 F   0  0  0  0  0  0  0  0  0  0  0  0
    4.2882   -4.6320    0.3111 C   0  0  1  0  0  0  0  0  0  0  0  0
    3.4865   -5.7481    0.8041 N   0  0  0  0  0  0  0  0  0  0  0  0
    3.9224   -6.9083    1.3983 C   0  0  0  0  0  0  0  0  0  0  0  0
    2.7614   -7.5693    1.7015 C   0  0  0  0  0  0  0  0  0  0  0  0
    1.6844   -6.7920    1.2963 N   0  0  0  0  0  0  0  0  0  0  0  0
    2.1299   -5.7012    0.7602 N   0  0  0  0  0  0  0  0  0  0  0  0
    3.7882   -4.0703   -1.0149 C   0  0  0  0  0  0  0  0  0  0  0  0
    1.5694   -2.9081   -4.3306 H   0  0  0  0  0  0  0  0  0  0  0  0
    1.6131   -3.3793   -2.6515 H   0  0  0  0  0  0  0  0  0  0  0  0
    2.8171   -4.0563   -3.7959 H   0  0  0  0  0  0  0  0  0  0  0  0
    2.8442   -0.8362   -4.9325 H   0  0  0  0  0  0  0  0  0  0  0  0
    5.6684   -2.0873    0.1753 H   0  0  0  0  0  0  0  0  0  0  0  0
    4.1116   -1.3500    0.5697 H   0  0  0  0  0  0  0  0  0  0  0  0
    5.0315   -3.4899    2.0190 H   0  0  0  0  0  0  0  0  0  0  0  0
    5.3125   -4.9814    0.1589 H   0  0  0  0  0  0  0  0  0  0  0  0
    4.9589   -7.1507    1.5568 H   0  0  0  0  0  0  0  0  0  0  0  0
    2.6131   -8.5224    2.1836 H   0  0  0  0  0  0  0  0  0  0  0  0
    2.7078   -4.1745   -1.0735 H   0  0  0  0  0  0  0  0  0  0  0  0
    4.2574   -4.5873   -1.8543 H   0  0  0  0  0  0  0  0  0  0  0  0
  1  2  1  0
  1 18  1  0
  1 19  1  0
  1 20  1  0
  2  6  1  0
  2  3  1  0
  3  4  2  0
  3 21  1  0
  4  5  1  0
  5  6  2  0
  6  7  1  0
  7 17  1  0
  7  8  1  0
  8  9  1  0
  8 22  1  0
  8 23  1  0
  9 10  1  0
  9 11  1  0
  9 24  1  1
 11 12  1  0
 11 17  1  0
 11 25  1  6
 12 16  1  0
 12 13  1  0
 13 14  2  0
 13 26  1  0
 14 15  1  0
 14 27  1  0
 15 16  2  0
 17 28  1  0
 17 29  1  0
M  END
>  <i_m_ct_stereo_status>  (308) 
1

>  <s_m_source_file>  (308) 
/var/tmp/pbs.5076255.sched01/tmprcd7yfff/907v12ihtf.sdf

>  <i_m_source_file_index>  (308) 
39

>  <i_lp_mmshare_version>  (308) 
48012

>  <i_f3d_flags>  (308) 
0

>  <s_epik_input>  (308) 
W0NIM11uMVtjSF1ubmMxTjJbQ0gyXVtDQEBIXShGKVtDQEhdKFtDSDJdMiluM1tjSF1bY0hdbm4z

>  <s_epik_cmdline>  (308) 
J2VwaWtfcHl0aG9uJywgJy1waHQnLCAnMi4wJywgJy1waCcsICc3LjAnLCAnLXRuJywgJzgnLCAnLW1hJywgJzIwMCcsICctaW1hZScsICc8aW5maWxlLm1hZT4nLCAnLW9tYWUnLCAnPG91dGZpbGUubWFlPic=

>  <r_lp_tautomer_probability>  (308) 
1

>  <r_epik_Ionization_Penalty>  (308) 
0.0407724

>  <r_epik_Ionization_Penalty_Charging>  (308) 
0

>  <r_epik_Ionization_Penalty_Neutral>  (308) 
0.0407724

>  <r_epik_State_Penalty>  (308) 
0.00403999

>  <r_epik_Charging_Adjusted_Penalty>  (308) 
0.00403999

>  <i_epik_Tot_Q>  (308) 
0

>  <i_epik_Tot_abs_Q>  (308) 
0

>  <s_lp_Force_Field>  (308) 
OPLS3e

>  <r_lp_Energy>  (308) 
10.7209

>  <b_lp_Chiralities_Consistent>  (308) 
1

>  <s_lp_Variant>  (308) 
87:0-1

>  <s_i_glide_gridfile>  (308) 
pfpi4k_grid

>  <i_i_glide_lignum>  (308) 
39

>  <i_i_glide_rotatable_bonds>  (308) 
2

>  <r_i_docking_score>  (308) 
-3.56563

>  <r_i_glide_ligand_efficiency>  (308) 
-0.209743

>  <r_i_glide_ligand_efficiency_sa>  (308) 
-0.539308

>  <r_i_glide_ligand_efficiency_ln>  (308) 
-0.930193

>  <r_i_glide_gscore>  (308) 
-3.56563

>  <r_i_glide_lipo>  (308) 
-0.350363

>  <r_i_glide_hbond>  (308) 
0

>  <r_i_glide_metal>  (308) 
-0

>  <r_i_glide_rewards>  (308) 
-2.13317

>  <r_i_glide_evdw>  (308) 
-23.6725

>  <r_i_glide_ecoul>  (308) 
-2.35914

>  <r_i_glide_erotb>  (308) 
0.612462

>  <r_i_glide_esite>  (308) 
-0.157064

>  <r_i_glide_emodel>  (308) 
-31.7469

>  <r_i_glide_energy>  (308) 
-26.0316

>  <r_i_glide_einternal>  (308) 
0.646988

>  <r_i_glide_intrahb_reward>  (308) 
-0

>  <i_i_glide_confnum>  (308) 
3

>  <i_i_glide_posenum>  (308) 
15

>  <r_i_glide_eff_state_penalty>  (308) 
0

>  <ligand_id>  (308) 
87

>  <original_smiles>  (308) 
Cn1cnnc1N1CC(F)C(n2ccnn2)C1

>  <smiles>  (308) 
[H]c1nnn(C2([H])C([H])([H])N(c3nnc([H])n3C([H])([H])[H])C([H])([H])C2([H])F)c1[H]

$$$$
88:0:0
     RDKit          3D

 19 20  0  0  1  0  0  0  0  0999 V2000
    6.0072   -5.0789    0.9142 C   0  0  0  0  0  0  0  0  0  0  0  0
    6.9879   -4.0790    0.5325 N   0  0  0  0  0  0  0  0  0  0  0  0
    8.3089   -4.3819    0.4809 N   0  0  0  0  0  0  0  0  0  0  0  0
    8.9248   -3.3019    0.0959 N   0  0  0  0  0  0  0  0  0  0  0  0
    8.0353   -2.2629   -0.1054 N   0  0  0  0  0  0  0  0  0  0  0  0
    6.8544   -2.7980    0.1696 C   0  0  0  0  0  0  0  0  0  0  0  0
    5.3185   -1.9432    0.0935 S   0  0  0  0  0  0  0  0  0  0  0  0
    4.7188   -2.3448   -1.5229 C   0  0  0  0  0  0  0  0  0  0  0  0
    3.5415   -1.7528   -1.9991 C   0  0  0  0  0  0  0  0  0  0  0  0
    3.1179   -2.1389   -3.2808 C   0  0  0  0  0  0  0  0  0  0  0  0
    3.8261   -3.0170   -4.0157 N   0  0  0  0  0  0  0  0  0  0  0  0
    4.9240   -3.5230   -3.4587 C   0  0  0  0  0  0  0  0  0  0  0  0
    5.4219   -3.2289   -2.2561 N   0  0  0  0  0  0  0  0  0  0  0  0
    5.1104   -4.6078    1.3209 H   0  0  0  0  0  0  0  0  0  0  0  0
    6.4237   -5.7439    1.6709 H   0  0  0  0  0  0  0  0  0  0  0  0
    5.7315   -5.6652    0.0374 H   0  0  0  0  0  0  0  0  0  0  0  0
    2.9791   -1.0533   -1.4022 H   0  0  0  0  0  0  0  0  0  0  0  0
    2.2167   -1.7448   -3.7247 H   0  0  0  0  0  0  0  0  0  0  0  0
    5.4751   -4.2282   -4.0600 H   0  0  0  0  0  0  0  0  0  0  0  0
  1  2  1  0
  1 14  1  0
  1 15  1  0
  1 16  1  0
  2  6  1  0
  2  3  1  0
  3  4  2  0
  4  5  1  0
  5  6  2  0
  6  7  1  0
  7  8  1  0
  8 13  1  0
  8  9  2  0
  9 10  1  0
  9 17  1  0
 10 11  2  0
 10 18  1  0
 11 12  1  0
 12 13  2  0
 12 19  1  0
M  END
>  <i_m_ct_stereo_status>  (309) 
1

>  <s_m_source_file>  (309) 
/var/tmp/pbs.5076255.sched01/tmprcd7yfff/907v12ihtf.sdf

>  <i_m_source_file_index>  (309) 
40

>  <i_lp_mmshare_version>  (309) 
48012

>  <i_f3d_flags>  (309) 
0

>  <s_epik_input>  (309) 
W0NIM11uMW5ubmMxU2MyW2NIXVtjSF1uW2NIXW4y

>  <s_epik_cmdline>  (309) 
J2VwaWtfcHl0aG9uJywgJy1waHQnLCAnMi4wJywgJy1waCcsICc3LjAnLCAnLXRuJywgJzgnLCAnLW1hJywgJzIwMCcsICctaW1hZScsICc8aW5maWxlLm1hZT4nLCAnLW9tYWUnLCAnPG91dGZpbGUubWFlPic=

>  <r_lp_tautomer_probability>  (309) 
1

>  <r_epik_Ionization_Penalty>  (309) 
1.44872e-06

>  <r_epik_Ionization_Penalty_Charging>  (309) 
0

>  <r_epik_Ionization_Penalty_Neutral>  (309) 
1.44872e-06

>  <r_epik_State_Penalty>  (309) 
-0

>  <r_epik_Charging_Adjusted_Penalty>  (309) 
0

>  <i_epik_Tot_Q>  (309) 
0

>  <i_epik_Tot_abs_Q>  (309) 
0

>  <s_lp_Force_Field>  (309) 
OPLS3e

>  <r_lp_Energy>  (309) 
17.8139

>  <b_lp_Chiralities_Consistent>  (309) 
1

>  <s_lp_Variant>  (309) 
88:0-1

>  <s_i_glide_gridfile>  (309) 
pfpi4k_grid

>  <i_i_glide_lignum>  (309) 
40

>  <i_i_glide_rotatable_bonds>  (309) 
2

>  <r_i_docking_score>  (309) 
-3.9139

>  <r_i_glide_ligand_efficiency>  (309) 
-0.301069

>  <r_i_glide_ligand_efficiency_sa>  (309) 
-0.707914

>  <r_i_glide_ligand_efficiency_ln>  (309) 
-1.09788

>  <r_i_glide_gscore>  (309) 
-3.9139

>  <r_i_glide_lipo>  (309) 
-0.22305

>  <r_i_glide_hbond>  (309) 
-0.134087

>  <r_i_glide_metal>  (309) 
-0

>  <r_i_glide_rewards>  (309) 
-2.64872

>  <r_i_glide_evdw>  (309) 
-24.8999

>  <r_i_glide_ecoul>  (309) 
-3.45709

>  <r_i_glide_erotb>  (309) 
0.857506

>  <r_i_glide_esite>  (309) 
-0.00199141

>  <r_i_glide_emodel>  (309) 
-35.3171

>  <r_i_glide_energy>  (309) 
-28.357

>  <r_i_glide_einternal>  (309) 
0.183459

>  <r_i_glide_intrahb_reward>  (309) 
-0

>  <i_i_glide_confnum>  (309) 
4

>  <i_i_glide_posenum>  (309) 
13

>  <r_i_glide_eff_state_penalty>  (309) 
0

>  <ligand_id>  (309) 
88

>  <original_smiles>  (309) 
Cn1nnnc1Sc1ccncn1

>  <smiles>  (309) 
[H]c1nc([H])c([H])c(Sc2nnnn2C([H])([H])[H])n1

$$$$
88:0:1
     RDKit          3D

 19 20  0  0  1  0  0  0  0  0999 V2000
    2.1757    0.4237    1.6308 C   0  0  0  0  0  0  0  0  0  0  0  0
    2.6032   -0.9631    1.6367 N   0  0  0  0  0  0  0  0  0  0  0  0
    1.9037   -1.8803    2.3437 N   0  0  0  0  0  0  0  0  0  0  0  0
    2.4904   -3.0241    2.1619 N   0  0  0  0  0  0  0  0  0  0  0  0
    3.5894   -2.9012    1.3356 N   0  0  0  0  0  0  0  0  0  0  0  0
    3.6161   -1.6119    1.0326 C   0  0  0  0  0  0  0  0  0  0  0  0
    4.8409   -0.8524    0.0225 S   0  0  0  0  0  0  0  0  0  0  0  0
    4.5588   -1.6687   -1.5171 C   0  0  0  0  0  0  0  0  0  0  0  0
    3.3965   -1.4354   -2.2686 C   0  0  0  0  0  0  0  0  0  0  0  0
    3.2666   -2.1646   -3.4614 C   0  0  0  0  0  0  0  0  0  0  0  0
    4.2260   -3.0115   -3.8759 N   0  0  0  0  0  0  0  0  0  0  0  0
    5.2933   -3.1443   -3.0822 C   0  0  0  0  0  0  0  0  0  0  0  0
    5.5253   -2.5099   -1.9308 N   0  0  0  0  0  0  0  0  0  0  0  0
    3.0112    1.0902    1.4185 H   0  0  0  0  0  0  0  0  0  0  0  0
    1.7572    0.6878    2.6044 H   0  0  0  0  0  0  0  0  0  0  0  0
    1.3986    0.5613    0.8784 H   0  0  0  0  0  0  0  0  0  0  0  0
    2.6153   -0.7670   -1.9341 H   0  0  0  0  0  0  0  0  0  0  0  0
    2.3907   -2.0694   -4.0874 H   0  0  0  0  0  0  0  0  0  0  0  0
    6.0613   -3.8191   -3.4247 H   0  0  0  0  0  0  0  0  0  0  0  0
  1  2  1  0
  1 14  1  0
  1 15  1  0
  1 16  1  0
  2  6  1  0
  2  3  1  0
  3  4  2  0
  4  5  1  0
  5  6  2  0
  6  7  1  0
  7  8  1  0
  8 13  1  0
  8  9  2  0
  9 10  1  0
  9 17  1  0
 10 11  2  0
 10 18  1  0
 11 12  1  0
 12 13  2  0
 12 19  1  0
M  END
>  <i_m_ct_stereo_status>  (310) 
1

>  <s_m_source_file>  (310) 
/var/tmp/pbs.5076255.sched01/tmprcd7yfff/907v12ihtf.sdf

>  <i_m_source_file_index>  (310) 
40

>  <i_lp_mmshare_version>  (310) 
48012

>  <i_f3d_flags>  (310) 
0

>  <s_epik_input>  (310) 
W0NIM11uMW5ubmMxU2MyW2NIXVtjSF1uW2NIXW4y

>  <s_epik_cmdline>  (310) 
J2VwaWtfcHl0aG9uJywgJy1waHQnLCAnMi4wJywgJy1waCcsICc3LjAnLCAnLXRuJywgJzgnLCAnLW1hJywgJzIwMCcsICctaW1hZScsICc8aW5maWxlLm1hZT4nLCAnLW9tYWUnLCAnPG91dGZpbGUubWFlPic=

>  <r_lp_tautomer_probability>  (310) 
1

>  <r_epik_Ionization_Penalty>  (310) 
1.44872e-06

>  <r_epik_Ionization_Penalty_Charging>  (310) 
0

>  <r_epik_Ionization_Penalty_Neutral>  (310) 
1.44872e-06

>  <r_epik_State_Penalty>  (310) 
-0

>  <r_epik_Charging_Adjusted_Penalty>  (310) 
0

>  <i_epik_Tot_Q>  (310) 
0

>  <i_epik_Tot_abs_Q>  (310) 
0

>  <s_lp_Force_Field>  (310) 
OPLS3e

>  <r_lp_Energy>  (310) 
17.8139

>  <b_lp_Chiralities_Consistent>  (310) 
1

>  <s_lp_Variant>  (310) 
88:0-1

>  <s_i_glide_gridfile>  (310) 
pfpi4k_grid

>  <i_i_glide_lignum>  (310) 
40

>  <i_i_glide_rotatable_bonds>  (310) 
2

>  <r_i_docking_score>  (310) 
-3.46928

>  <r_i_glide_ligand_efficiency>  (310) 
-0.266867

>  <r_i_glide_ligand_efficiency_sa>  (310) 
-0.627495

>  <r_i_glide_ligand_efficiency_ln>  (310) 
-0.973163

>  <r_i_glide_gscore>  (310) 
-3.46928

>  <r_i_glide_lipo>  (310) 
-0.207349

>  <r_i_glide_hbond>  (310) 
-0.0638255

>  <r_i_glide_metal>  (310) 
-0

>  <r_i_glide_rewards>  (310) 
-2.34998

>  <r_i_glide_evdw>  (310) 
-22.4363

>  <r_i_glide_ecoul>  (310) 
-3.10903

>  <r_i_glide_erotb>  (310) 
0.857506

>  <r_i_glide_esite>  (310) 
-0.117453

>  <r_i_glide_emodel>  (310) 
-31.135

>  <r_i_glide_energy>  (310) 
-25.5453

>  <r_i_glide_einternal>  (310) 
1.25067

>  <r_i_glide_intrahb_reward>  (310) 
-0

>  <i_i_glide_confnum>  (310) 
4

>  <i_i_glide_posenum>  (310) 
3

>  <r_i_glide_eff_state_penalty>  (310) 
0

>  <ligand_id>  (310) 
88

>  <original_smiles>  (310) 
Cn1nnnc1Sc1ccncn1

>  <smiles>  (310) 
[H]c1nc([H])c([H])c(Sc2nnnn2C([H])([H])[H])n1

$$$$
88:0:2
     RDKit          3D

 19 20  0  0  1  0  0  0  0  0999 V2000
    1.9594   -3.3530   -2.5874 C   0  0  0  0  0  0  0  0  0  0  0  0
    3.0037   -2.3493   -2.5179 N   0  0  0  0  0  0  0  0  0  0  0  0
    3.2311   -1.5253   -3.5699 N   0  0  0  0  0  0  0  0  0  0  0  0
    4.2137   -0.7437   -3.2379 N   0  0  0  0  0  0  0  0  0  0  0  0
    4.6891   -1.0538   -1.9797 N   0  0  0  0  0  0  0  0  0  0  0  0
    3.8874   -2.0273   -1.5636 C   0  0  0  0  0  0  0  0  0  0  0  0
    4.0050   -2.8612   -0.0136 S   0  0  0  0  0  0  0  0  0  0  0  0
    3.1844   -1.7469    1.0839 C   0  0  0  0  0  0  0  0  0  0  0  0
    2.4008   -2.2352    2.1464 C   0  0  0  0  0  0  0  0  0  0  0  0
    1.8200   -1.2593    2.9729 C   0  0  0  0  0  0  0  0  0  0  0  0
    2.0110    0.0549    2.7621 N   0  0  0  0  0  0  0  0  0  0  0  0
    2.7892    0.3944    1.7325 C   0  0  0  0  0  0  0  0  0  0  0  0
    3.4114   -0.4331    0.8952 N   0  0  0  0  0  0  0  0  0  0  0  0
    2.1572   -4.1903   -1.9179 H   0  0  0  0  0  0  0  0  0  0  0  0
    1.8749   -3.7204   -3.6109 H   0  0  0  0  0  0  0  0  0  0  0  0
    1.0132   -2.9105   -2.3100 H   0  0  0  0  0  0  0  0  0  0  0  0
    2.2661   -3.2910    2.3193 H   0  0  0  0  0  0  0  0  0  0  0  0
    1.2005   -1.5257    3.8154 H   0  0  0  0  0  0  0  0  0  0  0  0
    2.9375    1.4498    1.5721 H   0  0  0  0  0  0  0  0  0  0  0  0
  1  2  1  0
  1 14  1  0
  1 15  1  0
  1 16  1  0
  2  6  1  0
  2  3  1  0
  3  4  2  0
  4  5  1  0
  5  6  2  0
  6  7  1  0
  7  8  1  0
  8 13  1  0
  8  9  2  0
  9 10  1  0
  9 17  1  0
 10 11  2  0
 10 18  1  0
 11 12  1  0
 12 13  2  0
 12 19  1  0
M  END
>  <i_m_ct_stereo_status>  (311) 
1

>  <s_m_source_file>  (311) 
/var/tmp/pbs.5076255.sched01/tmprcd7yfff/907v12ihtf.sdf

>  <i_m_source_file_index>  (311) 
40

>  <i_lp_mmshare_version>  (311) 
48012

>  <i_f3d_flags>  (311) 
0

>  <s_epik_input>  (311) 
W0NIM11uMW5ubmMxU2MyW2NIXVtjSF1uW2NIXW4y

>  <s_epik_cmdline>  (311) 
J2VwaWtfcHl0aG9uJywgJy1waHQnLCAnMi4wJywgJy1waCcsICc3LjAnLCAnLXRuJywgJzgnLCAnLW1hJywgJzIwMCcsICctaW1hZScsICc8aW5maWxlLm1hZT4nLCAnLW9tYWUnLCAnPG91dGZpbGUubWFlPic=

>  <r_lp_tautomer_probability>  (311) 
1

>  <r_epik_Ionization_Penalty>  (311) 
1.44872e-06

>  <r_epik_Ionization_Penalty_Charging>  (311) 
0

>  <r_epik_Ionization_Penalty_Neutral>  (311) 
1.44872e-06

>  <r_epik_State_Penalty>  (311) 
-0

>  <r_epik_Charging_Adjusted_Penalty>  (311) 
0

>  <i_epik_Tot_Q>  (311) 
0

>  <i_epik_Tot_abs_Q>  (311) 
0

>  <s_lp_Force_Field>  (311) 
OPLS3e

>  <r_lp_Energy>  (311) 
17.8139

>  <b_lp_Chiralities_Consistent>  (311) 
1

>  <s_lp_Variant>  (311) 
88:0-1

>  <s_i_glide_gridfile>  (311) 
pfpi4k_grid

>  <i_i_glide_lignum>  (311) 
40

>  <i_i_glide_rotatable_bonds>  (311) 
2

>  <r_i_docking_score>  (311) 
-3.27029

>  <r_i_glide_ligand_efficiency>  (311) 
-0.251561

>  <r_i_glide_ligand_efficiency_sa>  (311) 
-0.591503

>  <r_i_glide_ligand_efficiency_ln>  (311) 
-0.917345

>  <r_i_glide_gscore>  (311) 
-3.27029

>  <r_i_glide_lipo>  (311) 
-0.245895

>  <r_i_glide_hbond>  (311) 
0

>  <r_i_glide_metal>  (311) 
-0

>  <r_i_glide_rewards>  (311) 
-2.11062

>  <r_i_glide_evdw>  (311) 
-21.9918

>  <r_i_glide_ecoul>  (311) 
-3.58884

>  <r_i_glide_erotb>  (311) 
0.857506

>  <r_i_glide_esite>  (311) 
-0.133366

>  <r_i_glide_emodel>  (311) 
-30.8993

>  <r_i_glide_energy>  (311) 
-25.5806

>  <r_i_glide_einternal>  (311) 
1.07766

>  <r_i_glide_intrahb_reward>  (311) 
-0

>  <i_i_glide_confnum>  (311) 
4

>  <i_i_glide_posenum>  (311) 
5

>  <r_i_glide_eff_state_penalty>  (311) 
0

>  <ligand_id>  (311) 
88

>  <original_smiles>  (311) 
Cn1nnnc1Sc1ccncn1

>  <smiles>  (311) 
[H]c1nc([H])c([H])c(Sc2nnnn2C([H])([H])[H])n1

$$$$
89:0:0
     RDKit          3D

 47 50  0  0  1  0  0  0  0  0999 V2000
    3.5901   -1.8370   -3.5715 C   0  0  0  0  0  0  0  0  0  0  0  0
    3.3092   -1.5141   -2.2324 C   0  0  0  0  0  0  0  0  0  0  0  0
    3.8161   -2.3477   -1.2088 C   0  0  0  0  0  0  0  0  0  0  0  0
    3.5047   -2.0584    0.2378 C   0  0  0  0  0  0  0  0  0  0  0  0
    4.1116   -0.7182    0.7009 C   0  0  0  0  0  0  0  0  0  0  0  0
    3.3502   -0.1416    1.9018 C   0  0  0  0  0  0  0  0  0  0  0  0
    2.0263    0.3176    1.5133 N   0  0  0  0  0  0  0  0  0  0  0  0
    1.1470    0.8550    2.5891 C   0  0  2  0  0  0  0  0  0  0  0  0
   -0.2467    1.1870    1.9826 C   0  0  0  0  0  0  0  0  0  0  0  0
   -1.1927    1.7418    3.0685 C   0  0  1  0  0  0  0  0  0  0  0  0
   -1.3675    0.6882    4.1813 C   0  0  0  0  0  0  0  0  0  0  0  0
    0.0066    0.3814    4.8033 C   0  0  2  0  0  0  0  0  0  0  0  0
    0.6323    1.6669    5.3854 C   0  0  0  0  0  0  0  0  0  0  0  0
    0.7898    2.7180    4.2667 C   0  0  2  0  0  0  0  0  0  0  0  0
   -0.5919    3.0299    3.6620 C   0  0  0  0  0  0  0  0  0  0  0  0
    1.7264    2.1675    3.1764 C   0  0  0  0  0  0  0  0  0  0  0  0
    0.9388   -0.1847    3.7253 C   0  0  0  0  0  0  0  0  0  0  0  0
    4.6022   -3.4575   -1.5734 C   0  0  0  0  0  0  0  0  0  0  0  0
    4.8213   -3.6849   -2.9520 C   0  0  0  0  0  0  0  0  0  0  0  0
    4.3299   -2.8995   -3.9235 N   0  0  0  0  0  0  0  0  0  0  0  0
    3.2014   -1.2263   -4.3714 H   0  0  0  0  0  0  0  0  0  0  0  0
    2.6660   -0.6819   -2.0012 H   0  0  0  0  0  0  0  0  0  0  0  0
    2.4205   -2.0713    0.3497 H   0  0  0  0  0  0  0  0  0  0  0  0
    3.8664   -2.8632    0.8798 H   0  0  0  0  0  0  0  0  0  0  0  0
    5.1630   -0.8665    0.9451 H   0  0  0  0  0  0  0  0  0  0  0  0
    4.0948    0.0307   -0.0948 H   0  0  0  0  0  0  0  0  0  0  0  0
    3.3305   -0.9222    2.6740 H   0  0  0  0  0  0  0  0  0  0  0  0
    3.9446    0.6857    2.3100 H   0  0  0  0  0  0  0  0  0  0  0  0
    2.1075    1.0512    0.8239 H   0  0  0  0  0  0  0  0  0  0  0  0
   -0.1524    1.9137    1.1711 H   0  0  0  0  0  0  0  0  0  0  0  0
   -0.6862    0.2954    1.5366 H   0  0  0  0  0  0  0  0  0  0  0  0
   -2.1630    1.9652    2.6221 H   0  0  0  0  0  0  0  0  0  0  0  0
   -2.0627    1.0442    4.9404 H   0  0  0  0  0  0  0  0  0  0  0  0
   -1.7955   -0.2237    3.7621 H   0  0  0  0  0  0  0  0  0  0  0  0
   -0.1098   -0.3586    5.5982 H   0  0  0  0  0  0  0  0  0  0  0  0
    0.0170    2.0624    6.1935 H   0  0  0  0  0  0  0  0  0  0  0  0
    1.6083    1.4420    5.8222 H   0  0  0  0  0  0  0  0  0  0  0  0
    1.2183    3.6311    4.6836 H   0  0  0  0  0  0  0  0  0  0  0  0
   -0.4967    3.7896    2.8813 H   0  0  0  0  0  0  0  0  0  0  0  0
   -1.2529    3.4475    4.4180 H   0  0  0  0  0  0  0  0  0  0  0  0
    2.7121    2.0109    3.6181 H   0  0  0  0  0  0  0  0  0  0  0  0
    1.8589    2.9143    2.3882 H   0  0  0  0  0  0  0  0  0  0  0  0
    0.5333   -1.1161    3.3228 H   0  0  0  0  0  0  0  0  0  0  0  0
    1.8762   -0.4390    4.2217 H   0  0  0  0  0  0  0  0  0  0  0  0
    4.9917   -4.1355   -0.8325 H   0  0  0  0  0  0  0  0  0  0  0  0
    5.4049   -4.5333   -3.2625 H   0  0  0  0  0  0  0  0  0  0  0  0
    1.5189   -0.4277    1.0350 H   0  0  0  0  0  0  0  0  0  0  0  0
  1 20  2  0
  1  2  1  0
  1 21  1  0
  2  3  2  0
  2 22  1  0
  3  4  1  0
  3 18  1  0
  4  5  1  0
  4 23  1  0
  4 24  1  0
  5  6  1  0
  5 25  1  0
  5 26  1  0
  6  7  1  0
  6 27  1  0
  6 28  1  0
  8  7  1  6
  7 29  1  0
  7 47  1  0
  8 16  1  0
  8 17  1  0
  8  9  1  0
  9 10  1  0
  9 30  1  0
  9 31  1  0
 10 15  1  0
 10 11  1  0
 10 32  1  6
 11 12  1  0
 11 33  1  0
 11 34  1  0
 12 13  1  0
 12 17  1  0
 12 35  1  1
 13 14  1  0
 13 36  1  0
 13 37  1  0
 14 15  1  0
 14 16  1  0
 14 38  1  1
 15 39  1  0
 15 40  1  0
 16 41  1  0
 16 42  1  0
 17 43  1  0
 17 44  1  0
 18 19  2  0
 18 45  1  0
 19 20  1  0
 19 46  1  0
M  CHG  1   7   1
M  END
>  <i_m_ct_stereo_status>  (312) 
1

>  <s_m_source_file>  (312) 
/var/tmp/pbs.5076255.sched01/tmprcd7yfff/907v12ihtf.sdf

>  <i_m_source_file_index>  (312) 
41

>  <i_lp_mmshare_version>  (312) 
48012

>  <i_f3d_flags>  (312) 
0

>  <s_epik_input>  (312) 
W2NIXTFbY0hdbltjSF1bY0hdYzFbQ0gyXVtDSDJdW0NIMl1bTkhdQzIzW0NIMl1bQ0BIXTRbQ0gyXVtDQEBIXShbQ0gyXTMpW0NIMl1bQ0BIXShbQ0gyXTQpW0NIMl0y

>  <s_epik_cmdline>  (312) 
J2VwaWtfcHl0aG9uJywgJy1waHQnLCAnMi4wJywgJy1waCcsICc3LjAnLCAnLXRuJywgJzgnLCAnLW1hJywgJzIwMCcsICctaW1hZScsICc8aW5maWxlLm1hZT4nLCAnLW9tYWUnLCAnPG91dGZpbGUubWFlPic=

>  <r_epik_Ionization_Penalty>  (312) 
0.0214319

>  <r_epik_Ionization_Penalty_Charging>  (312) 
5.6965e-05

>  <r_epik_Ionization_Penalty_Neutral>  (312) 
0.021375

>  <r_epik_State_Penalty>  (312) 
0.0171868

>  <r_epik_Charging_Adjusted_Penalty>  (312) 
0.0172437

>  <i_epik_Tot_Q>  (312) 
1

>  <i_epik_Tot_abs_Q>  (312) 
1

>  <s_lp_Force_Field>  (312) 
OPLS3e

>  <r_lp_Energy>  (312) 
21.0968

>  <b_lp_Chiralities_Consistent>  (312) 
1

>  <s_lp_Variant>  (312) 
89:0-1

>  <s_i_glide_gridfile>  (312) 
pfpi4k_grid

>  <i_i_glide_lignum>  (312) 
41

>  <i_i_glide_rotatable_bonds>  (312) 
5

>  <r_i_docking_score>  (312) 
-3.57797

>  <r_i_glide_ligand_efficiency>  (312) 
-0.178899

>  <r_i_glide_ligand_efficiency_sa>  (312) 
-0.485605

>  <r_i_glide_ligand_efficiency_ln>  (312) 
-0.895448

>  <r_i_glide_gscore>  (312) 
-3.57797

>  <r_i_glide_lipo>  (312) 
-0.333343

>  <r_i_glide_hbond>  (312) 
-0.273223

>  <r_i_glide_metal>  (312) 
-0

>  <r_i_glide_rewards>  (312) 
-1.5585

>  <r_i_glide_evdw>  (312) 
-22.0481

>  <r_i_glide_ecoul>  (312) 
-6.48448

>  <r_i_glide_erotb>  (312) 
0.729087

>  <r_i_glide_esite>  (312) 
-0.0669172

>  <r_i_glide_emodel>  (312) 
-34.4938

>  <r_i_glide_energy>  (312) 
-28.5326

>  <r_i_glide_einternal>  (312) 
3.38603

>  <r_i_glide_intrahb_reward>  (312) 
-0

>  <i_i_glide_confnum>  (312) 
4

>  <i_i_glide_posenum>  (312) 
2

>  <r_i_glide_eff_state_penalty>  (312) 
0

>  <ligand_id>  (312) 
89

>  <original_smiles>  (312) 
c1cc(CCCNC23CC4CC(CC(C4)C2)C3)ccn1

>  <smiles>  (312) 
[H]c1nc([H])c([H])c(C([H])([H])C([H])([H])C([H])([H])[N+]([H])([H])C23C([H])([H])C4([H])C([H])([H])C([H])(C([H])([H])C([H])(C4([H])[H])C2([H])[H])C3([H])[H])c1[H]

$$$$
89:0:1
     RDKit          3D

 47 50  0  0  1  0  0  0  0  0999 V2000
    5.1491   -1.0867   -0.4917 C   0  0  0  0  0  0  0  0  0  0  0  0
    3.8346   -1.3490   -0.0971 C   0  0  0  0  0  0  0  0  0  0  0  0
    3.5809   -1.4988    1.2779 C   0  0  0  0  0  0  0  0  0  0  0  0
    2.1768   -1.7695    1.7384 C   0  0  0  0  0  0  0  0  0  0  0  0
    1.4931   -0.5522    2.3037 C   0  0  0  0  0  0  0  0  0  0  0  0
    1.6358    0.7999    1.5498 C   0  0  0  0  0  0  0  0  0  0  0  0
    0.5017    1.7364    1.7758 N   0  0  0  0  0  0  0  0  0  0  0  0
    0.0634    1.9668    3.1945 C   0  0  2  0  0  0  0  0  0  0  0  0
    1.3095    2.1949    4.1173 C   0  0  0  0  0  0  0  0  0  0  0  0
    0.8227    2.4163    5.5625 C   0  0  1  0  0  0  0  0  0  0  0  0
   -0.0350    3.6935    5.6058 C   0  0  0  0  0  0  0  0  0  0  0  0
   -1.2745    3.5126    4.7037 C   0  0  2  0  0  0  0  0  0  0  0  0
   -2.1277    2.3191    5.1875 C   0  0  0  0  0  0  0  0  0  0  0  0
   -1.2662    1.0478    5.1472 C   0  0  2  0  0  0  0  0  0  0  0  0
   -0.0147    1.2066    6.0443 C   0  0  0  0  0  0  0  0  0  0  0  0
   -0.8144    0.7873    3.7196 C   0  0  0  0  0  0  0  0  0  0  0  0
   -0.8092    3.2538    3.2511 C   0  0  0  0  0  0  0  0  0  0  0  0
    4.6268   -1.3395    2.2085 C   0  0  0  0  0  0  0  0  0  0  0  0
    5.9077   -1.0785    1.6997 C   0  0  0  0  0  0  0  0  0  0  0  0
    6.1760   -0.9693    0.3792 N   0  0  0  0  0  0  0  0  0  0  0  0
    5.3764   -0.9771   -1.5410 H   0  0  0  0  0  0  0  0  0  0  0  0
    3.0206   -1.4257   -0.8089 H   0  0  0  0  0  0  0  0  0  0  0  0
    1.5761   -2.1373    0.9037 H   0  0  0  0  0  0  0  0  0  0  0  0
    2.1774   -2.5472    2.5049 H   0  0  0  0  0  0  0  0  0  0  0  0
    0.4509   -0.8534    2.2812 H   0  0  0  0  0  0  0  0  0  0  0  0
    1.8473   -0.4614    3.3303 H   0  0  0  0  0  0  0  0  0  0  0  0
    2.5890    1.3093    1.7682 H   0  0  0  0  0  0  0  0  0  0  0  0
    1.6705    0.5811    0.4814 H   0  0  0  0  0  0  0  0  0  0  0  0
    0.7113    2.6578    1.3724 H   0  0  0  0  0  0  0  0  0  0  0  0
    1.9959    1.3442    4.1513 H   0  0  0  0  0  0  0  0  0  0  0  0
    1.8962    3.0593    3.7636 H   0  0  0  0  0  0  0  0  0  0  0  0
    1.7026    2.5212    6.1998 H   0  0  0  0  0  0  0  0  0  0  0  0
   -0.3197    3.9117    6.6373 H   0  0  0  0  0  0  0  0  0  0  0  0
    0.5678    4.5289    5.2468 H   0  0  0  0  0  0  0  0  0  0  0  0
   -1.8801    4.4089    4.7373 H   0  0  0  0  0  0  0  0  0  0  0  0
   -2.5134    2.4771    6.2051 H   0  0  0  0  0  0  0  0  0  0  0  0
   -2.9859    2.1846    4.5177 H   0  0  0  0  0  0  0  0  0  0  0  0
   -1.8526    0.1875    5.4792 H   0  0  0  0  0  0  0  0  0  0  0  0
    0.5872    0.2982    6.0140 H   0  0  0  0  0  0  0  0  0  0  0  0
   -0.3075    1.3340    7.0894 H   0  0  0  0  0  0  0  0  0  0  0  0
   -1.6620    0.6161    3.0582 H   0  0  0  0  0  0  0  0  0  0  0  0
   -0.2896   -0.1487    3.8490 H   0  0  0  0  0  0  0  0  0  0  0  0
   -0.2467    4.1218    2.8825 H   0  0  0  0  0  0  0  0  0  0  0  0
   -1.6757    3.1568    2.5854 H   0  0  0  0  0  0  0  0  0  0  0  0
    4.4416   -1.4170    3.2727 H   0  0  0  0  0  0  0  0  0  0  0  0
    6.7345   -0.9707    2.3785 H   0  0  0  0  0  0  0  0  0  0  0  0
   -0.2950    1.4016    1.2383 H   0  0  0  0  0  0  0  0  0  0  0  0
  1 20  2  0
  1  2  1  0
  1 21  1  0
  2  3  2  0
  2 22  1  0
  3  4  1  0
  3 18  1  0
  4  5  1  0
  4 23  1  0
  4 24  1  0
  5  6  1  0
  5 25  1  0
  5 26  1  0
  6  7  1  0
  6 27  1  0
  6 28  1  0
  8  7  1  6
  7 29  1  0
  7 47  1  0
  8 16  1  0
  8 17  1  0
  8  9  1  0
  9 10  1  0
  9 30  1  0
  9 31  1  0
 10 15  1  0
 10 11  1  0
 10 32  1  1
 11 12  1  0
 11 33  1  0
 11 34  1  0
 12 13  1  0
 12 17  1  0
 12 35  1  6
 13 14  1  0
 13 36  1  0
 13 37  1  0
 14 15  1  0
 14 16  1  0
 14 38  1  1
 15 39  1  0
 15 40  1  0
 16 41  1  0
 16 42  1  0
 17 43  1  0
 17 44  1  0
 18 19  2  0
 18 45  1  0
 19 20  1  0
 19 46  1  0
M  CHG  1   7   1
M  END
>  <i_m_ct_stereo_status>  (313) 
1

>  <s_m_source_file>  (313) 
/var/tmp/pbs.5076255.sched01/tmprcd7yfff/907v12ihtf.sdf

>  <i_m_source_file_index>  (313) 
41

>  <i_lp_mmshare_version>  (313) 
48012

>  <i_f3d_flags>  (313) 
0

>  <s_epik_input>  (313) 
W2NIXTFbY0hdbltjSF1bY0hdYzFbQ0gyXVtDSDJdW0NIMl1bTkhdQzIzW0NIMl1bQ0BIXTRbQ0gyXVtDQEBIXShbQ0gyXTMpW0NIMl1bQ0BIXShbQ0gyXTQpW0NIMl0y

>  <s_epik_cmdline>  (313) 
J2VwaWtfcHl0aG9uJywgJy1waHQnLCAnMi4wJywgJy1waCcsICc3LjAnLCAnLXRuJywgJzgnLCAnLW1hJywgJzIwMCcsICctaW1hZScsICc8aW5maWxlLm1hZT4nLCAnLW9tYWUnLCAnPG91dGZpbGUubWFlPic=

>  <r_epik_Ionization_Penalty>  (313) 
0.0214319

>  <r_epik_Ionization_Penalty_Charging>  (313) 
5.6965e-05

>  <r_epik_Ionization_Penalty_Neutral>  (313) 
0.021375

>  <r_epik_State_Penalty>  (313) 
0.0171868

>  <r_epik_Charging_Adjusted_Penalty>  (313) 
0.0172437

>  <i_epik_Tot_Q>  (313) 
1

>  <i_epik_Tot_abs_Q>  (313) 
1

>  <s_lp_Force_Field>  (313) 
OPLS3e

>  <r_lp_Energy>  (313) 
21.0968

>  <b_lp_Chiralities_Consistent>  (313) 
1

>  <s_lp_Variant>  (313) 
89:0-1

>  <s_i_glide_gridfile>  (313) 
pfpi4k_grid

>  <i_i_glide_lignum>  (313) 
41

>  <i_i_glide_rotatable_bonds>  (313) 
5

>  <r_i_docking_score>  (313) 
-3.11274

>  <r_i_glide_ligand_efficiency>  (313) 
-0.155637

>  <r_i_glide_ligand_efficiency_sa>  (313) 
-0.422464

>  <r_i_glide_ligand_efficiency_ln>  (313) 
-0.779017

>  <r_i_glide_gscore>  (313) 
-3.11274

>  <r_i_glide_lipo>  (313) 
-0.181274

>  <r_i_glide_hbond>  (313) 
-0.196885

>  <r_i_glide_metal>  (313) 
-0

>  <r_i_glide_rewards>  (313) 
-1.5585

>  <r_i_glide_evdw>  (313) 
-17.3782

>  <r_i_glide_ecoul>  (313) 
-6.41363

>  <r_i_glide_erotb>  (313) 
0.729087

>  <r_i_glide_esite>  (313) 
-0.0742177

>  <r_i_glide_emodel>  (313) 
-25.8729

>  <r_i_glide_energy>  (313) 
-23.7919

>  <r_i_glide_einternal>  (313) 
5.55715

>  <r_i_glide_intrahb_reward>  (313) 
-0

>  <i_i_glide_confnum>  (313) 
6

>  <i_i_glide_posenum>  (313) 
1

>  <r_i_glide_eff_state_penalty>  (313) 
0

>  <ligand_id>  (313) 
89

>  <original_smiles>  (313) 
c1cc(CCCNC23CC4CC(CC(C4)C2)C3)ccn1

>  <smiles>  (313) 
[H]c1nc([H])c([H])c(C([H])([H])C([H])([H])C([H])([H])[N+]([H])([H])C23C([H])([H])C4([H])C([H])([H])C([H])(C([H])([H])C([H])(C4([H])[H])C2([H])[H])C3([H])[H])c1[H]

$$$$
89:0:2
     RDKit          3D

 47 50  0  0  1  0  0  0  0  0999 V2000
    5.8435   -3.2713    0.1626 C   0  0  0  0  0  0  0  0  0  0  0  0
    5.5850   -2.0732    0.8521 C   0  0  0  0  0  0  0  0  0  0  0  0
    4.5511   -1.2341    0.3843 C   0  0  0  0  0  0  0  0  0  0  0  0
    4.2175    0.0583    1.1129 C   0  0  0  0  0  0  0  0  0  0  0  0
    2.7210    0.1972    1.4201 C   0  0  0  0  0  0  0  0  0  0  0  0
    2.3621    1.4793    2.1792 C   0  0  0  0  0  0  0  0  0  0  0  0
    0.9180    1.7695    2.0479 N   0  0  0  0  0  0  0  0  0  0  0  0
    0.1529    1.9476    3.3014 C   0  0  2  0  0  0  0  0  0  0  0  0
    0.3293    0.7454    4.2773 C   0  0  0  0  0  0  0  0  0  0  0  0
   -0.4958    0.9720    5.5515 C   0  0  1  0  0  0  0  0  0  0  0  0
   -0.0379    2.2797    6.2313 C   0  0  0  0  0  0  0  0  0  0  0  0
   -0.2772    3.4711    5.2806 C   0  0  2  0  0  0  0  0  0  0  0  0
   -1.7692    3.5585    4.9094 C   0  0  0  0  0  0  0  0  0  0  0  0
   -2.2000    2.2494    4.2210 C   0  0  2  0  0  0  0  0  0  0  0  0
   -1.9834    1.0616    5.1863 C   0  0  0  0  0  0  0  0  0  0  0  0
   -1.3575    2.0429    2.9420 C   0  0  0  0  0  0  0  0  0  0  0  0
    0.5598    3.2723    4.0006 C   0  0  0  0  0  0  0  0  0  0  0  0
    3.8373   -1.6413   -0.7648 C   0  0  0  0  0  0  0  0  0  0  0  0
    4.1731   -2.8605   -1.3787 C   0  0  0  0  0  0  0  0  0  0  0  0
    5.1622   -3.6612   -0.9327 N   0  0  0  0  0  0  0  0  0  0  0  0
    6.6204   -3.9408    0.5003 H   0  0  0  0  0  0  0  0  0  0  0  0
    6.1627   -1.8128    1.7295 H   0  0  0  0  0  0  0  0  0  0  0  0
    4.7846    0.1165    2.0413 H   0  0  0  0  0  0  0  0  0  0  0  0
    4.5393    0.8896    0.4927 H   0  0  0  0  0  0  0  0  0  0  0  0
    2.1740    0.1765    0.4829 H   0  0  0  0  0  0  0  0  0  0  0  0
    2.3722   -0.6719    1.9742 H   0  0  0  0  0  0  0  0  0  0  0  0
    2.7383    1.3999    3.1968 H   0  0  0  0  0  0  0  0  0  0  0  0
    2.8935    2.3375    1.7883 H   0  0  0  0  0  0  0  0  0  0  0  0
    0.7918    2.6221    1.5073 H   0  0  0  0  0  0  0  0  0  0  0  0
    0.0300   -0.1844    3.7888 H   0  0  0  0  0  0  0  0  0  0  0  0
    1.3535    0.6029    4.6132 H   0  0  0  0  0  0  0  0  0  0  0  0
   -0.3341    0.1328    6.2285 H   0  0  0  0  0  0  0  0  0  0  0  0
   -0.5721    2.4302    7.1716 H   0  0  0  0  0  0  0  0  0  0  0  0
    1.0208    2.2178    6.4853 H   0  0  0  0  0  0  0  0  0  0  0  0
    0.0277    4.3960    5.7724 H   0  0  0  0  0  0  0  0  0  0  0  0
   -2.3809    3.7314    5.7981 H   0  0  0  0  0  0  0  0  0  0  0  0
   -1.9424    4.4008    4.2382 H   0  0  0  0  0  0  0  0  0  0  0  0
   -3.2535    2.3173    3.9515 H   0  0  0  0  0  0  0  0  0  0  0  0
   -2.3126    0.1327    4.7171 H   0  0  0  0  0  0  0  0  0  0  0  0
   -2.5841    1.1907    6.0909 H   0  0  0  0  0  0  0  0  0  0  0  0
   -1.5438    2.8663    2.2477 H   0  0  0  0  0  0  0  0  0  0  0  0
   -1.6917    1.1374    2.4309 H   0  0  0  0  0  0  0  0  0  0  0  0
    1.6179    3.2711    4.2580 H   0  0  0  0  0  0  0  0  0  0  0  0
    0.4132    4.1222    3.3286 H   0  0  0  0  0  0  0  0  0  0  0  0
    3.0219   -1.0579   -1.1736 H   0  0  0  0  0  0  0  0  0  0  0  0
    3.6323   -3.2032   -2.2483 H   0  0  0  0  0  0  0  0  0  0  0  0
    0.4896    1.0310    1.5089 H   0  0  0  0  0  0  0  0  0  0  0  0
  1 20  2  0
  1  2  1  0
  1 21  1  0
  2  3  2  0
  2 22  1  0
  3  4  1  0
  3 18  1  0
  4  5  1  0
  4 23  1  0
  4 24  1  0
  5  6  1  0
  5 25  1  0
  5 26  1  0
  6  7  1  0
  6 27  1  0
  6 28  1  0
  8  7  1  6
  7 29  1  0
  7 47  1  0
  8 16  1  0
  8 17  1  0
  8  9  1  0
  9 10  1  0
  9 30  1  0
  9 31  1  0
 10 15  1  0
 10 11  1  0
 10 32  1  1
 11 12  1  0
 11 33  1  0
 11 34  1  0
 12 13  1  0
 12 17  1  0
 12 35  1  1
 13 14  1  0
 13 36  1  0
 13 37  1  0
 14 15  1  0
 14 16  1  0
 14 38  1  6
 15 39  1  0
 15 40  1  0
 16 41  1  0
 16 42  1  0
 17 43  1  0
 17 44  1  0
 18 19  2  0
 18 45  1  0
 19 20  1  0
 19 46  1  0
M  CHG  1   7   1
M  END
>  <i_m_ct_stereo_status>  (314) 
1

>  <s_m_source_file>  (314) 
/var/tmp/pbs.5076255.sched01/tmprcd7yfff/907v12ihtf.sdf

>  <i_m_source_file_index>  (314) 
41

>  <i_lp_mmshare_version>  (314) 
48012

>  <i_f3d_flags>  (314) 
0

>  <s_epik_input>  (314) 
W2NIXTFbY0hdbltjSF1bY0hdYzFbQ0gyXVtDSDJdW0NIMl1bTkhdQzIzW0NIMl1bQ0BIXTRbQ0gyXVtDQEBIXShbQ0gyXTMpW0NIMl1bQ0BIXShbQ0gyXTQpW0NIMl0y

>  <s_epik_cmdline>  (314) 
J2VwaWtfcHl0aG9uJywgJy1waHQnLCAnMi4wJywgJy1waCcsICc3LjAnLCAnLXRuJywgJzgnLCAnLW1hJywgJzIwMCcsICctaW1hZScsICc8aW5maWxlLm1hZT4nLCAnLW9tYWUnLCAnPG91dGZpbGUubWFlPic=

>  <r_epik_Ionization_Penalty>  (314) 
0.0214319

>  <r_epik_Ionization_Penalty_Charging>  (314) 
5.6965e-05

>  <r_epik_Ionization_Penalty_Neutral>  (314) 
0.021375

>  <r_epik_State_Penalty>  (314) 
0.0171868

>  <r_epik_Charging_Adjusted_Penalty>  (314) 
0.0172437

>  <i_epik_Tot_Q>  (314) 
1

>  <i_epik_Tot_abs_Q>  (314) 
1

>  <s_lp_Force_Field>  (314) 
OPLS3e

>  <r_lp_Energy>  (314) 
21.0968

>  <b_lp_Chiralities_Consistent>  (314) 
1

>  <s_lp_Variant>  (314) 
89:0-1

>  <s_i_glide_gridfile>  (314) 
pfpi4k_grid

>  <i_i_glide_lignum>  (314) 
41

>  <i_i_glide_rotatable_bonds>  (314) 
5

>  <r_i_docking_score>  (314) 
-2.96807

>  <r_i_glide_ligand_efficiency>  (314) 
-0.148404

>  <r_i_glide_ligand_efficiency_sa>  (314) 
-0.402829

>  <r_i_glide_ligand_efficiency_ln>  (314) 
-0.74281

>  <r_i_glide_gscore>  (314) 
-2.96807

>  <r_i_glide_lipo>  (314) 
-0.225932

>  <r_i_glide_hbond>  (314) 
-0.2

>  <r_i_glide_metal>  (314) 
-0

>  <r_i_glide_rewards>  (314) 
-1.5585

>  <r_i_glide_evdw>  (314) 
-18.3875

>  <r_i_glide_ecoul>  (314) 
-4.85159

>  <r_i_glide_erotb>  (314) 
0.729087

>  <r_i_glide_esite>  (314) 
-0.0656148

>  <r_i_glide_emodel>  (314) 
-27.4154

>  <r_i_glide_energy>  (314) 
-23.2391

>  <r_i_glide_einternal>  (314) 
4.25495

>  <r_i_glide_intrahb_reward>  (314) 
-0

>  <i_i_glide_confnum>  (314) 
6

>  <i_i_glide_posenum>  (314) 
8

>  <r_i_glide_eff_state_penalty>  (314) 
0

>  <ligand_id>  (314) 
89

>  <original_smiles>  (314) 
c1cc(CCCNC23CC4CC(CC(C4)C2)C3)ccn1

>  <smiles>  (314) 
[H]c1nc([H])c([H])c(C([H])([H])C([H])([H])C([H])([H])[N+]([H])([H])C23C([H])([H])C4([H])C([H])([H])C([H])(C([H])([H])C([H])(C4([H])[H])C2([H])[H])C3([H])[H])c1[H]

$$$$
90:0:0
     RDKit          3D

 73 78  0  0  1  0  0  0  0  0999 V2000
    7.0764   -3.3917   -1.5078 C   0  0  0  0  0  0  0  0  0  0  0  0
    5.7916   -2.6624   -1.1009 C   0  0  0  0  0  0  0  0  0  0  0  0
    6.1197   -1.9587    0.2392 C   0  0  0  0  0  0  0  0  0  0  0  0
    5.5749   -1.6449   -2.2180 C   0  0  0  0  0  0  0  0  0  0  0  0
    4.3566   -0.7763   -2.0318 C   0  0  1  0  0  0  0  0  0  0  0  0
    4.2075    0.1157   -3.1181 O   0  0  0  0  0  0  0  0  0  0  0  0
    3.1314   -1.6435   -2.0764 C   0  0  0  0  0  0  0  0  0  0  0  0
    3.1374   -2.8770   -1.1059 C   0  0  2  0  0  0  0  0  0  0  0  0
    2.0759   -3.7372   -1.8111 C   0  0  0  0  0  0  0  0  0  0  0  0
    2.6037   -2.6870    0.3704 C   0  0  2  0  0  0  0  0  0  0  0  0
    2.7746   -1.3096    1.0361 C   0  0  0  0  0  0  0  0  0  0  0  0
    2.9781   -1.1188    2.3572 C   0  0  0  0  0  0  0  0  0  0  0  0
    3.1449   -2.3132    3.2490 C   0  0  2  0  0  0  0  0  0  0  0  0
    2.3124   -3.4962    2.7530 C   0  0  1  0  0  0  0  0  0  0  0  0
    2.7817   -3.9148    1.3328 C   0  0  2  0  0  0  0  0  0  0  0  0
    4.1885   -4.5209    1.2744 C   0  0  0  0  0  0  0  0  0  0  0  0
    4.5862   -4.8322   -0.1705 C   0  0  0  0  0  0  0  0  0  0  0  0
    4.5339   -3.6050   -1.1171 C   0  0  2  0  0  0  0  0  0  0  0  0
    2.2611   -4.4434    3.9463 C   0  0  2  0  0  0  0  0  0  0  0  0
    1.0380   -4.3540    4.9296 C   0  0  2  0  0  0  0  0  0  0  0  0
    0.0253   -5.4957    4.8242 C   0  0  0  0  0  0  0  0  0  0  0  0
    0.3646   -2.9588    4.9571 C   0  0  1  0  0  0  0  0  0  0  0  0
   -0.6129   -2.9056    5.9965 O   0  0  0  0  0  0  0  0  0  0  0  0
    1.4333   -1.8020    5.0999 C   0  0  1  0  0  0  0  0  0  0  0  0
    1.3713   -1.2323    6.4054 O   0  0  0  0  0  0  0  0  0  0  0  0
    2.9142   -2.2807    4.7862 C   0  0  2  0  0  0  0  0  0  0  0  0
    3.9769   -1.3939    5.4763 C   0  0  0  0  0  0  0  0  0  0  0  0
    3.0732   -3.8117    5.0849 C   0  0  2  0  0  0  0  0  0  0  0  0
    4.5295   -4.2864    5.2143 C   0  0  0  0  0  0  0  0  0  0  0  0
    2.0999   -4.5205    6.0211 C   0  0  1  0  0  0  0  0  0  0  0  0
    1.8659   -3.9404    7.2979 O   0  0  0  0  0  0  0  0  0  0  0  0
    7.9415   -2.7305   -1.6058 H   0  0  0  0  0  0  0  0  0  0  0  0
    6.9089   -3.8103   -2.5067 H   0  0  0  0  0  0  0  0  0  0  0  0
    7.3424   -4.1674   -0.7845 H   0  0  0  0  0  0  0  0  0  0  0  0
    5.2356   -1.5036    0.6762 H   0  0  0  0  0  0  0  0  0  0  0  0
    6.8481   -1.1648    0.0835 H   0  0  0  0  0  0  0  0  0  0  0  0
    6.5478   -2.6458    0.9629 H   0  0  0  0  0  0  0  0  0  0  0  0
    6.4395   -1.0463   -2.3028 H   0  0  0  0  0  0  0  0  0  0  0  0
    5.4421   -2.1867   -3.1657 H   0  0  0  0  0  0  0  0  0  0  0  0
    4.4411   -0.2296   -1.1133 H   0  0  0  0  0  0  0  0  0  0  0  0
    3.6161    0.7713   -2.8664 H   0  0  0  0  0  0  0  0  0  0  0  0
    2.2922   -0.9688   -1.9371 H   0  0  0  0  0  0  0  0  0  0  0  0
    3.0844   -2.0095   -3.0978 H   0  0  0  0  0  0  0  0  0  0  0  0
    1.8868   -4.6505   -1.2450 H   0  0  0  0  0  0  0  0  0  0  0  0
    2.4059   -4.0070   -2.8203 H   0  0  0  0  0  0  0  0  0  0  0  0
    1.1215   -3.2321   -1.9429 H   0  0  0  0  0  0  0  0  0  0  0  0
    1.5317   -2.7002    0.2443 H   0  0  0  0  0  0  0  0  0  0  0  0
    2.6234   -0.4574    0.3919 H   0  0  0  0  0  0  0  0  0  0  0  0
    3.0640   -0.1332    2.7872 H   0  0  0  0  0  0  0  0  0  0  0  0
    4.2040   -2.5301    3.1287 H   0  0  0  0  0  0  0  0  0  0  0  0
    1.3013   -3.1299    2.5671 H   0  0  0  0  0  0  0  0  0  0  0  0
    2.1086   -4.7106    1.0161 H   0  0  0  0  0  0  0  0  0  0  0  0
    4.9216   -3.8566    1.7050 H   0  0  0  0  0  0  0  0  0  0  0  0
    4.2183   -5.4412    1.8621 H   0  0  0  0  0  0  0  0  0  0  0  0
    5.5699   -5.2932   -0.1771 H   0  0  0  0  0  0  0  0  0  0  0  0
    3.9134   -5.5998   -0.5484 H   0  0  0  0  0  0  0  0  0  0  0  0
    4.5946   -4.0754   -2.1030 H   0  0  0  0  0  0  0  0  0  0  0  0
    2.5521   -5.4846    3.7553 H   0  0  0  0  0  0  0  0  0  0  0  0
   -0.6404   -5.5386    5.6879 H   0  0  0  0  0  0  0  0  0  0  0  0
    0.5438   -6.4608    4.7758 H   0  0  0  0  0  0  0  0  0  0  0  0
   -0.5774   -5.4531    3.9287 H   0  0  0  0  0  0  0  0  0  0  0  0
   -0.1889   -2.7991    4.0338 H   0  0  0  0  0  0  0  0  0  0  0  0
   -0.1692   -3.1574    6.7708 H   0  0  0  0  0  0  0  0  0  0  0  0
    1.1610   -1.0127    4.4111 H   0  0  0  0  0  0  0  0  0  0  0  0
    1.6926   -1.8687    6.9966 H   0  0  0  0  0  0  0  0  0  0  0  0
    3.9692   -1.5317    6.5596 H   0  0  0  0  0  0  0  0  0  0  0  0
    3.7996   -0.3396    5.2668 H   0  0  0  0  0  0  0  0  0  0  0  0
    4.9895   -1.6250    5.1313 H   0  0  0  0  0  0  0  0  0  0  0  0
    5.0097   -3.9084    6.1151 H   0  0  0  0  0  0  0  0  0  0  0  0
    5.1449   -4.0222    4.3589 H   0  0  0  0  0  0  0  0  0  0  0  0
    4.5633   -5.3772    5.2803 H   0  0  0  0  0  0  0  0  0  0  0  0
    2.3621   -5.5695    6.1562 H   0  0  0  0  0  0  0  0  0  0  0  0
    2.5871   -4.2020    7.8410 H   0  0  0  0  0  0  0  0  0  0  0  0
  1  2  1  0
  1 32  1  0
  1 33  1  0
  1 34  1  0
  2 18  1  0
  2  3  1  0
  2  4  1  0
  3 35  1  0
  3 36  1  0
  3 37  1  0
  4  5  1  0
  4 38  1  0
  4 39  1  0
  5  6  1  0
  5  7  1  0
  5 40  1  1
  6 41  1  0
  7  8  1  0
  7 42  1  0
  7 43  1  0
  8 18  1  0
  8  9  1  6
  8 10  1  0
  9 44  1  0
  9 45  1  0
  9 46  1  0
 10 15  1  0
 10 11  1  0
 10 47  1  6
 11 12  2  0
 11 48  1  0
 12 13  1  0
 12 49  1  0
 13 26  1  0
 13 14  1  0
 13 50  1  1
 14 15  1  0
 14 19  1  0
 14 51  1  6
 15 16  1  0
 15 52  1  6
 16 17  1  0
 16 53  1  0
 16 54  1  0
 17 18  1  0
 17 55  1  0
 17 56  1  0
 18 57  1  6
 19 28  1  0
 19 20  1  0
 19 58  1  6
 20 30  1  0
 20 21  1  6
 20 22  1  0
 21 59  1  0
 21 60  1  0
 21 61  1  0
 22 23  1  0
 22 24  1  0
 22 62  1  6
 23 63  1  0
 24 25  1  0
 24 26  1  0
 24 64  1  6
 25 65  1  0
 26 27  1  1
 26 28  1  0
 27 66  1  0
 27 67  1  0
 27 68  1  0
 28 29  1  1
 28 30  1  0
 29 69  1  0
 29 70  1  0
 29 71  1  0
 30 31  1  0
 30 72  1  1
 31 73  1  0
M  END
>  <i_m_ct_stereo_status>  (315) 
1

>  <s_m_source_file>  (315) 
/var/tmp/pbs.5076255.sched01/tmprcd7yfff/907v12ihtf.sdf

>  <i_m_source_file_index>  (315) 
43

>  <i_lp_mmshare_version>  (315) 
48012

>  <i_f3d_flags>  (315) 
0

>  <s_epik_input>  (315) 
W09IXVtDQEBIXShbQ0gyXTEpW0NIMl1DKFtDSDNdKShbQ0gzXSlbQ0BIXTJbQ0gyXVtDSDJdW0NASF0oW0NAQEhdM1tDQEBdMTJbQ0gzXSlbQ0BASF00W0NAQEhdKFtDSF09W0NIXTMpW0NAXTUoW0NIM10pW0NAXTYoW0NIM10pW0NASF00W0NAQF0oW0NIM10pKFtDQEBIXTZbT0hdKVtDQEBIXShbT0hdKVtDQEhdNVtPSF0=

>  <s_epik_cmdline>  (315) 
J2VwaWtfcHl0aG9uJywgJy1waHQnLCAnMi4wJywgJy1waCcsICc3LjAnLCAnLXRuJywgJzgnLCAnLW1hJywgJzIwMCcsICctaW1hZScsICc8aW5maWxlLm1hZT4nLCAnLW9tYWUnLCAnPG91dGZpbGUubWFlPic=

>  <r_lp_tautomer_probability>  (315) 
1

>  <r_epik_Ionization_Penalty>  (315) 
3.29818e-06

>  <r_epik_Ionization_Penalty_Charging>  (315) 
0

>  <r_epik_Ionization_Penalty_Neutral>  (315) 
3.29818e-06

>  <r_epik_State_Penalty>  (315) 
-0

>  <r_epik_Charging_Adjusted_Penalty>  (315) 
0

>  <i_epik_Tot_Q>  (315) 
0

>  <i_epik_Tot_abs_Q>  (315) 
0

>  <s_lp_Force_Field>  (315) 
OPLS3e

>  <r_lp_Energy>  (315) 
99.9086

>  <b_lp_Chiralities_Consistent>  (315) 
1

>  <s_lp_Variant>  (315) 
90:0-1

>  <s_i_glide_gridfile>  (315) 
pfpi4k_grid

>  <i_i_glide_lignum>  (315) 
43

>  <i_i_glide_rotatable_bonds>  (315) 
4

>  <r_i_docking_score>  (315) 
-3.19021

>  <r_i_glide_ligand_efficiency>  (315) 
-0.10291

>  <r_i_glide_ligand_efficiency_sa>  (315) 
-0.323279

>  <r_i_glide_ligand_efficiency_ln>  (315) 
-0.71949

>  <r_i_glide_gscore>  (315) 
-3.19021

>  <r_i_glide_lipo>  (315) 
-0.276252

>  <r_i_glide_hbond>  (315) 
-0.193014

>  <r_i_glide_metal>  (315) 
-0

>  <r_i_glide_rewards>  (315) 
-1.47305

>  <r_i_glide_evdw>  (315) 
-12.0878

>  <r_i_glide_ecoul>  (315) 
-4.29005

>  <r_i_glide_erotb>  (315) 
0

>  <r_i_glide_esite>  (315) 
0

>  <r_i_glide_emodel>  (315) 
-28.0708

>  <r_i_glide_energy>  (315) 
-16.3779

>  <r_i_glide_einternal>  (315) 
1.62406

>  <r_i_glide_intrahb_reward>  (315) 
-1

>  <i_i_glide_confnum>  (315) 
1

>  <i_i_glide_posenum>  (315) 
1

>  <r_i_glide_eff_state_penalty>  (315) 
0

>  <ligand_id>  (315) 
90

>  <original_smiles>  (315) 
CC1(C)CC(O)CC2(C)C3C=CC4C(C3CCC12)C1C2(C)C(O)C(O)C4(C)C1(C)C2O

>  <smiles>  (315) 
[H]OC1([H])C([H])([H])C(C([H])([H])[H])(C([H])([H])[H])C2([H])C([H])([H])C([H])([H])C3([H])C([H])(C([H])=C([H])C4([H])C3([H])C3([H])C5(C([H])([H])[H])C([H])(O[H])C([H])(O[H])C4(C([H])([H])[H])C3(C([H])([H])[H])C5([H])O[H])C2(C([H])([H])[H])C1([H])[H]

$$$$
90:0:1
     RDKit          3D

 73 78  0  0  1  0  0  0  0  0999 V2000
    7.4684   -2.6556    0.2830 C   0  0  0  0  0  0  0  0  0  0  0  0
    5.9354   -2.4781    0.3233 C   0  0  0  0  0  0  0  0  0  0  0  0
    5.6353   -1.3064    1.2889 C   0  0  0  0  0  0  0  0  0  0  0  0
    5.4927   -2.0756   -1.0976 C   0  0  0  0  0  0  0  0  0  0  0  0
    3.9793   -1.9058   -1.1975 C   0  0  1  0  0  0  0  0  0  0  0  0
    3.6692   -1.4984   -2.5128 O   0  0  0  0  0  0  0  0  0  0  0  0
    3.2672   -3.2264   -0.8853 C   0  0  0  0  0  0  0  0  0  0  0  0
    3.6816   -3.9537    0.4397 C   0  0  2  0  0  0  0  0  0  0  0  0
    3.3800   -5.4516    0.1358 C   0  0  0  0  0  0  0  0  0  0  0  0
    2.8026   -3.5825    1.7028 C   0  0  2  0  0  0  0  0  0  0  0  0
    2.2205   -2.1509    1.7833 C   0  0  0  0  0  0  0  0  0  0  0  0
    2.0866   -1.4489    2.9274 C   0  0  0  0  0  0  0  0  0  0  0  0
    2.6086   -2.0145    4.2267 C   0  0  2  0  0  0  0  0  0  0  0  0
    2.5016   -3.5400    4.2139 C   0  0  1  0  0  0  0  0  0  0  0  0
    3.3506   -4.1371    3.0724 C   0  0  2  0  0  0  0  0  0  0  0  0
    4.8681   -3.9500    3.2385 C   0  0  0  0  0  0  0  0  0  0  0  0
    5.6411   -4.4860    2.0350 C   0  0  0  0  0  0  0  0  0  0  0  0
    5.2342   -3.8448    0.6849 C   0  0  2  0  0  0  0  0  0  0  0  0
    2.6698   -3.9225    5.6987 C   0  0  2  0  0  0  0  0  0  0  0  0
    1.3803   -4.1041    6.5721 C   0  0  2  0  0  0  0  0  0  0  0  0
    1.0094   -5.5548    6.8814 C   0  0  0  0  0  0  0  0  0  0  0  0
    0.1538   -3.2956    6.0575 C   0  0  1  0  0  0  0  0  0  0  0  0
   -0.9810   -3.4078    6.9102 O   0  0  0  0  0  0  0  0  0  0  0  0
    0.5398   -1.8034    5.7381 C   0  0  1  0  0  0  0  0  0  0  0  0
   -0.0487   -0.9139    6.6809 O   0  0  0  0  0  0  0  0  0  0  0  0
    2.1060   -1.5754    5.6290 C   0  0  2  0  0  0  0  0  0  0  0  0
    2.5088   -0.1062    5.9198 C   0  0  0  0  0  0  0  0  0  0  0  0
    2.8839   -2.6292    6.5012 C   0  0  2  0  0  0  0  0  0  0  0  0
    4.3463   -2.2564    6.7972 C   0  0  0  0  0  0  0  0  0  0  0  0
    2.1853   -3.3710    7.6489 C   0  0  1  0  0  0  0  0  0  0  0  0
    1.5022   -2.6240    8.6331 O   0  0  0  0  0  0  0  0  0  0  0  0
    7.9626   -1.7589   -0.0963 H   0  0  0  0  0  0  0  0  0  0  0  0
    7.7644   -3.4951   -0.3495 H   0  0  0  0  0  0  0  0  0  0  0  0
    7.8622   -2.8347    1.2648 H   0  0  0  0  0  0  0  0  0  0  0  0
    4.5748   -1.2294    1.5191 H   0  0  0  0  0  0  0  0  0  0  0  0
    5.9377   -0.3519    0.8455 H   0  0  0  0  0  0  0  0  0  0  0  0
    6.1797   -1.4016    2.2303 H   0  0  0  0  0  0  0  0  0  0  0  0
    5.9849   -1.1551   -1.4119 H   0  0  0  0  0  0  0  0  0  0  0  0
    5.7991   -2.8419   -1.8098 H   0  0  0  0  0  0  0  0  0  0  0  0
    3.6305   -1.1247   -0.5325 H   0  0  0  0  0  0  0  0  0  0  0  0
    2.7503   -1.2622   -2.5321 H   0  0  0  0  0  0  0  0  0  0  0  0
    2.1914   -3.0728   -0.9186 H   0  0  0  0  0  0  0  0  0  0  0  0
    3.4671   -3.8736   -1.7390 H   0  0  0  0  0  0  0  0  0  0  0  0
    3.5567   -6.1033    0.9910 H   0  0  0  0  0  0  0  0  0  0  0  0
    4.0094   -5.8218   -0.6789 H   0  0  0  0  0  0  0  0  0  0  0  0
    2.3423   -5.5953   -0.1729 H   0  0  0  0  0  0  0  0  0  0  0  0
    1.8701   -4.1258    1.5578 H   0  0  0  0  0  0  0  0  0  0  0  0
    1.8403   -1.7206    0.8788 H   0  0  0  0  0  0  0  0  0  0  0  0
    1.6591   -0.4552    2.9373 H   0  0  0  0  0  0  0  0  0  0  0  0
    3.6485   -1.7098    4.1868 H   0  0  0  0  0  0  0  0  0  0  0  0
    1.4898   -3.8080    3.9164 H   0  0  0  0  0  0  0  0  0  0  0  0
    3.1803   -5.2135    3.0880 H   0  0  0  0  0  0  0  0  0  0  0  0
    5.1348   -2.9116    3.3840 H   0  0  0  0  0  0  0  0  0  0  0  0
    5.2049   -4.4684    4.1366 H   0  0  0  0  0  0  0  0  0  0  0  0
    6.7070   -4.3890    2.2082 H   0  0  0  0  0  0  0  0  0  0  0  0
    5.4759   -5.5624    1.9807 H   0  0  0  0  0  0  0  0  0  0  0  0
    5.6803   -4.5170   -0.0526 H   0  0  0  0  0  0  0  0  0  0  0  0
    3.4269   -4.6767    5.9126 H   0  0  0  0  0  0  0  0  0  0  0  0
    0.2993   -5.6297    7.7036 H   0  0  0  0  0  0  0  0  0  0  0  0
    1.8968   -6.1102    7.1846 H   0  0  0  0  0  0  0  0  0  0  0  0
    0.5956   -6.0582    6.0095 H   0  0  0  0  0  0  0  0  0  0  0  0
   -0.1937   -3.7512    5.1313 H   0  0  0  0  0  0  0  0  0  0  0  0
   -1.1098   -4.3264    7.0895 H   0  0  0  0  0  0  0  0  0  0  0  0
    0.0837   -1.5384    4.7857 H   0  0  0  0  0  0  0  0  0  0  0  0
    0.2699   -0.0467    6.4831 H   0  0  0  0  0  0  0  0  0  0  0  0
    2.3615    0.1415    6.9740 H   0  0  0  0  0  0  0  0  0  0  0  0
    1.9241    0.5900    5.3155 H   0  0  0  0  0  0  0  0  0  0  0  0
    3.5620    0.0792    5.6911 H   0  0  0  0  0  0  0  0  0  0  0  0
    4.4233   -1.4125    7.4783 H   0  0  0  0  0  0  0  0  0  0  0  0
    4.9201   -2.0317    5.9034 H   0  0  0  0  0  0  0  0  0  0  0  0
    4.8510   -3.0914    7.2779 H   0  0  0  0  0  0  0  0  0  0  0  0
    2.8715   -4.0503    8.1522 H   0  0  0  0  0  0  0  0  0  0  0  0
    2.1577   -2.2549    9.2047 H   0  0  0  0  0  0  0  0  0  0  0  0
  1  2  1  0
  1 32  1  0
  1 33  1  0
  1 34  1  0
  2 18  1  0
  2  3  1  0
  2  4  1  0
  3 35  1  0
  3 36  1  0
  3 37  1  0
  4  5  1  0
  4 38  1  0
  4 39  1  0
  5  6  1  0
  5  7  1  0
  5 40  1  1
  6 41  1  0
  7  8  1  0
  7 42  1  0
  7 43  1  0
  8 18  1  0
  8  9  1  6
  8 10  1  0
  9 44  1  0
  9 45  1  0
  9 46  1  0
 10 15  1  0
 10 11  1  0
 10 47  1  6
 11 12  2  0
 11 48  1  0
 12 13  1  0
 12 49  1  0
 13 26  1  0
 13 14  1  0
 13 50  1  1
 14 15  1  0
 14 19  1  0
 14 51  1  6
 15 16  1  0
 15 52  1  6
 16 17  1  0
 16 53  1  0
 16 54  1  0
 17 18  1  0
 17 55  1  0
 17 56  1  0
 18 57  1  6
 19 28  1  0
 19 20  1  0
 19 58  1  6
 20 30  1  0
 20 21  1  1
 20 22  1  0
 21 59  1  0
 21 60  1  0
 21 61  1  0
 22 23  1  0
 22 24  1  0
 22 62  1  6
 23 63  1  0
 24 25  1  0
 24 26  1  0
 24 64  1  6
 25 65  1  0
 26 27  1  1
 26 28  1  0
 27 66  1  0
 27 67  1  0
 27 68  1  0
 28 29  1  1
 28 30  1  0
 29 69  1  0
 29 70  1  0
 29 71  1  0
 30 31  1  0
 30 72  1  1
 31 73  1  0
M  END
>  <i_m_ct_stereo_status>  (316) 
1

>  <s_m_source_file>  (316) 
/var/tmp/pbs.5076255.sched01/tmprcd7yfff/907v12ihtf.sdf

>  <i_m_source_file_index>  (316) 
43

>  <i_lp_mmshare_version>  (316) 
48012

>  <i_f3d_flags>  (316) 
0

>  <s_epik_input>  (316) 
W09IXVtDQEBIXShbQ0gyXTEpW0NIMl1DKFtDSDNdKShbQ0gzXSlbQ0BIXTJbQ0gyXVtDSDJdW0NASF0oW0NAQEhdM1tDQEBdMTJbQ0gzXSlbQ0BASF00W0NAQEhdKFtDSF09W0NIXTMpW0NAXTUoW0NIM10pW0NAXTYoW0NIM10pW0NASF00W0NAQF0oW0NIM10pKFtDQEBIXTZbT0hdKVtDQEBIXShbT0hdKVtDQEhdNVtPSF0=

>  <s_epik_cmdline>  (316) 
J2VwaWtfcHl0aG9uJywgJy1waHQnLCAnMi4wJywgJy1waCcsICc3LjAnLCAnLXRuJywgJzgnLCAnLW1hJywgJzIwMCcsICctaW1hZScsICc8aW5maWxlLm1hZT4nLCAnLW9tYWUnLCAnPG91dGZpbGUubWFlPic=

>  <r_lp_tautomer_probability>  (316) 
1

>  <r_epik_Ionization_Penalty>  (316) 
3.29818e-06

>  <r_epik_Ionization_Penalty_Charging>  (316) 
0

>  <r_epik_Ionization_Penalty_Neutral>  (316) 
3.29818e-06

>  <r_epik_State_Penalty>  (316) 
-0

>  <r_epik_Charging_Adjusted_Penalty>  (316) 
0

>  <i_epik_Tot_Q>  (316) 
0

>  <i_epik_Tot_abs_Q>  (316) 
0

>  <s_lp_Force_Field>  (316) 
OPLS3e

>  <r_lp_Energy>  (316) 
99.9086

>  <b_lp_Chiralities_Consistent>  (316) 
1

>  <s_lp_Variant>  (316) 
90:0-1

>  <s_i_glide_gridfile>  (316) 
pfpi4k_grid

>  <i_i_glide_lignum>  (316) 
43

>  <i_i_glide_rotatable_bonds>  (316) 
4

>  <r_i_docking_score>  (316) 
-2.8164

>  <r_i_glide_ligand_efficiency>  (316) 
-0.0908515

>  <r_i_glide_ligand_efficiency_sa>  (316) 
-0.285399

>  <r_i_glide_ligand_efficiency_ln>  (316) 
-0.635184

>  <r_i_glide_gscore>  (316) 
-2.8164

>  <r_i_glide_lipo>  (316) 
-0.49217

>  <r_i_glide_hbond>  (316) 
0

>  <r_i_glide_metal>  (316) 
-0

>  <r_i_glide_rewards>  (316) 
-0.473046

>  <r_i_glide_evdw>  (316) 
-19.1738

>  <r_i_glide_ecoul>  (316) 
-5.94995

>  <r_i_glide_erotb>  (316) 
0

>  <r_i_glide_esite>  (316) 
0

>  <r_i_glide_emodel>  (316) 
-28.6454

>  <r_i_glide_energy>  (316) 
-25.1237

>  <r_i_glide_einternal>  (316) 
2.25566

>  <r_i_glide_intrahb_reward>  (316) 
-0

>  <i_i_glide_confnum>  (316) 
1

>  <i_i_glide_posenum>  (316) 
36

>  <r_i_glide_eff_state_penalty>  (316) 
0

>  <ligand_id>  (316) 
90

>  <original_smiles>  (316) 
CC1(C)CC(O)CC2(C)C3C=CC4C(C3CCC12)C1C2(C)C(O)C(O)C4(C)C1(C)C2O

>  <smiles>  (316) 
[H]OC1([H])C([H])([H])C(C([H])([H])[H])(C([H])([H])[H])C2([H])C([H])([H])C([H])([H])C3([H])C([H])(C([H])=C([H])C4([H])C3([H])C3([H])C5(C([H])([H])[H])C([H])(O[H])C([H])(O[H])C4(C([H])([H])[H])C3(C([H])([H])[H])C5([H])O[H])C2(C([H])([H])[H])C1([H])[H]

$$$$
90:0:2
     RDKit          3D

 73 78  0  0  1  0  0  0  0  0999 V2000
    7.7083   -3.7409    0.7445 C   0  0  0  0  0  0  0  0  0  0  0  0
    6.3110   -3.1191    0.5241 C   0  0  0  0  0  0  0  0  0  0  0  0
    6.2746   -1.7514    1.2500 C   0  0  0  0  0  0  0  0  0  0  0  0
    6.1789   -2.8698   -0.9921 C   0  0  0  0  0  0  0  0  0  0  0  0
    4.8179   -2.2972   -1.3627 C   0  0  1  0  0  0  0  0  0  0  0  0
    4.8000   -2.0707   -2.7542 O   0  0  0  0  0  0  0  0  0  0  0  0
    3.7028   -3.2811   -0.9898 C   0  0  0  0  0  0  0  0  0  0  0  0
    3.7113   -3.8359    0.4745 C   0  0  2  0  0  0  0  0  0  0  0  0
    2.9909   -5.2097    0.3403 C   0  0  0  0  0  0  0  0  0  0  0  0
    2.8589   -2.9922    1.5040 C   0  0  2  0  0  0  0  0  0  0  0  0
    2.7604   -1.4695    1.2820 C   0  0  0  0  0  0  0  0  0  0  0  0
    2.7070   -0.5594    2.2757 C   0  0  0  0  0  0  0  0  0  0  0  0
    2.8628   -0.9967    3.7101 C   0  0  2  0  0  0  0  0  0  0  0  0
    2.2867   -2.4044    3.8997 C   0  0  1  0  0  0  0  0  0  0  0  0
    3.0350   -3.4189    3.0105 C   0  0  2  0  0  0  0  0  0  0  0  0
    4.5064   -3.6523    3.4024 C   0  0  0  0  0  0  0  0  0  0  0  0
    5.2106   -4.5977    2.4349 C   0  0  0  0  0  0  0  0  0  0  0  0
    5.1815   -4.1331    0.9573 C   0  0  2  0  0  0  0  0  0  0  0  0
    2.1538   -2.5366    5.4324 C   0  0  2  0  0  0  0  0  0  0  0  0
    0.7771   -2.1799    6.0913 C   0  0  2  0  0  0  0  0  0  0  0  0
   -0.0616   -3.3762    6.5309 C   0  0  0  0  0  0  0  0  0  0  0  0
   -0.0664   -1.1664    5.2719 C   0  0  1  0  0  0  0  0  0  0  0  0
   -1.2644   -0.7837    5.9357 O   0  0  0  0  0  0  0  0  0  0  0  0
    0.7965    0.0619    4.8061 C   0  0  1  0  0  0  0  0  0  0  0  0
    0.3845    1.2377    5.4860 O   0  0  0  0  0  0  0  0  0  0  0  0
    2.3586   -0.1855    4.9347 C   0  0  2  0  0  0  0  0  0  0  0  0
    3.1622    1.1336    5.0791 C   0  0  0  0  0  0  0  0  0  0  0  0
    2.6602   -1.2340    6.0667 C   0  0  2  0  0  0  0  0  0  0  0  0
    4.1188   -1.2488    6.5478 C   0  0  0  0  0  0  0  0  0  0  0  0
    1.6384   -1.5249    7.1762 C   0  0  1  0  0  0  0  0  0  0  0  0
    1.1055   -0.4538    7.9250 O   0  0  0  0  0  0  0  0  0  0  0  0
    8.4926   -3.0992    0.3345 H   0  0  0  0  0  0  0  0  0  0  0  0
    7.7957   -4.7232    0.2723 H   0  0  0  0  0  0  0  0  0  0  0  0
    7.9392   -3.8679    1.7978 H   0  0  0  0  0  0  0  0  0  0  0  0
    5.2768   -1.3272    1.2783 H   0  0  0  0  0  0  0  0  0  0  0  0
    6.9171   -1.0236    0.7437 H   0  0  0  0  0  0  0  0  0  0  0  0
    6.6159   -1.8204    2.2825 H   0  0  0  0  0  0  0  0  0  0  0  0
    6.9782   -2.2177   -1.3479 H   0  0  0  0  0  0  0  0  0  0  0  0
    6.3074   -3.8118   -1.5283 H   0  0  0  0  0  0  0  0  0  0  0  0
    4.6518   -1.3389   -0.8793 H   0  0  0  0  0  0  0  0  0  0  0  0
    3.9530   -1.7182   -2.9861 H   0  0  0  0  0  0  0  0  0  0  0  0
    2.7395   -2.8362   -1.2189 H   0  0  0  0  0  0  0  0  0  0  0  0
    3.7892   -4.1136   -1.6895 H   0  0  0  0  0  0  0  0  0  0  0  0
    2.8492   -5.7052    1.3000 H   0  0  0  0  0  0  0  0  0  0  0  0
    3.5506   -5.8925   -0.3034 H   0  0  0  0  0  0  0  0  0  0  0  0
    2.0055   -5.0985   -0.1158 H   0  0  0  0  0  0  0  0  0  0  0  0
    1.8218   -3.2453    1.2827 H   0  0  0  0  0  0  0  0  0  0  0  0
    2.6379   -1.1323    0.2669 H   0  0  0  0  0  0  0  0  0  0  0  0
    2.6071    0.5015    2.0774 H   0  0  0  0  0  0  0  0  0  0  0  0
    3.9427   -1.0206    3.8101 H   0  0  0  0  0  0  0  0  0  0  0  0
    1.2836   -2.4193    3.4765 H   0  0  0  0  0  0  0  0  0  0  0  0
    2.5351   -4.3801    3.1492 H   0  0  0  0  0  0  0  0  0  0  0  0
    5.0607   -2.7237    3.4439 H   0  0  0  0  0  0  0  0  0  0  0  0
    4.5568   -4.0702    4.4091 H   0  0  0  0  0  0  0  0  0  0  0  0
    6.2252   -4.7742    2.7730 H   0  0  0  0  0  0  0  0  0  0  0  0
    4.7268   -5.5721    2.5049 H   0  0  0  0  0  0  0  0  0  0  0  0
    5.4791   -5.0301    0.4073 H   0  0  0  0  0  0  0  0  0  0  0  0
    2.6057   -3.4222    5.8773 H   0  0  0  0  0  0  0  0  0  0  0  0
   -0.8558   -3.0844    7.2176 H   0  0  0  0  0  0  0  0  0  0  0  0
    0.5620   -4.0963    7.0586 H   0  0  0  0  0  0  0  0  0  0  0  0
   -0.5065   -3.8872    5.6804 H   0  0  0  0  0  0  0  0  0  0  0  0
   -0.4412   -1.6614    4.3778 H   0  0  0  0  0  0  0  0  0  0  0  0
   -1.6278   -0.0646    5.4388 H   0  0  0  0  0  0  0  0  0  0  0  0
    0.5658    0.2564    3.7583 H   0  0  0  0  0  0  0  0  0  0  0  0
    0.8619    1.9614    5.1133 H   0  0  0  0  0  0  0  0  0  0  0  0
    2.9759    1.6068    6.0447 H   0  0  0  0  0  0  0  0  0  0  0  0
    2.9032    1.8432    4.2917 H   0  0  0  0  0  0  0  0  0  0  0  0
    4.2394    0.9655    5.0096 H   0  0  0  0  0  0  0  0  0  0  0  0
    4.3808   -0.3516    7.1063 H   0  0  0  0  0  0  0  0  0  0  0  0
    4.8369   -1.3689    5.7407 H   0  0  0  0  0  0  0  0  0  0  0  0
    4.2807   -2.0884    7.2185 H   0  0  0  0  0  0  0  0  0  0  0  0
    2.0232   -2.2701    7.8728 H   0  0  0  0  0  0  0  0  0  0  0  0
    1.8260   -0.0650    8.3954 H   0  0  0  0  0  0  0  0  0  0  0  0
  1  2  1  0
  1 32  1  0
  1 33  1  0
  1 34  1  0
  2 18  1  0
  2  3  1  0
  2  4  1  0
  3 35  1  0
  3 36  1  0
  3 37  1  0
  4  5  1  0
  4 38  1  0
  4 39  1  0
  5  6  1  0
  5  7  1  0
  5 40  1  1
  6 41  1  0
  7  8  1  0
  7 42  1  0
  7 43  1  0
  8 18  1  0
  8  9  1  6
  8 10  1  0
  9 44  1  0
  9 45  1  0
  9 46  1  0
 10 15  1  0
 10 11  1  0
 10 47  1  6
 11 12  2  0
 11 48  1  0
 12 13  1  0
 12 49  1  0
 13 26  1  0
 13 14  1  0
 13 50  1  1
 14 15  1  0
 14 19  1  0
 14 51  1  6
 15 16  1  0
 15 52  1  6
 16 17  1  0
 16 53  1  0
 16 54  1  0
 17 18  1  0
 17 55  1  0
 17 56  1  0
 18 57  1  6
 19 28  1  0
 19 20  1  0
 19 58  1  1
 20 30  1  0
 20 21  1  1
 20 22  1  0
 21 59  1  0
 21 60  1  0
 21 61  1  0
 22 23  1  0
 22 24  1  0
 22 62  1  6
 23 63  1  0
 24 25  1  0
 24 26  1  0
 24 64  1  6
 25 65  1  0
 26 27  1  1
 26 28  1  0
 27 66  1  0
 27 67  1  0
 27 68  1  0
 28 29  1  1
 28 30  1  0
 29 69  1  0
 29 70  1  0
 29 71  1  0
 30 31  1  0
 30 72  1  1
 31 73  1  0
M  END
>  <i_m_ct_stereo_status>  (317) 
1

>  <s_m_source_file>  (317) 
/var/tmp/pbs.5076255.sched01/tmprcd7yfff/907v12ihtf.sdf

>  <i_m_source_file_index>  (317) 
43

>  <i_lp_mmshare_version>  (317) 
48012

>  <i_f3d_flags>  (317) 
0

>  <s_epik_input>  (317) 
W09IXVtDQEBIXShbQ0gyXTEpW0NIMl1DKFtDSDNdKShbQ0gzXSlbQ0BIXTJbQ0gyXVtDSDJdW0NASF0oW0NAQEhdM1tDQEBdMTJbQ0gzXSlbQ0BASF00W0NAQEhdKFtDSF09W0NIXTMpW0NAXTUoW0NIM10pW0NAXTYoW0NIM10pW0NASF00W0NAQF0oW0NIM10pKFtDQEBIXTZbT0hdKVtDQEBIXShbT0hdKVtDQEhdNVtPSF0=

>  <s_epik_cmdline>  (317) 
J2VwaWtfcHl0aG9uJywgJy1waHQnLCAnMi4wJywgJy1waCcsICc3LjAnLCAnLXRuJywgJzgnLCAnLW1hJywgJzIwMCcsICctaW1hZScsICc8aW5maWxlLm1hZT4nLCAnLW9tYWUnLCAnPG91dGZpbGUubWFlPic=

>  <r_lp_tautomer_probability>  (317) 
1

>  <r_epik_Ionization_Penalty>  (317) 
3.29818e-06

>  <r_epik_Ionization_Penalty_Charging>  (317) 
0

>  <r_epik_Ionization_Penalty_Neutral>  (317) 
3.29818e-06

>  <r_epik_State_Penalty>  (317) 
-0

>  <r_epik_Charging_Adjusted_Penalty>  (317) 
0

>  <i_epik_Tot_Q>  (317) 
0

>  <i_epik_Tot_abs_Q>  (317) 
0

>  <s_lp_Force_Field>  (317) 
OPLS3e

>  <r_lp_Energy>  (317) 
99.9086

>  <b_lp_Chiralities_Consistent>  (317) 
1

>  <s_lp_Variant>  (317) 
90:0-1

>  <s_i_glide_gridfile>  (317) 
pfpi4k_grid

>  <i_i_glide_lignum>  (317) 
43

>  <i_i_glide_rotatable_bonds>  (317) 
4

>  <r_i_docking_score>  (317) 
-2.78353

>  <r_i_glide_ligand_efficiency>  (317) 
-0.0897914

>  <r_i_glide_ligand_efficiency_sa>  (317) 
-0.282069

>  <r_i_glide_ligand_efficiency_ln>  (317) 
-0.627772

>  <r_i_glide_gscore>  (317) 
-2.78353

>  <r_i_glide_lipo>  (317) 
-0.479218

>  <r_i_glide_hbond>  (317) 
0

>  <r_i_glide_metal>  (317) 
-0

>  <r_i_glide_rewards>  (317) 
-0.473046

>  <r_i_glide_evdw>  (317) 
-19.422

>  <r_i_glide_ecoul>  (317) 
-5.73447

>  <r_i_glide_erotb>  (317) 
0

>  <r_i_glide_esite>  (317) 
0

>  <r_i_glide_emodel>  (317) 
-28.6581

>  <r_i_glide_energy>  (317) 
-25.1564

>  <r_i_glide_einternal>  (317) 
2.22764

>  <r_i_glide_intrahb_reward>  (317) 
-0

>  <i_i_glide_confnum>  (317) 
2

>  <i_i_glide_posenum>  (317) 
33

>  <r_i_glide_eff_state_penalty>  (317) 
0

>  <ligand_id>  (317) 
90

>  <original_smiles>  (317) 
CC1(C)CC(O)CC2(C)C3C=CC4C(C3CCC12)C1C2(C)C(O)C(O)C4(C)C1(C)C2O

>  <smiles>  (317) 
[H]OC1([H])C([H])([H])C(C([H])([H])[H])(C([H])([H])[H])C2([H])C([H])([H])C([H])([H])C3([H])C([H])(C([H])=C([H])C4([H])C3([H])C3([H])C5(C([H])([H])[H])C([H])(O[H])C([H])(O[H])C4(C([H])([H])[H])C3(C([H])([H])[H])C5([H])O[H])C2(C([H])([H])[H])C1([H])[H]

$$$$
91:0:0
     RDKit          3D

 51 55  0  0  1  0  0  0  0  0999 V2000
    8.2993   -3.4606   -0.5709 C   0  0  0  0  0  0  0  0  0  0  0  0
    7.0875   -2.7698   -1.0797 N   0  0  1  0  0  0  0  0  0  0  0  0
    6.3864   -3.4922   -2.1605 C   0  0  0  0  0  0  0  0  0  0  0  0
    5.2606   -4.4197   -1.6158 C   0  0  0  0  0  0  0  0  0  0  0  0
    4.2563   -3.6180   -0.7742 C   0  0  1  0  0  0  0  0  0  0  0  0
    3.0328   -4.4098   -0.2557 C   0  0  0  0  0  0  0  0  0  0  0  0
    3.4284   -5.5628    0.6879 C   0  0  0  0  0  0  0  0  0  0  0  0
    4.2245   -5.0441    1.8952 C   0  0  1  0  0  0  0  0  0  0  0  0
    4.6524   -6.1314    2.6832 O   0  0  0  0  0  0  0  0  0  0  0  0
    5.4486   -4.2193    1.4740 C   0  0  0  0  0  0  0  0  0  0  0  0
    5.0565   -3.1223    0.4729 C   0  0  2  0  0  0  0  0  0  0  0  0
    4.1956   -2.2642    1.2157 O   0  0  0  0  0  0  0  0  0  0  0  0
    4.5465   -0.9111    0.9839 C   0  0  0  0  0  0  0  0  0  0  0  0
    3.2537   -0.0992    0.8634 C   0  0  0  0  0  0  0  0  0  0  0  0
    5.3078   -0.4179    2.2263 C   0  0  0  0  0  0  0  0  0  0  0  0
    5.3863   -0.9883   -0.3275 C   0  0  2  0  0  0  0  0  0  0  0  0
    4.4840   -1.2354   -1.5613 C   0  0  0  0  0  0  0  0  0  0  0  0
    4.2500   -0.2636   -2.5359 C   0  0  0  0  0  0  0  0  0  0  0  0
    3.3525   -0.4364   -3.5923 C   0  0  0  0  0  0  0  0  0  0  0  0
    2.7081   -1.6631   -3.7275 C   0  0  0  0  0  0  0  0  0  0  0  0
    2.9536   -2.6932   -2.7950 C   0  0  0  0  0  0  0  0  0  0  0  0
    3.8305   -2.4756   -1.6993 C   0  0  0  0  0  0  0  0  0  0  0  0
    6.2149   -2.2173    0.0093 C   0  0  2  0  0  0  0  0  0  0  0  0
    8.0602   -4.4084   -0.0891 H   0  0  0  0  0  0  0  0  0  0  0  0
    8.8364   -2.8389    0.1496 H   0  0  0  0  0  0  0  0  0  0  0  0
    8.9946   -3.6647   -1.3863 H   0  0  0  0  0  0  0  0  0  0  0  0
    6.0013   -2.8047   -2.9194 H   0  0  0  0  0  0  0  0  0  0  0  0
    7.1395   -3.9887   -2.7356 H   0  0  0  0  0  0  0  0  0  0  0  0
    4.7770   -4.8678   -2.4809 H   0  0  0  0  0  0  0  0  0  0  0  0
    5.6533   -5.2354   -1.0210 H   0  0  0  0  0  0  0  0  0  0  0  0
    2.3726   -3.7092    0.2711 H   0  0  0  0  0  0  0  0  0  0  0  0
    2.4207   -4.7803   -1.0762 H   0  0  0  0  0  0  0  0  0  0  0  0
    2.5178   -6.0473    1.0295 H   0  0  0  0  0  0  0  0  0  0  0  0
    3.9892   -6.3182    0.1381 H   0  0  0  0  0  0  0  0  0  0  0  0
    3.5616   -4.4208    2.4938 H   0  0  0  0  0  0  0  0  0  0  0  0
    5.2179   -6.6835    2.1740 H   0  0  0  0  0  0  0  0  0  0  0  0
    5.8878   -3.7615    2.3630 H   0  0  0  0  0  0  0  0  0  0  0  0
    6.2090   -4.8719    1.0491 H   0  0  0  0  0  0  0  0  0  0  0  0
    3.4832    0.9347    0.6074 H   0  0  0  0  0  0  0  0  0  0  0  0
    2.6581   -0.0810    1.7811 H   0  0  0  0  0  0  0  0  0  0  0  0
    2.6432   -0.5295    0.0795 H   0  0  0  0  0  0  0  0  0  0  0  0
    5.7933    0.5185    1.9402 H   0  0  0  0  0  0  0  0  0  0  0  0
    6.0868   -1.0991    2.5774 H   0  0  0  0  0  0  0  0  0  0  0  0
    4.6131   -0.2363    3.0537 H   0  0  0  0  0  0  0  0  0  0  0  0
    6.0203   -0.1081   -0.4403 H   0  0  0  0  0  0  0  0  0  0  0  0
    4.6190    0.7257   -2.4582 H   0  0  0  0  0  0  0  0  0  0  0  0
    3.1127    0.4278   -4.1983 H   0  0  0  0  0  0  0  0  0  0  0  0
    1.9619   -1.7609   -4.4950 H   0  0  0  0  0  0  0  0  0  0  0  0
    2.4470   -3.6376   -2.9286 H   0  0  0  0  0  0  0  0  0  0  0  0
    6.8700   -1.9799    0.8386 H   0  0  0  0  0  0  0  0  0  0  0  0
    7.4953   -2.0112   -1.5998 H   0  0  0  0  0  0  0  0  0  0  0  0
  1  2  1  0
  1 24  1  0
  1 25  1  0
  1 26  1  0
  2 23  1  0
  2  3  1  0
  2 51  1  6
  3  4  1  0
  3 27  1  0
  3 28  1  0
  5  4  1  6
  4 29  1  0
  4 30  1  0
  5 11  1  0
  5 22  1  0
  5  6  1  0
  6  7  1  0
  6 31  1  0
  6 32  1  0
  7  8  1  0
  7 33  1  0
  7 34  1  0
  8  9  1  0
  8 10  1  0
  8 35  1  1
  9 36  1  0
 10 11  1  0
 10 37  1  0
 10 38  1  0
 11 23  1  0
 11 12  1  1
 12 13  1  0
 13 14  1  0
 13 15  1  0
 13 16  1  0
 14 39  1  0
 14 40  1  0
 14 41  1  0
 15 42  1  0
 15 43  1  0
 15 44  1  0
 16 17  1  0
 16 23  1  0
 16 45  1  6
 17 22  2  0
 17 18  1  0
 18 19  2  0
 18 46  1  0
 19 20  1  0
 19 47  1  0
 20 21  2  0
 20 48  1  0
 21 22  1  0
 21 49  1  0
 23 50  1  1
M  CHG  1   2   1
M  END
>  <i_m_ct_stereo_status>  (318) 
1

>  <s_m_source_file>  (318) 
/var/tmp/pbs.5076255.sched01/tmprcd7yfff/907v12ihtf.sdf

>  <i_m_source_file_index>  (318) 
44

>  <i_lp_mmshare_version>  (318) 
48012

>  <i_f3d_flags>  (318) 
0

>  <s_epik_input>  (318) 
W0NIMl0xW0NIMl1bQ0BASF0oW09IXSlbQ0gyXVtDQF0yKFtDQF0xMzQpW0NAQEhdKE4oW0NIM10pW0NIMl1bQ0gyXTMpW0NASF0oQyhPMikoW0NIM10pW0NIM10pYzVjNFtjSF1bY0hdW2NIXVtjSF01

>  <s_epik_cmdline>  (318) 
J2VwaWtfcHl0aG9uJywgJy1waHQnLCAnMi4wJywgJy1waCcsICc3LjAnLCAnLXRuJywgJzgnLCAnLW1hJywgJzIwMCcsICctaW1hZScsICc8aW5maWxlLm1hZT4nLCAnLW9tYWUnLCAnPG91dGZpbGUubWFlPic=

>  <r_epik_Ionization_Penalty>  (318) 
0.117066

>  <r_epik_Ionization_Penalty_Charging>  (318) 
0.117066

>  <r_epik_Ionization_Penalty_Neutral>  (318) 
4.37659e-08

>  <r_epik_State_Penalty>  (318) 
0.106671

>  <r_epik_Charging_Adjusted_Penalty>  (318) 
0.223737

>  <i_epik_Tot_Q>  (318) 
1

>  <i_epik_Tot_abs_Q>  (318) 
1

>  <s_lp_Force_Field>  (318) 
OPLS3e

>  <r_lp_Energy>  (318) 
71.6649

>  <b_lp_Chiralities_Consistent>  (318) 
1

>  <s_lp_Variant>  (318) 
91:0-1

>  <s_i_glide_gridfile>  (318) 
pfpi4k_grid

>  <i_i_glide_lignum>  (318) 
44

>  <i_i_glide_rotatable_bonds>  (318) 
1

>  <r_i_docking_score>  (318) 
-3.13582

>  <r_i_glide_ligand_efficiency>  (318) 
-0.13634

>  <r_i_glide_ligand_efficiency_sa>  (318) 
-0.387733

>  <r_i_glide_ligand_efficiency_ln>  (318) 
-0.758269

>  <r_i_glide_gscore>  (318) 
-3.13582

>  <r_i_glide_lipo>  (318) 
-1.08411

>  <r_i_glide_hbond>  (318) 
0

>  <r_i_glide_metal>  (318) 
-0

>  <r_i_glide_rewards>  (318) 
-1.26517

>  <r_i_glide_evdw>  (318) 
-14.1776

>  <r_i_glide_ecoul>  (318) 
-0.376944

>  <r_i_glide_erotb>  (318) 
0

>  <r_i_glide_esite>  (318) 
-0.0211171

>  <r_i_glide_emodel>  (318) 
-16.635

>  <r_i_glide_energy>  (318) 
-14.5545

>  <r_i_glide_einternal>  (318) 
0.00335261

>  <r_i_glide_intrahb_reward>  (318) 
-0

>  <i_i_glide_confnum>  (318) 
1

>  <i_i_glide_posenum>  (318) 
6

>  <r_i_glide_eff_state_penalty>  (318) 
0

>  <ligand_id>  (318) 
91

>  <original_smiles>  (318) 
CN1CCC23CCC(O)CC24OC(C)(C)C(c2ccccc23)C14

>  <smiles>  (318) 
[H]OC1([H])C([H])([H])C([H])([H])C23c4c([H])c([H])c([H])c([H])c4C4([H])C(C([H])([H])[H])(C([H])([H])[H])OC2(C1([H])[H])C4([H])[N+]([H])(C([H])([H])[H])C([H])([H])C3([H])[H]

$$$$
91:0:1
     RDKit          3D

 51 55  0  0  1  0  0  0  0  0999 V2000
    8.3902   -3.4314   -0.6941 C   0  0  0  0  0  0  0  0  0  0  0  0
    7.1328   -2.7870   -1.1555 N   0  0  1  0  0  0  0  0  0  0  0  0
    6.4310   -3.5435   -2.2075 C   0  0  0  0  0  0  0  0  0  0  0  0
    5.3455   -4.5002   -1.6556 C   0  0  0  0  0  0  0  0  0  0  0  0
    4.3451   -3.7361   -0.7829 C   0  0  1  0  0  0  0  0  0  0  0  0
    3.1846   -4.5927   -0.2466 C   0  0  0  0  0  0  0  0  0  0  0  0
    3.6520   -5.7451    0.6633 C   0  0  0  0  0  0  0  0  0  0  0  0
    4.4562   -5.2042    1.8559 C   0  0  1  0  0  0  0  0  0  0  0  0
    4.9707   -6.2831    2.6006 O   0  0  0  0  0  0  0  0  0  0  0  0
    5.6375   -4.3331    1.4096 C   0  0  0  0  0  0  0  0  0  0  0  0
    5.1680   -3.2285    0.4442 C   0  0  2  0  0  0  0  0  0  0  0  0
    4.3205   -2.3874    1.2259 O   0  0  0  0  0  0  0  0  0  0  0  0
    4.6014   -1.0222    0.9797 C   0  0  0  0  0  0  0  0  0  0  0  0
    3.2700   -0.2823    0.8905 C   0  0  0  0  0  0  0  0  0  0  0  0
    5.3567   -0.4810    2.1952 C   0  0  0  0  0  0  0  0  0  0  0  0
    5.4131   -1.0682   -0.3437 C   0  0  2  0  0  0  0  0  0  0  0  0
    4.4981   -1.3329   -1.5627 C   0  0  0  0  0  0  0  0  0  0  0  0
    4.2309   -0.3314   -2.5160 C   0  0  0  0  0  0  0  0  0  0  0  0
    3.2867   -0.5471   -3.5316 C   0  0  0  0  0  0  0  0  0  0  0  0
    2.6622   -1.7901   -3.6417 C   0  0  0  0  0  0  0  0  0  0  0  0
    2.9693   -2.8331   -2.7459 C   0  0  0  0  0  0  0  0  0  0  0  0
    3.8681   -2.5852   -1.6835 C   0  0  0  0  0  0  0  0  0  0  0  0
    6.2758   -2.2832   -0.0414 C   0  0  2  0  0  0  0  0  0  0  0  0
    8.2150   -4.3925   -0.2238 H   0  0  0  0  0  0  0  0  0  0  0  0
    8.9407   -2.7949    0.0013 H   0  0  0  0  0  0  0  0  0  0  0  0
    9.0449   -3.6084   -1.5432 H   0  0  0  0  0  0  0  0  0  0  0  0
    6.0489   -2.8905   -2.9898 H   0  0  0  0  0  0  0  0  0  0  0  0
    7.2122   -4.0284   -2.7470 H   0  0  0  0  0  0  0  0  0  0  0  0
    4.8759   -4.9539   -2.5296 H   0  0  0  0  0  0  0  0  0  0  0  0
    5.7702   -5.3033   -1.0677 H   0  0  0  0  0  0  0  0  0  0  0  0
    2.5007   -3.9452    0.3012 H   0  0  0  0  0  0  0  0  0  0  0  0
    2.5716   -4.9718   -1.0488 H   0  0  0  0  0  0  0  0  0  0  0  0
    2.7792   -6.2826    1.0235 H   0  0  0  0  0  0  0  0  0  0  0  0
    4.2368   -6.4811    0.1066 H   0  0  0  0  0  0  0  0  0  0  0  0
    3.7905   -4.6104    2.4893 H   0  0  0  0  0  0  0  0  0  0  0  0
    4.2550   -6.7328    3.0235 H   0  0  0  0  0  0  0  0  0  0  0  0
    6.0910   -3.8721    2.2893 H   0  0  0  0  0  0  0  0  0  0  0  0
    6.4086   -4.9575    0.9562 H   0  0  0  0  0  0  0  0  0  0  0  0
    3.3978    0.7692    0.6352 H   0  0  0  0  0  0  0  0  0  0  0  0
    2.6953   -0.3099    1.8195 H   0  0  0  0  0  0  0  0  0  0  0  0
    2.6837   -0.7659    0.1215 H   0  0  0  0  0  0  0  0  0  0  0  0
    5.7252    0.5317    1.9638 H   0  0  0  0  0  0  0  0  0  0  0  0
    6.1880   -1.1070    2.4989 H   0  0  0  0  0  0  0  0  0  0  0  0
    4.6875   -0.4062    3.0500 H   0  0  0  0  0  0  0  0  0  0  0  0
    6.0053   -0.1734   -0.4757 H   0  0  0  0  0  0  0  0  0  0  0  0
    4.6418    0.6428   -2.4064 H   0  0  0  0  0  0  0  0  0  0  0  0
    2.9755    0.2947   -4.1356 H   0  0  0  0  0  0  0  0  0  0  0  0
    1.8837   -1.9369   -4.3707 H   0  0  0  0  0  0  0  0  0  0  0  0
    2.5054   -3.7980   -2.8889 H   0  0  0  0  0  0  0  0  0  0  0  0
    6.9481   -2.0271    0.7715 H   0  0  0  0  0  0  0  0  0  0  0  0
    7.4910   -2.0257   -1.6897 H   0  0  0  0  0  0  0  0  0  0  0  0
  1  2  1  0
  1 24  1  0
  1 25  1  0
  1 26  1  0
  2 23  1  0
  2  3  1  0
  2 51  1  6
  3  4  1  0
  3 27  1  0
  3 28  1  0
  5  4  1  6
  4 29  1  0
  4 30  1  0
  5 11  1  0
  5 22  1  0
  5  6  1  0
  6  7  1  0
  6 31  1  0
  6 32  1  0
  7  8  1  0
  7 33  1  0
  7 34  1  0
  8  9  1  0
  8 10  1  0
  8 35  1  1
  9 36  1  0
 10 11  1  0
 10 37  1  0
 10 38  1  0
 11 23  1  0
 11 12  1  1
 12 13  1  0
 13 14  1  0
 13 15  1  0
 13 16  1  0
 14 39  1  0
 14 40  1  0
 14 41  1  0
 15 42  1  0
 15 43  1  0
 15 44  1  0
 16 17  1  0
 16 23  1  0
 16 45  1  6
 17 22  2  0
 17 18  1  0
 18 19  2  0
 18 46  1  0
 19 20  1  0
 19 47  1  0
 20 21  2  0
 20 48  1  0
 21 22  1  0
 21 49  1  0
 23 50  1  1
M  CHG  1   2   1
M  END
>  <i_m_ct_stereo_status>  (319) 
1

>  <s_m_source_file>  (319) 
/var/tmp/pbs.5076255.sched01/tmprcd7yfff/907v12ihtf.sdf

>  <i_m_source_file_index>  (319) 
44

>  <i_lp_mmshare_version>  (319) 
48012

>  <i_f3d_flags>  (319) 
0

>  <s_epik_input>  (319) 
W0NIMl0xW0NIMl1bQ0BASF0oW09IXSlbQ0gyXVtDQF0yKFtDQF0xMzQpW0NAQEhdKE4oW0NIM10pW0NIMl1bQ0gyXTMpW0NASF0oQyhPMikoW0NIM10pW0NIM10pYzVjNFtjSF1bY0hdW2NIXVtjSF01

>  <s_epik_cmdline>  (319) 
J2VwaWtfcHl0aG9uJywgJy1waHQnLCAnMi4wJywgJy1waCcsICc3LjAnLCAnLXRuJywgJzgnLCAnLW1hJywgJzIwMCcsICctaW1hZScsICc8aW5maWxlLm1hZT4nLCAnLW9tYWUnLCAnPG91dGZpbGUubWFlPic=

>  <r_epik_Ionization_Penalty>  (319) 
0.117066

>  <r_epik_Ionization_Penalty_Charging>  (319) 
0.117066

>  <r_epik_Ionization_Penalty_Neutral>  (319) 
4.37659e-08

>  <r_epik_State_Penalty>  (319) 
0.106671

>  <r_epik_Charging_Adjusted_Penalty>  (319) 
0.223737

>  <i_epik_Tot_Q>  (319) 
1

>  <i_epik_Tot_abs_Q>  (319) 
1

>  <s_lp_Force_Field>  (319) 
OPLS3e

>  <r_lp_Energy>  (319) 
71.6649

>  <b_lp_Chiralities_Consistent>  (319) 
1

>  <s_lp_Variant>  (319) 
91:0-1

>  <s_i_glide_gridfile>  (319) 
pfpi4k_grid

>  <i_i_glide_lignum>  (319) 
44

>  <i_i_glide_rotatable_bonds>  (319) 
1

>  <r_i_docking_score>  (319) 
-3.05271

>  <r_i_glide_ligand_efficiency>  (319) 
-0.132727

>  <r_i_glide_ligand_efficiency_sa>  (319) 
-0.377457

>  <r_i_glide_ligand_efficiency_ln>  (319) 
-0.738174

>  <r_i_glide_gscore>  (319) 
-3.05271

>  <r_i_glide_lipo>  (319) 
-1.03209

>  <r_i_glide_hbond>  (319) 
0

>  <r_i_glide_metal>  (319) 
-0

>  <r_i_glide_rewards>  (319) 
-1.26517

>  <r_i_glide_evdw>  (319) 
-12.1341

>  <r_i_glide_ecoul>  (319) 
-0.840995

>  <r_i_glide_erotb>  (319) 
0

>  <r_i_glide_esite>  (319) 
-0.0225981

>  <r_i_glide_emodel>  (319) 
-15.4798

>  <r_i_glide_energy>  (319) 
-12.9751

>  <r_i_glide_einternal>  (319) 
0.394207

>  <r_i_glide_intrahb_reward>  (319) 
-0

>  <i_i_glide_confnum>  (319) 
1

>  <i_i_glide_posenum>  (319) 
32

>  <r_i_glide_eff_state_penalty>  (319) 
0

>  <ligand_id>  (319) 
91

>  <original_smiles>  (319) 
CN1CCC23CCC(O)CC24OC(C)(C)C(c2ccccc23)C14

>  <smiles>  (319) 
[H]OC1([H])C([H])([H])C([H])([H])C23c4c([H])c([H])c([H])c([H])c4C4([H])C(C([H])([H])[H])(C([H])([H])[H])OC2(C1([H])[H])C4([H])[N+]([H])(C([H])([H])[H])C([H])([H])C3([H])[H]

$$$$
91:0:2
     RDKit          3D

 51 55  0  0  1  0  0  0  0  0999 V2000
    7.2568   -5.9879    2.6801 C   0  0  0  0  0  0  0  0  0  0  0  0
    6.6679   -4.9111    1.8412 N   0  0  1  0  0  0  0  0  0  0  0  0
    6.3838   -5.3908    0.4615 C   0  0  0  0  0  0  0  0  0  0  0  0
    4.9231   -5.8403    0.2532 C   0  0  0  0  0  0  0  0  0  0  0  0
    3.9344   -4.7501    0.7340 C   0  0  1  0  0  0  0  0  0  0  0  0
    2.4558   -5.1421    0.4764 C   0  0  0  0  0  0  0  0  0  0  0  0
    1.9987   -6.3840    1.2699 C   0  0  0  0  0  0  0  0  0  0  0  0
    2.2403   -6.2275    2.7795 C   0  0  1  0  0  0  0  0  0  0  0  0
    1.9116   -7.4346    3.4357 O   0  0  0  0  0  0  0  0  0  0  0  0
    3.6937   -5.8390    3.0975 C   0  0  0  0  0  0  0  0  0  0  0  0
    4.1368   -4.6067    2.2769 C   0  0  2  0  0  0  0  0  0  0  0  0
    3.3315   -3.5219    2.7656 O   0  0  0  0  0  0  0  0  0  0  0  0
    4.0980   -2.3332    2.9436 C   0  0  0  0  0  0  0  0  0  0  0  0
    3.2614   -1.1502    2.4003 C   0  0  0  0  0  0  0  0  0  0  0  0
    4.3046   -2.1310    4.4629 C   0  0  0  0  0  0  0  0  0  0  0  0
    5.3966   -2.6651    2.1610 C   0  0  2  0  0  0  0  0  0  0  0  0
    5.1323   -2.4873    0.6669 C   0  0  0  0  0  0  0  0  0  0  0  0
    5.6241   -1.3590   -0.0192 C   0  0  0  0  0  0  0  0  0  0  0  0
    5.3001   -1.1794   -1.3779 C   0  0  0  0  0  0  0  0  0  0  0  0
    4.5061   -2.1261   -2.0483 C   0  0  0  0  0  0  0  0  0  0  0  0
    4.0272   -3.2566   -1.3676 C   0  0  0  0  0  0  0  0  0  0  0  0
    4.3295   -3.4486   -0.0003 C   0  0  0  0  0  0  0  0  0  0  0  0
    5.5763   -4.1429    2.5391 C   0  0  2  0  0  0  0  0  0  0  0  0
    6.5664   -6.8221    2.7954 H   0  0  0  0  0  0  0  0  0  0  0  0
    7.5337   -5.6264    3.6711 H   0  0  0  0  0  0  0  0  0  0  0  0
    8.1654   -6.3792    2.2183 H   0  0  0  0  0  0  0  0  0  0  0  0
    6.6404   -4.5992   -0.2463 H   0  0  0  0  0  0  0  0  0  0  0  0
    7.0528   -6.2130    0.2098 H   0  0  0  0  0  0  0  0  0  0  0  0
    4.7651   -6.0517   -0.8054 H   0  0  0  0  0  0  0  0  0  0  0  0
    4.7628   -6.7886    0.7660 H   0  0  0  0  0  0  0  0  0  0  0  0
    1.8303   -4.2950    0.7594 H   0  0  0  0  0  0  0  0  0  0  0  0
    2.2749   -5.3178   -0.5834 H   0  0  0  0  0  0  0  0  0  0  0  0
    0.9376   -6.5540    1.0911 H   0  0  0  0  0  0  0  0  0  0  0  0
    2.5099   -7.2688    0.8914 H   0  0  0  0  0  0  0  0  0  0  0  0
    1.5764   -5.4520    3.1641 H   0  0  0  0  0  0  0  0  0  0  0  0
    2.4585   -8.1311    3.1067 H   0  0  0  0  0  0  0  0  0  0  0  0
    3.7747   -5.6150    4.1623 H   0  0  0  0  0  0  0  0  0  0  0  0
    4.3474   -6.6912    2.9188 H   0  0  0  0  0  0  0  0  0  0  0  0
    3.8265   -0.2183    2.4202 H   0  0  0  0  0  0  0  0  0  0  0  0
    2.3713   -0.9965    3.0093 H   0  0  0  0  0  0  0  0  0  0  0  0
    2.9060   -1.3086    1.3818 H   0  0  0  0  0  0  0  0  0  0  0  0
    4.9977   -1.3154    4.6711 H   0  0  0  0  0  0  0  0  0  0  0  0
    4.6684   -3.0230    4.9718 H   0  0  0  0  0  0  0  0  0  0  0  0
    3.3584   -1.8824    4.9451 H   0  0  0  0  0  0  0  0  0  0  0  0
    6.2278   -2.0386    2.4808 H   0  0  0  0  0  0  0  0  0  0  0  0
    6.2193   -0.6174    0.4970 H   0  0  0  0  0  0  0  0  0  0  0  0
    5.6439   -0.3082   -1.9101 H   0  0  0  0  0  0  0  0  0  0  0  0
    4.2637   -1.9827   -3.0900 H   0  0  0  0  0  0  0  0  0  0  0  0
    3.4386   -3.9795   -1.9120 H   0  0  0  0  0  0  0  0  0  0  0  0
    5.7918   -4.1935    3.6013 H   0  0  0  0  0  0  0  0  0  0  0  0
    7.4270   -4.2516    1.7332 H   0  0  0  0  0  0  0  0  0  0  0  0
  1  2  1  0
  1 24  1  0
  1 25  1  0
  1 26  1  0
  2 23  1  0
  2  3  1  0
  2 51  1  6
  3  4  1  0
  3 27  1  0
  3 28  1  0
  5  4  1  6
  4 29  1  0
  4 30  1  0
  5 11  1  0
  5 22  1  0
  5  6  1  0
  6  7  1  0
  6 31  1  0
  6 32  1  0
  7  8  1  0
  7 33  1  0
  7 34  1  0
  8  9  1  0
  8 10  1  0
  8 35  1  1
  9 36  1  0
 10 11  1  0
 10 37  1  0
 10 38  1  0
 11 23  1  0
 11 12  1  1
 12 13  1  0
 13 14  1  0
 13 15  1  0
 13 16  1  0
 14 39  1  0
 14 40  1  0
 14 41  1  0
 15 42  1  0
 15 43  1  0
 15 44  1  0
 16 17  1  0
 16 23  1  0
 16 45  1  1
 17 22  2  0
 17 18  1  0
 18 19  2  0
 18 46  1  0
 19 20  1  0
 19 47  1  0
 20 21  2  0
 20 48  1  0
 21 22  1  0
 21 49  1  0
 23 50  1  1
M  CHG  1   2   1
M  END
>  <i_m_ct_stereo_status>  (320) 
1

>  <s_m_source_file>  (320) 
/var/tmp/pbs.5076255.sched01/tmprcd7yfff/907v12ihtf.sdf

>  <i_m_source_file_index>  (320) 
44

>  <i_lp_mmshare_version>  (320) 
48012

>  <i_f3d_flags>  (320) 
0

>  <s_epik_input>  (320) 
W0NIMl0xW0NIMl1bQ0BASF0oW09IXSlbQ0gyXVtDQF0yKFtDQF0xMzQpW0NAQEhdKE4oW0NIM10pW0NIMl1bQ0gyXTMpW0NASF0oQyhPMikoW0NIM10pW0NIM10pYzVjNFtjSF1bY0hdW2NIXVtjSF01

>  <s_epik_cmdline>  (320) 
J2VwaWtfcHl0aG9uJywgJy1waHQnLCAnMi4wJywgJy1waCcsICc3LjAnLCAnLXRuJywgJzgnLCAnLW1hJywgJzIwMCcsICctaW1hZScsICc8aW5maWxlLm1hZT4nLCAnLW9tYWUnLCAnPG91dGZpbGUubWFlPic=

>  <r_epik_Ionization_Penalty>  (320) 
0.117066

>  <r_epik_Ionization_Penalty_Charging>  (320) 
0.117066

>  <r_epik_Ionization_Penalty_Neutral>  (320) 
4.37659e-08

>  <r_epik_State_Penalty>  (320) 
0.106671

>  <r_epik_Charging_Adjusted_Penalty>  (320) 
0.223737

>  <i_epik_Tot_Q>  (320) 
1

>  <i_epik_Tot_abs_Q>  (320) 
1

>  <s_lp_Force_Field>  (320) 
OPLS3e

>  <r_lp_Energy>  (320) 
71.6649

>  <b_lp_Chiralities_Consistent>  (320) 
1

>  <s_lp_Variant>  (320) 
91:0-1

>  <s_i_glide_gridfile>  (320) 
pfpi4k_grid

>  <i_i_glide_lignum>  (320) 
44

>  <i_i_glide_rotatable_bonds>  (320) 
1

>  <r_i_docking_score>  (320) 
-2.78263

>  <r_i_glide_ligand_efficiency>  (320) 
-0.120984

>  <r_i_glide_ligand_efficiency_sa>  (320) 
-0.344062

>  <r_i_glide_ligand_efficiency_ln>  (320) 
-0.672865

>  <r_i_glide_gscore>  (320) 
-2.78263

>  <r_i_glide_lipo>  (320) 
-0.391096

>  <r_i_glide_hbond>  (320) 
0

>  <r_i_glide_metal>  (320) 
-0

>  <r_i_glide_rewards>  (320) 
-1.26517

>  <r_i_glide_evdw>  (320) 
-17.9657

>  <r_i_glide_ecoul>  (320) 
-1.52051

>  <r_i_glide_erotb>  (320) 
0

>  <r_i_glide_esite>  (320) 
0

>  <r_i_glide_emodel>  (320) 
-22.6334

>  <r_i_glide_energy>  (320) 
-19.4863

>  <r_i_glide_einternal>  (320) 
0.00204016

>  <r_i_glide_intrahb_reward>  (320) 
-0

>  <i_i_glide_confnum>  (320) 
1

>  <i_i_glide_posenum>  (320) 
1

>  <r_i_glide_eff_state_penalty>  (320) 
0

>  <ligand_id>  (320) 
91

>  <original_smiles>  (320) 
CN1CCC23CCC(O)CC24OC(C)(C)C(c2ccccc23)C14

>  <smiles>  (320) 
[H]OC1([H])C([H])([H])C([H])([H])C23c4c([H])c([H])c([H])c([H])c4C4([H])C(C([H])([H])[H])(C([H])([H])[H])OC2(C1([H])[H])C4([H])[N+]([H])(C([H])([H])[H])C([H])([H])C3([H])[H]

$$$$
91:1:0
     RDKit          3D

 50 54  0  0  1  0  0  0  0  0999 V2000
    7.9847   -3.3104    0.2090 C   0  0  0  0  0  0  0  0  0  0  0  0
    6.7555   -3.8484    0.7854 N   0  0  0  0  0  0  0  0  0  0  0  0
    6.0506   -4.7176   -0.1587 C   0  0  0  0  0  0  0  0  0  0  0  0
    4.6759   -5.2105    0.3196 C   0  0  0  0  0  0  0  0  0  0  0  0
    3.8103   -4.0172    0.7902 C   0  0  1  0  0  0  0  0  0  0  0  0
    2.4185   -4.4725    1.2958 C   0  0  0  0  0  0  0  0  0  0  0  0
    2.4795   -5.3797    2.5416 C   0  0  0  0  0  0  0  0  0  0  0  0
    3.2784   -4.7384    3.6913 C   0  0  1  0  0  0  0  0  0  0  0  0
    3.4368   -5.6932    4.7203 O   0  0  0  0  0  0  0  0  0  0  0  0
    4.6648   -4.2429    3.2467 C   0  0  0  0  0  0  0  0  0  0  0  0
    4.5681   -3.3519    1.9902 C   0  0  2  0  0  0  0  0  0  0  0  0
    3.8794   -2.1614    2.3993 O   0  0  0  0  0  0  0  0  0  0  0  0
    4.4952   -0.9924    1.8642 C   0  0  0  0  0  0  0  0  0  0  0  0
    3.3717   -0.0498    1.3791 C   0  0  0  0  0  0  0  0  0  0  0  0
    5.2512   -0.2998    3.0215 C   0  0  0  0  0  0  0  0  0  0  0  0
    5.4146   -1.5809    0.7584 C   0  0  2  0  0  0  0  0  0  0  0  0
    4.5782   -1.9263   -0.4696 C   0  0  0  0  0  0  0  0  0  0  0  0
    4.6188   -1.1126   -1.6182 C   0  0  0  0  0  0  0  0  0  0  0  0
    3.7932   -1.3991   -2.7192 C   0  0  0  0  0  0  0  0  0  0  0  0
    2.9299   -2.5091   -2.6713 C   0  0  0  0  0  0  0  0  0  0  0  0
    2.8921   -3.3320   -1.5258 C   0  0  0  0  0  0  0  0  0  0  0  0
    3.7168   -3.0523   -0.4130 C   0  0  0  0  0  0  0  0  0  0  0  0
    5.9207   -2.8398    1.4767 C   0  0  2  0  0  0  0  0  0  0  0  0
    8.6345   -4.1140   -0.1376 H   0  0  0  0  0  0  0  0  0  0  0  0
    8.5546   -2.7294    0.9306 H   0  0  0  0  0  0  0  0  0  0  0  0
    7.7742   -2.6659   -0.6436 H   0  0  0  0  0  0  0  0  0  0  0  0
    5.9604   -4.2245   -1.1277 H   0  0  0  0  0  0  0  0  0  0  0  0
    6.6564   -5.6052   -0.3215 H   0  0  0  0  0  0  0  0  0  0  0  0
    4.1908   -5.7538   -0.4931 H   0  0  0  0  0  0  0  0  0  0  0  0
    4.8199   -5.9472    1.1065 H   0  0  0  0  0  0  0  0  0  0  0  0
    1.8413   -3.5829    1.5535 H   0  0  0  0  0  0  0  0  0  0  0  0
    1.8702   -4.9917    0.5107 H   0  0  0  0  0  0  0  0  0  0  0  0
    1.4642   -5.5908    2.8854 H   0  0  0  0  0  0  0  0  0  0  0  0
    2.9028   -6.3479    2.2726 H   0  0  0  0  0  0  0  0  0  0  0  0
    2.7073   -3.8976    4.0902 H   0  0  0  0  0  0  0  0  0  0  0  0
    3.9058   -5.2920    5.4372 H   0  0  0  0  0  0  0  0  0  0  0  0
    5.1226   -3.6781    4.0591 H   0  0  0  0  0  0  0  0  0  0  0  0
    5.3277   -5.0876    3.0612 H   0  0  0  0  0  0  0  0  0  0  0  0
    3.7787    0.8276    0.8797 H   0  0  0  0  0  0  0  0  0  0  0  0
    2.7753    0.3106    2.2174 H   0  0  0  0  0  0  0  0  0  0  0  0
    2.6727   -0.5382    0.6994 H   0  0  0  0  0  0  0  0  0  0  0  0
    5.8483    0.5370    2.6692 H   0  0  0  0  0  0  0  0  0  0  0  0
    5.9137   -0.9711    3.5625 H   0  0  0  0  0  0  0  0  0  0  0  0
    4.5560    0.0944    3.7648 H   0  0  0  0  0  0  0  0  0  0  0  0
    6.2235   -0.8959    0.5015 H   0  0  0  0  0  0  0  0  0  0  0  0
    5.2754   -0.2570   -1.6521 H   0  0  0  0  0  0  0  0  0  0  0  0
    3.8138   -0.7643   -3.5929 H   0  0  0  0  0  0  0  0  0  0  0  0
    2.2861   -2.7280   -3.5113 H   0  0  0  0  0  0  0  0  0  0  0  0
    2.2412   -4.1930   -1.5265 H   0  0  0  0  0  0  0  0  0  0  0  0
    6.5115   -2.5092    2.3265 H   0  0  0  0  0  0  0  0  0  0  0  0
  1  2  1  0
  1 24  1  0
  1 25  1  0
  1 26  1  0
  2 23  1  0
  2  3  1  0
  3  4  1  0
  3 27  1  0
  3 28  1  0
  5  4  1  6
  4 29  1  0
  4 30  1  0
  5 11  1  0
  5 22  1  0
  5  6  1  0
  6  7  1  0
  6 31  1  0
  6 32  1  0
  7  8  1  0
  7 33  1  0
  7 34  1  0
  8  9  1  0
  8 10  1  0
  8 35  1  1
  9 36  1  0
 10 11  1  0
 10 37  1  0
 10 38  1  0
 11 23  1  0
 11 12  1  1
 12 13  1  0
 13 14  1  0
 13 15  1  0
 13 16  1  0
 14 39  1  0
 14 40  1  0
 14 41  1  0
 15 42  1  0
 15 43  1  0
 15 44  1  0
 16 17  1  0
 16 23  1  0
 16 45  1  6
 17 22  2  0
 17 18  1  0
 18 19  2  0
 18 46  1  0
 19 20  1  0
 19 47  1  0
 20 21  2  0
 20 48  1  0
 21 22  1  0
 21 49  1  0
 23 50  1  1
M  END
>  <i_m_ct_stereo_status>  (321) 
1

>  <s_m_source_file>  (321) 
/var/tmp/pbs.5076255.sched01/tmprcd7yfff/907v12ihtf.sdf

>  <i_m_source_file_index>  (321) 
45

>  <i_lp_mmshare_version>  (321) 
48012

>  <i_f3d_flags>  (321) 
0

>  <s_epik_input>  (321) 
W0NIMl0xW0NIMl1bQ0BASF0oW09IXSlbQ0gyXVtDQF0yKFtDQF0xMzQpW0NAQEhdKE4oW0NIM10pW0NIMl1bQ0gyXTMpW0NASF0oQyhPMikoW0NIM10pW0NIM10pYzVjNFtjSF1bY0hdW2NIXVtjSF01

>  <s_epik_cmdline>  (321) 
J2VwaWtfcHl0aG9uJywgJy1waHQnLCAnMi4wJywgJy1waCcsICc3LjAnLCAnLXRuJywgJzgnLCAnLW1hJywgJzIwMCcsICctaW1hZScsICc8aW5maWxlLm1hZT4nLCAnLW9tYWUnLCAnPG91dGZpbGUubWFlPic=

>  <r_epik_Ionization_Penalty>  (321) 
1.01834

>  <r_epik_Ionization_Penalty_Charging>  (321) 
0

>  <r_epik_Ionization_Penalty_Neutral>  (321) 
1.01834

>  <r_epik_State_Penalty>  (321) 
1.0684

>  <r_epik_Charging_Adjusted_Penalty>  (321) 
1.0684

>  <i_epik_Tot_Q>  (321) 
0

>  <i_epik_Tot_abs_Q>  (321) 
0

>  <s_lp_Force_Field>  (321) 
OPLS3e

>  <r_lp_Energy>  (321) 
57.5497

>  <b_lp_Chiralities_Consistent>  (321) 
1

>  <s_lp_Variant>  (321) 
91:0-2

>  <s_i_glide_gridfile>  (321) 
pfpi4k_grid

>  <i_i_glide_lignum>  (321) 
45

>  <i_i_glide_rotatable_bonds>  (321) 
1

>  <r_i_docking_score>  (321) 
-3.0943

>  <r_i_glide_ligand_efficiency>  (321) 
-0.134535

>  <r_i_glide_ligand_efficiency_sa>  (321) 
-0.382599

>  <r_i_glide_ligand_efficiency_ln>  (321) 
-0.748231

>  <r_i_glide_gscore>  (321) 
-3.0943

>  <r_i_glide_lipo>  (321) 
-0.870806

>  <r_i_glide_hbond>  (321) 
0

>  <r_i_glide_metal>  (321) 
-0

>  <r_i_glide_rewards>  (321) 
-1.27204

>  <r_i_glide_evdw>  (321) 
-21.1026

>  <r_i_glide_ecoul>  (321) 
0.691171

>  <r_i_glide_erotb>  (321) 
0

>  <r_i_glide_esite>  (321) 
0

>  <r_i_glide_emodel>  (321) 
-23.5728

>  <r_i_glide_energy>  (321) 
-20.4115

>  <r_i_glide_einternal>  (321) 
0.32968

>  <r_i_glide_intrahb_reward>  (321) 
-0

>  <i_i_glide_confnum>  (321) 
2

>  <i_i_glide_posenum>  (321) 
16

>  <r_i_glide_eff_state_penalty>  (321) 
0

>  <ligand_id>  (321) 
91

>  <original_smiles>  (321) 
CN1CCC23CCC(O)CC24OC(C)(C)C(c2ccccc23)C14

>  <smiles>  (321) 
[H]OC1([H])C([H])([H])C([H])([H])C23c4c([H])c([H])c([H])c([H])c4C4([H])C([H])(N(C([H])([H])[H])C([H])([H])C2([H])[H])C3(OC4(C([H])([H])[H])C([H])([H])[H])C1([H])[H]

$$$$
91:1:1
     RDKit          3D

 50 54  0  0  1  0  0  0  0  0999 V2000
    7.8751   -3.3980    0.2295 C   0  0  0  0  0  0  0  0  0  0  0  0
    6.7087   -3.9367    0.9211 N   0  0  0  0  0  0  0  0  0  0  0  0
    5.9681   -4.8921    0.0906 C   0  0  0  0  0  0  0  0  0  0  0  0
    4.6476   -5.3836    0.7063 C   0  0  0  0  0  0  0  0  0  0  0  0
    3.7844   -4.1857    1.1697 C   0  0  1  0  0  0  0  0  0  0  0  0
    2.4486   -4.6479    1.8106 C   0  0  0  0  0  0  0  0  0  0  0  0
    2.6389   -5.4682    3.1052 C   0  0  0  0  0  0  0  0  0  0  0  0
    3.5037   -4.7305    4.1444 C   0  0  1  0  0  0  0  0  0  0  0  0
    3.7657   -5.5935    5.2338 O   0  0  0  0  0  0  0  0  0  0  0  0
    4.8327   -4.2210    3.5605 C   0  0  0  0  0  0  0  0  0  0  0  0
    4.6085   -3.4185    2.2602 C   0  0  2  0  0  0  0  0  0  0  0  0
    3.9116   -2.2228    2.6413 O   0  0  0  0  0  0  0  0  0  0  0  0
    4.4447   -1.0769    1.9806 C   0  0  0  0  0  0  0  0  0  0  0  0
    3.2557   -0.2055    1.5206 C   0  0  0  0  0  0  0  0  0  0  0  0
    5.2656   -0.2827    3.0224 C   0  0  0  0  0  0  0  0  0  0  0  0
    5.2983   -1.7132    0.8498 C   0  0  2  0  0  0  0  0  0  0  0  0
    4.3844   -2.1628   -0.2827 C   0  0  0  0  0  0  0  0  0  0  0  0
    4.3113   -1.4240   -1.4828 C   0  0  0  0  0  0  0  0  0  0  0  0
    3.4183   -1.8188   -2.4951 C   0  0  0  0  0  0  0  0  0  0  0  0
    2.6015   -2.9497   -2.3041 C   0  0  0  0  0  0  0  0  0  0  0  0
    2.6681   -3.6801   -1.1028 C   0  0  0  0  0  0  0  0  0  0  0  0
    3.5673   -3.3045   -0.0823 C   0  0  0  0  0  0  0  0  0  0  0  0
    5.8971   -2.9075    1.6062 C   0  0  2  0  0  0  0  0  0  0  0  0
    8.5279   -4.1995   -0.1199 H   0  0  0  0  0  0  0  0  0  0  0  0
    8.4680   -2.7569    0.8834 H   0  0  0  0  0  0  0  0  0  0  0  0
    7.5774   -2.8172   -0.6433 H   0  0  0  0  0  0  0  0  0  0  0  0
    5.7900   -4.4699   -0.8991 H   0  0  0  0  0  0  0  0  0  0  0  0
    6.5948   -5.7717   -0.0600 H   0  0  0  0  0  0  0  0  0  0  0  0
    4.1132   -5.9952   -0.0223 H   0  0  0  0  0  0  0  0  0  0  0  0
    4.8775   -6.0582    1.5287 H   0  0  0  0  0  0  0  0  0  0  0  0
    1.8556   -3.7623    2.0514 H   0  0  0  0  0  0  0  0  0  0  0  0
    1.8626   -5.2406    1.1098 H   0  0  0  0  0  0  0  0  0  0  0  0
    1.6619   -5.6804    3.5426 H   0  0  0  0  0  0  0  0  0  0  0  0
    3.0726   -6.4376    2.8622 H   0  0  0  0  0  0  0  0  0  0  0  0
    2.9383   -3.8793    4.5267 H   0  0  0  0  0  0  0  0  0  0  0  0
    4.2739   -6.3297    4.9208 H   0  0  0  0  0  0  0  0  0  0  0  0
    5.3254   -3.5898    4.2998 H   0  0  0  0  0  0  0  0  0  0  0  0
    5.5124   -5.0513    3.3801 H   0  0  0  0  0  0  0  0  0  0  0  0
    3.5913    0.6431    0.9278 H   0  0  0  0  0  0  0  0  0  0  0  0
    2.7150    0.1959    2.3769 H   0  0  0  0  0  0  0  0  0  0  0  0
    2.5254   -0.7614    0.9329 H   0  0  0  0  0  0  0  0  0  0  0  0
    5.8129    0.5361    2.5648 H   0  0  0  0  0  0  0  0  0  0  0  0
    5.9888   -0.8948    3.5563 H   0  0  0  0  0  0  0  0  0  0  0  0
    4.6143    0.1436    3.7875 H   0  0  0  0  0  0  0  0  0  0  0  0
    6.0617   -1.0277    0.4852 H   0  0  0  0  0  0  0  0  0  0  0  0
    4.9155   -0.5387   -1.6200 H   0  0  0  0  0  0  0  0  0  0  0  0
    3.3442   -1.2513   -3.4096 H   0  0  0  0  0  0  0  0  0  0  0  0
    1.9043   -3.2515   -3.0760 H   0  0  0  0  0  0  0  0  0  0  0  0
    2.0520   -4.5620   -1.0009 H   0  0  0  0  0  0  0  0  0  0  0  0
    6.5399   -2.4972    2.3800 H   0  0  0  0  0  0  0  0  0  0  0  0
  1  2  1  0
  1 24  1  0
  1 25  1  0
  1 26  1  0
  2 23  1  0
  2  3  1  0
  3  4  1  0
  3 27  1  0
  3 28  1  0
  5  4  1  6
  4 29  1  0
  4 30  1  0
  5 11  1  0
  5 22  1  0
  5  6  1  0
  6  7  1  0
  6 31  1  0
  6 32  1  0
  7  8  1  0
  7 33  1  0
  7 34  1  0
  8  9  1  0
  8 10  1  0
  8 35  1  1
  9 36  1  0
 10 11  1  0
 10 37  1  0
 10 38  1  0
 11 23  1  0
 11 12  1  1
 12 13  1  0
 13 14  1  0
 13 15  1  0
 13 16  1  0
 14 39  1  0
 14 40  1  0
 14 41  1  0
 15 42  1  0
 15 43  1  0
 15 44  1  0
 16 17  1  0
 16 23  1  0
 16 45  1  6
 17 22  2  0
 17 18  1  0
 18 19  2  0
 18 46  1  0
 19 20  1  0
 19 47  1  0
 20 21  2  0
 20 48  1  0
 21 22  1  0
 21 49  1  0
 23 50  1  1
M  END
>  <i_m_ct_stereo_status>  (322) 
1

>  <s_m_source_file>  (322) 
/var/tmp/pbs.5076255.sched01/tmprcd7yfff/907v12ihtf.sdf

>  <i_m_source_file_index>  (322) 
45

>  <i_lp_mmshare_version>  (322) 
48012

>  <i_f3d_flags>  (322) 
0

>  <s_epik_input>  (322) 
W0NIMl0xW0NIMl1bQ0BASF0oW09IXSlbQ0gyXVtDQF0yKFtDQF0xMzQpW0NAQEhdKE4oW0NIM10pW0NIMl1bQ0gyXTMpW0NASF0oQyhPMikoW0NIM10pW0NIM10pYzVjNFtjSF1bY0hdW2NIXVtjSF01

>  <s_epik_cmdline>  (322) 
J2VwaWtfcHl0aG9uJywgJy1waHQnLCAnMi4wJywgJy1waCcsICc3LjAnLCAnLXRuJywgJzgnLCAnLW1hJywgJzIwMCcsICctaW1hZScsICc8aW5maWxlLm1hZT4nLCAnLW9tYWUnLCAnPG91dGZpbGUubWFlPic=

>  <r_epik_Ionization_Penalty>  (322) 
1.01834

>  <r_epik_Ionization_Penalty_Charging>  (322) 
0

>  <r_epik_Ionization_Penalty_Neutral>  (322) 
1.01834

>  <r_epik_State_Penalty>  (322) 
1.0684

>  <r_epik_Charging_Adjusted_Penalty>  (322) 
1.0684

>  <i_epik_Tot_Q>  (322) 
0

>  <i_epik_Tot_abs_Q>  (322) 
0

>  <s_lp_Force_Field>  (322) 
OPLS3e

>  <r_lp_Energy>  (322) 
57.5497

>  <b_lp_Chiralities_Consistent>  (322) 
1

>  <s_lp_Variant>  (322) 
91:0-2

>  <s_i_glide_gridfile>  (322) 
pfpi4k_grid

>  <i_i_glide_lignum>  (322) 
45

>  <i_i_glide_rotatable_bonds>  (322) 
1

>  <r_i_docking_score>  (322) 
-2.8701

>  <r_i_glide_ligand_efficiency>  (322) 
-0.124787

>  <r_i_glide_ligand_efficiency_sa>  (322) 
-0.354877

>  <r_i_glide_ligand_efficiency_ln>  (322) 
-0.694016

>  <r_i_glide_gscore>  (322) 
-2.8701

>  <r_i_glide_lipo>  (322) 
-0.756471

>  <r_i_glide_hbond>  (322) 
0

>  <r_i_glide_metal>  (322) 
-0

>  <r_i_glide_rewards>  (322) 
-1.27204

>  <r_i_glide_evdw>  (322) 
-19.8674

>  <r_i_glide_ecoul>  (322) 
1.01188

>  <r_i_glide_erotb>  (322) 
0

>  <r_i_glide_esite>  (322) 
0

>  <r_i_glide_emodel>  (322) 
-21.9448

>  <r_i_glide_energy>  (322) 
-18.8555

>  <r_i_glide_einternal>  (322) 
0.00257306

>  <r_i_glide_intrahb_reward>  (322) 
-0

>  <i_i_glide_confnum>  (322) 
2

>  <i_i_glide_posenum>  (322) 
29

>  <r_i_glide_eff_state_penalty>  (322) 
0

>  <ligand_id>  (322) 
91

>  <original_smiles>  (322) 
CN1CCC23CCC(O)CC24OC(C)(C)C(c2ccccc23)C14

>  <smiles>  (322) 
[H]OC1([H])C([H])([H])C([H])([H])C23c4c([H])c([H])c([H])c([H])c4C4([H])C([H])(N(C([H])([H])[H])C([H])([H])C2([H])[H])C3(OC4(C([H])([H])[H])C([H])([H])[H])C1([H])[H]

$$$$
91:1:2
     RDKit          3D

 50 54  0  0  1  0  0  0  0  0999 V2000
    8.0548   -2.3728   -1.6958 C   0  0  0  0  0  0  0  0  0  0  0  0
    6.8855   -3.1256   -1.3069 N   0  0  0  0  0  0  0  0  0  0  0  0
    6.1455   -3.5910   -2.4715 C   0  0  0  0  0  0  0  0  0  0  0  0
    4.8958   -4.3873   -2.0940 C   0  0  0  0  0  0  0  0  0  0  0  0
    3.9833   -3.5756   -1.1592 C   0  0  1  0  0  0  0  0  0  0  0  0
    2.6783   -4.2984   -0.6765 C   0  0  0  0  0  0  0  0  0  0  0  0
    2.9458   -5.5493    0.1922 C   0  0  0  0  0  0  0  0  0  0  0  0
    3.8187   -5.2334    1.4049 C   0  0  1  0  0  0  0  0  0  0  0  0
    4.1476   -6.4484    2.0606 O   0  0  0  0  0  0  0  0  0  0  0  0
    5.1150   -4.4923    1.0204 C   0  0  0  0  0  0  0  0  0  0  0  0
    4.8196   -3.2547    0.1414 C   0  0  2  0  0  0  0  0  0  0  0  0
    4.0868   -2.3444    0.9777 O   0  0  0  0  0  0  0  0  0  0  0  0
    4.5784   -1.0303    0.7887 C   0  0  0  0  0  0  0  0  0  0  0  0
    3.3595   -0.0998    0.7484 C   0  0  0  0  0  0  0  0  0  0  0  0
    5.4108   -0.6582    2.0277 C   0  0  0  0  0  0  0  0  0  0  0  0
    5.3766   -1.1290   -0.5432 C   0  0  2  0  0  0  0  0  0  0  0  0
    4.4366   -1.1840   -1.7804 C   0  0  0  0  0  0  0  0  0  0  0  0
    4.3392   -0.1492   -2.7313 C   0  0  0  0  0  0  0  0  0  0  0  0
    3.4141   -0.1630   -3.7604 C   0  0  0  0  0  0  0  0  0  0  0  0
    2.6406   -1.2889   -3.9447 C   0  0  0  0  0  0  0  0  0  0  0  0
    2.7592   -2.3928   -3.0871 C   0  0  0  0  0  0  0  0  0  0  0  0
    3.6472   -2.3321   -1.9837 C   0  0  0  0  0  0  0  0  0  0  0  0
    6.0696   -2.4770   -0.2833 C   0  0  2  0  0  0  0  0  0  0  0  0
    8.7419   -3.0303   -2.2434 H   0  0  0  0  0  0  0  0  0  0  0  0
    8.6006   -1.9311   -0.8445 H   0  0  0  0  0  0  0  0  0  0  0  0
    7.6937   -1.6423   -2.3656 H   0  0  0  0  0  0  0  0  0  0  0  0
    5.8547   -2.7561   -3.1113 H   0  0  0  0  0  0  0  0  0  0  0  0
    6.8407   -4.2429   -3.0631 H   0  0  0  0  0  0  0  0  0  0  0  0
    4.3938   -4.6121   -3.0217 H   0  0  0  0  0  0  0  0  0  0  0  0
    5.1266   -5.3330   -1.6467 H   0  0  0  0  0  0  0  0  0  0  0  0
    2.0807   -3.5706   -0.0875 H   0  0  0  0  0  0  0  0  0  0  0  0
    2.0121   -4.5684   -1.5108 H   0  0  0  0  0  0  0  0  0  0  0  0
    1.9929   -5.9719    0.5134 H   0  0  0  0  0  0  0  0  0  0  0  0
    3.4448   -6.3147   -0.3754 H   0  0  0  0  0  0  0  0  0  0  0  0
    3.2497   -4.6173    2.0975 H   0  0  0  0  0  0  0  0  0  0  0  0
    4.6563   -6.9892    1.4523 H   0  0  0  0  0  0  0  0  0  0  0  0
    5.6259   -4.1759    1.9304 H   0  0  0  0  0  0  0  0  0  0  0  0
    5.8084   -5.1627    0.5034 H   0  0  0  0  0  0  0  0  0  0  0  0
    3.6865    0.9141    0.5179 H   0  0  0  0  0  0  0  0  0  0  0  0
    2.8311   -0.0708    1.7145 H   0  0  0  0  0  0  0  0  0  0  0  0
    2.6236   -0.4215    0.0143 H   0  0  0  0  0  0  0  0  0  0  0  0
    5.8721    0.3061    1.8840 H   0  0  0  0  0  0  0  0  0  0  0  0
    6.1811   -1.3712    2.2666 H   0  0  0  0  0  0  0  0  0  0  0  0
    4.7772   -0.5831    2.9057 H   0  0  0  0  0  0  0  0  0  0  0  0
    6.0949   -0.3085   -0.6325 H   0  0  0  0  0  0  0  0  0  0  0  0
    4.9109    0.7682   -2.6722 H   0  0  0  0  0  0  0  0  0  0  0  0
    3.2935    0.7539   -4.3248 H   0  0  0  0  0  0  0  0  0  0  0  0
    1.9020   -1.2463   -4.7101 H   0  0  0  0  0  0  0  0  0  0  0  0
    2.1460   -3.2629   -3.2776 H   0  0  0  0  0  0  0  0  0  0  0  0
    6.7183   -2.3648    0.5833 H   0  0  0  0  0  0  0  0  0  0  0  0
  1  2  1  0
  1 24  1  0
  1 25  1  0
  1 26  1  0
  2 23  1  0
  2  3  1  0
  3  4  1  0
  3 27  1  0
  3 28  1  0
  5  4  1  6
  4 29  1  0
  4 30  1  0
  5 11  1  0
  5 22  1  0
  5  6  1  0
  6  7  1  0
  6 31  1  0
  6 32  1  0
  7  8  1  0
  7 33  1  0
  7 34  1  0
  8  9  1  0
  8 10  1  0
  8 35  1  1
  9 36  1  0
 10 11  1  0
 10 37  1  0
 10 38  1  0
 11 23  1  0
 11 12  1  1
 12 13  1  0
 13 14  1  0
 13 15  1  0
 13 16  1  0
 14 39  1  0
 14 40  1  0
 14 41  1  0
 15 42  1  0
 15 43  1  0
 15 44  1  0
 16 17  1  0
 16 23  1  0
 16 45  1  6
 17 22  2  0
 17 18  1  0
 18 19  2  0
 18 46  1  0
 19 20  1  0
 19 47  1  0
 20 21  2  0
 20 48  1  0
 21 22  1  0
 21 49  1  0
 23 50  1  1
M  END
>  <i_m_ct_stereo_status>  (323) 
1

>  <s_m_source_file>  (323) 
/var/tmp/pbs.5076255.sched01/tmprcd7yfff/907v12ihtf.sdf

>  <i_m_source_file_index>  (323) 
45

>  <i_lp_mmshare_version>  (323) 
48012

>  <i_f3d_flags>  (323) 
0

>  <s_epik_input>  (323) 
W0NIMl0xW0NIMl1bQ0BASF0oW09IXSlbQ0gyXVtDQF0yKFtDQF0xMzQpW0NAQEhdKE4oW0NIM10pW0NIMl1bQ0gyXTMpW0NASF0oQyhPMikoW0NIM10pW0NIM10pYzVjNFtjSF1bY0hdW2NIXVtjSF01

>  <s_epik_cmdline>  (323) 
J2VwaWtfcHl0aG9uJywgJy1waHQnLCAnMi4wJywgJy1waCcsICc3LjAnLCAnLXRuJywgJzgnLCAnLW1hJywgJzIwMCcsICctaW1hZScsICc8aW5maWxlLm1hZT4nLCAnLW9tYWUnLCAnPG91dGZpbGUubWFlPic=

>  <r_epik_Ionization_Penalty>  (323) 
1.01834

>  <r_epik_Ionization_Penalty_Charging>  (323) 
0

>  <r_epik_Ionization_Penalty_Neutral>  (323) 
1.01834

>  <r_epik_State_Penalty>  (323) 
1.0684

>  <r_epik_Charging_Adjusted_Penalty>  (323) 
1.0684

>  <i_epik_Tot_Q>  (323) 
0

>  <i_epik_Tot_abs_Q>  (323) 
0

>  <s_lp_Force_Field>  (323) 
OPLS3e

>  <r_lp_Energy>  (323) 
57.5497

>  <b_lp_Chiralities_Consistent>  (323) 
1

>  <s_lp_Variant>  (323) 
91:0-2

>  <s_i_glide_gridfile>  (323) 
pfpi4k_grid

>  <i_i_glide_lignum>  (323) 
45

>  <i_i_glide_rotatable_bonds>  (323) 
1

>  <r_i_docking_score>  (323) 
-2.61413

>  <r_i_glide_ligand_efficiency>  (323) 
-0.113658

>  <r_i_glide_ligand_efficiency_sa>  (323) 
-0.323228

>  <r_i_glide_ligand_efficiency_ln>  (323) 
-0.63212

>  <r_i_glide_gscore>  (323) 
-2.61413

>  <r_i_glide_lipo>  (323) 
-0.867652

>  <r_i_glide_hbond>  (323) 
0

>  <r_i_glide_metal>  (323) 
-0

>  <r_i_glide_rewards>  (323) 
-1.27204

>  <r_i_glide_evdw>  (323) 
-7.2886

>  <r_i_glide_ecoul>  (323) 
-0.733359

>  <r_i_glide_erotb>  (323) 
0

>  <r_i_glide_esite>  (323) 
0

>  <r_i_glide_emodel>  (323) 
-10.0309

>  <r_i_glide_energy>  (323) 
-8.02196

>  <r_i_glide_einternal>  (323) 
0.00015603

>  <r_i_glide_intrahb_reward>  (323) 
-0

>  <i_i_glide_confnum>  (323) 
2

>  <i_i_glide_posenum>  (323) 
28

>  <r_i_glide_eff_state_penalty>  (323) 
0

>  <ligand_id>  (323) 
91

>  <original_smiles>  (323) 
CN1CCC23CCC(O)CC24OC(C)(C)C(c2ccccc23)C14

>  <smiles>  (323) 
[H]OC1([H])C([H])([H])C([H])([H])C23c4c([H])c([H])c([H])c([H])c4C4([H])C([H])(N(C([H])([H])[H])C([H])([H])C2([H])[H])C3(OC4(C([H])([H])[H])C([H])([H])[H])C1([H])[H]

$$$$
92:1:0
     RDKit          3D

 63 69  0  0  1  0  0  0  0  0999 V2000
    3.1947    2.3459    5.6179 C   0  0  0  0  0  0  0  0  0  0  0  0
    2.0580    2.0101    4.9752 C   0  0  0  0  0  0  0  0  0  0  0  0
    0.8843    2.9918    4.8467 C   0  0  0  0  0  0  0  0  0  0  0  0
   -0.1055    2.5491    3.7545 C   0  0  1  0  0  0  0  0  0  0  0  0
    0.6517    2.0975    2.5002 C   0  0  0  0  0  0  0  0  0  0  0  0
    1.5375    0.8722    2.7685 C   0  0  0  0  0  0  0  0  0  0  0  0
    1.8891    0.6608    4.2665 C   0  0  2  0  0  0  0  0  0  0  0  0
    0.9510   -0.3233    5.0407 C   0  0  1  0  0  0  0  0  0  0  0  0
    0.5272   -1.6486    4.3608 C   0  0  0  0  0  0  0  0  0  0  0  0
    0.7127   -2.3929    5.6905 C   0  0  1  0  0  0  0  0  0  0  0  0
    1.3166   -3.8076    5.7109 C   0  0  1  0  0  0  0  0  0  0  0  0
    0.4933   -4.7864    4.8610 C   0  0  0  0  0  0  0  0  0  0  0  0
    1.4100   -5.1380    3.7280 C   0  0  0  0  0  0  0  0  0  0  0  0
    2.6623   -4.6903    3.8802 C   0  0  0  0  0  0  0  0  0  0  0  0
    3.7632   -5.0400    2.9429 C   0  0  0  0  0  0  0  0  0  0  0  0
    5.0750   -4.5656    3.1155 C   0  0  0  0  0  0  0  0  0  0  0  0
    6.0956   -4.9118    2.3114 N   0  0  0  0  0  0  0  0  0  0  0  0
    5.8083   -5.7406    1.3149 C   0  0  0  0  0  0  0  0  0  0  0  0
    4.6178   -6.2657    1.0401 N   0  0  0  0  0  0  0  0  0  0  0  0
    3.5953   -5.9229    1.8509 C   0  0  0  0  0  0  0  0  0  0  0  0
    2.8016   -3.9252    5.2068 C   0  0  2  0  0  0  0  0  0  0  0  0
    3.6037   -4.8264    6.1734 C   0  0  0  0  0  0  0  0  0  0  0  0
    3.5087   -2.5328    5.1045 C   0  0  0  0  0  0  0  0  0  0  0  0
    3.0865   -1.5346    6.1958 C   0  0  0  0  0  0  0  0  0  0  0  0
    1.5909   -1.2192    6.1569 C   0  0  1  0  0  0  0  0  0  0  0  0
   -0.1512    0.3728    5.6861 O   0  0  0  0  0  0  0  0  0  0  0  0
   -1.2712    0.5720    4.8279 N   0  0  0  0  0  0  0  0  0  0  0  0
   -1.2383    1.6613    4.1900 C   0  0  0  0  0  0  0  0  0  0  0  0
   -2.1254    2.4517    3.5653 C   0  0  0  0  0  0  0  0  0  0  0  0
   -3.4389    2.6163    3.1626 C   0  0  0  0  0  0  0  0  0  0  0  0
   -4.0894    3.7819    2.3171 C   0  0  0  0  0  0  0  0  0  0  0  0
   -1.1354    3.4733    3.3596 O   0  0  0  0  0  0  0  0  0  0  0  0
    3.3049    3.3116    6.0870 H   0  0  0  0  0  0  0  0  0  0  0  0
    4.0351    1.6700    5.6876 H   0  0  0  0  0  0  0  0  0  0  0  0
    0.3974    3.1088    5.8121 H   0  0  0  0  0  0  0  0  0  0  0  0
    1.2961    3.9687    4.5881 H   0  0  0  0  0  0  0  0  0  0  0  0
   -0.0166    1.8951    1.6634 H   0  0  0  0  0  0  0  0  0  0  0  0
    1.2838    2.9186    2.1490 H   0  0  0  0  0  0  0  0  0  0  0  0
    1.0550   -0.0089    2.3516 H   0  0  0  0  0  0  0  0  0  0  0  0
    2.4578    0.9794    2.1878 H   0  0  0  0  0  0  0  0  0  0  0  0
    2.8736    0.1957    4.2224 H   0  0  0  0  0  0  0  0  0  0  0  0
   -0.4732   -1.6948    3.9342 H   0  0  0  0  0  0  0  0  0  0  0  0
    1.2411   -1.9712    3.6036 H   0  0  0  0  0  0  0  0  0  0  0  0
   -0.2329   -2.3879    6.2355 H   0  0  0  0  0  0  0  0  0  0  0  0
    1.2771   -4.1430    6.7466 H   0  0  0  0  0  0  0  0  0  0  0  0
    0.2458   -5.6829    5.4309 H   0  0  0  0  0  0  0  0  0  0  0  0
   -0.4323   -4.3519    4.4929 H   0  0  0  0  0  0  0  0  0  0  0  0
    1.0546   -5.7605    2.9201 H   0  0  0  0  0  0  0  0  0  0  0  0
    5.3514   -3.9212    3.9212 H   0  0  0  0  0  0  0  0  0  0  0  0
    6.6279   -6.0087    0.6672 H   0  0  0  0  0  0  0  0  0  0  0  0
    2.6469   -6.3793    1.6208 H   0  0  0  0  0  0  0  0  0  0  0  0
    3.6780   -4.3931    7.1695 H   0  0  0  0  0  0  0  0  0  0  0  0
    4.6229   -4.9975    5.8278 H   0  0  0  0  0  0  0  0  0  0  0  0
    3.1382   -5.8069    6.2778 H   0  0  0  0  0  0  0  0  0  0  0  0
    4.5860   -2.6234    5.2050 H   0  0  0  0  0  0  0  0  0  0  0  0
    3.3518   -2.0839    4.1255 H   0  0  0  0  0  0  0  0  0  0  0  0
    3.3377   -1.9607    7.1683 H   0  0  0  0  0  0  0  0  0  0  0  0
    3.6832   -0.6260    6.1320 H   0  0  0  0  0  0  0  0  0  0  0  0
    1.2937   -0.8532    7.1414 H   0  0  0  0  0  0  0  0  0  0  0  0
   -2.9541    3.3119    2.6927 H   0  0  0  0  0  0  0  0  0  0  0  0
   -4.3956    3.4815    1.2986 H   0  0  0  0  0  0  0  0  0  0  0  0
   -3.4976    4.7590    2.0857 H   0  0  0  0  0  0  0  0  0  0  0  0
   -4.9667    4.1509    2.8255 H   0  0  0  0  0  0  0  0  0  0  0  0
  1  2  2  0
  1 33  1  0
  1 34  1  0
  2  7  1  0
  2  3  1  0
  3  4  1  0
  3 35  1  0
  3 36  1  0
  4 28  1  0
  4 32  1  6
  4  5  1  0
  5  6  1  0
  5 37  1  0
  5 38  1  0
  6  7  1  0
  6 39  1  0
  6 40  1  0
  7  8  1  0
  7 41  1  6
  8 25  1  0
  8  9  1  6
  8 26  1  0
  9 10  1  0
  9 42  1  0
  9 43  1  0
 10 25  1  0
 10 11  1  0
 10 44  1  1
 11 21  1  0
 11 12  1  0
 11 45  1  1
 12 13  1  0
 12 46  1  0
 12 47  1  0
 13 14  2  0
 13 48  1  0
 14 15  1  0
 14 21  1  0
 15 20  1  0
 15 16  2  0
 16 17  1  0
 16 49  1  0
 17 18  2  0
 18 19  1  0
 18 50  1  0
 19 20  2  0
 20 51  1  0
 21 22  1  1
 21 23  1  0
 22 52  1  0
 22 53  1  0
 22 54  1  0
 23 24  1  0
 23 55  1  0
 23 56  1  0
 24 25  1  0
 24 57  1  0
 24 58  1  0
 25 59  1  1
 26 27  1  0
 27 28  2  3
 28 29  1  0
 29 30  2  3
 29 32  1  0
 30 31  1  0
 30 60  1  0
 31 61  1  0
 31 62  1  0
 31 63  1  0
M  END
>  <i_m_ct_stereo_status>  (324) 
1

>  <s_m_source_file>  (324) 
/var/tmp/pbs.5076255.sched01/tmpxmhsyh4a/135ajud44o5.sdf

>  <i_m_source_file_index>  (324) 
2

>  <i_lp_mmshare_version>  (324) 
48012

>  <i_f3d_flags>  (324) 
3

>  <s_epik_input>  (324) 
W0NIM11cW0NIXT1DKE8xKVxDKFxbQ0BdMTIzKT1OXE9bQ0BAXTQoW0NAQEhdKEMoPVtDSDJdKVtDSDJdMilbQ0gyXVtDSDJdMylbQ0BIXTVbQ0BASF0oW0NIMl00KVtDQEhdNltDQEBdKFtDSDNdKShbQ0gyXVtDSDJdNSlDKD1bQ0hdW0NIMl02KWM3W2NIXW5bY0hdbltjSF03

>  <s_epik_cmdline>  (324) 
J2VwaWtfcHl0aG9uJywgJy1waHQnLCAnMi4wJywgJy1waCcsICc3LjAnLCAnLXRuJywgJzgnLCAnLW1hJywgJzIwMCcsICctaW1hZScsICc8aW5maWxlLm1hZT4nLCAnLW9tYWUnLCAnPG91dGZpbGUubWFlPic=

>  <r_lp_tautomer_probability>  (324) 
1

>  <r_epik_Ionization_Penalty>  (324) 
3.74624e-06

>  <r_epik_Ionization_Penalty_Charging>  (324) 
0

>  <r_epik_Ionization_Penalty_Neutral>  (324) 
3.74624e-06

>  <r_epik_State_Penalty>  (324) 
-0

>  <r_epik_Charging_Adjusted_Penalty>  (324) 
0

>  <i_epik_Tot_Q>  (324) 
0

>  <i_epik_Tot_abs_Q>  (324) 
0

>  <s_epik_Chemistry_Notes>  (324) 
This compound contains an electron-poor aromatic ring that is susceptible to covalent hydrolysis at low pH, typically resulting in measured values for nitrogen ring protonation that are around two units higher than predicted values. This compound has an imine and may undergo hydrolysis.

>  <s_lp_Force_Field>  (324) 
OPLS3e

>  <r_lp_Energy>  (324) 
68.1267

>  <b_lp_Chiralities_Consistent>  (324) 
0

>  <s_lp_Variant>  (324) 
92:0-2

>  <s_i_glide_gridfile>  (324) 
pfpi4k_grid

>  <i_i_glide_lignum>  (324) 
2

>  <i_i_glide_rotatable_bonds>  (324) 
1

>  <r_i_docking_score>  (324) 
1.27802

>  <r_i_glide_ligand_efficiency>  (324) 
0.0399382

>  <r_i_glide_ligand_efficiency_sa>  (324) 
0.126796

>  <r_i_glide_ligand_efficiency_ln>  (324) 
0.286184

>  <r_i_glide_gscore>  (324) 
1.27802

>  <r_i_glide_lipo>  (324) 
-0.301958

>  <r_i_glide_hbond>  (324) 
0

>  <r_i_glide_metal>  (324) 
-0

>  <r_i_glide_rewards>  (324) 
-0.590121

>  <r_i_glide_evdw>  (324) 
-22.4902

>  <r_i_glide_ecoul>  (324) 
-0.517493

>  <r_i_glide_erotb>  (324) 
0.107706

>  <r_i_glide_esite>  (324) 
-0.0693877

>  <r_i_glide_emodel>  (324) 
-9.44266

>  <r_i_glide_energy>  (324) 
-23.0076

>  <r_i_glide_einternal>  (324) 
0.00302057

>  <r_i_glide_intrahb_reward>  (324) 
-0

>  <i_i_glide_confnum>  (324) 
3

>  <i_i_glide_posenum>  (324) 
8

>  <r_i_glide_eff_state_penalty>  (324) 
0

>  <ligand_id>  (324) 
92

>  <original_smiles>  (324) 
C=C1CC23CCC1C1(CC4C5CC=C(c6cncnc6)C5(C)CCC41)ON=C2C(=CC)O3

>  <smiles>  (324) 
[H]C([H])=C1C([H])([H])C23OC(=C([H])C([H])([H])[H])C2=NOC2(C([H])([H])C4([H])C2([H])C([H])([H])C([H])([H])C2(C([H])([H])[H])C(c5c([H])nc([H])nc5[H])=C([H])C([H])([H])C42[H])C1([H])C([H])([H])C3([H])[H]

$$$$
92:1:1
     RDKit          3D

 63 69  0  0  1  0  0  0  0  0999 V2000
    6.1862   -2.7508    6.1197 C   0  0  0  0  0  0  0  0  0  0  0  0
    5.1037   -2.0953    5.6583 C   0  0  0  0  0  0  0  0  0  0  0  0
    5.0956   -0.5668    5.4876 C   0  0  0  0  0  0  0  0  0  0  0  0
    3.9275   -0.0898    4.5879 C   0  0  1  0  0  0  0  0  0  0  0  0
    3.8229   -1.0065    3.3523 C   0  0  0  0  0  0  0  0  0  0  0  0
    3.4916   -2.4600    3.7328 C   0  0  0  0  0  0  0  0  0  0  0  0
    3.8364   -2.8276    5.2015 C   0  0  2  0  0  0  0  0  0  0  0  0
    2.6531   -2.6996    6.2153 C   0  0  1  0  0  0  0  0  0  0  0  0
    1.2526   -3.2184    5.8128 C   0  0  0  0  0  0  0  0  0  0  0  0
    1.0592   -3.7972    7.2217 C   0  0  1  0  0  0  0  0  0  0  0  0
    0.3655   -5.1509    7.4153 C   0  0  1  0  0  0  0  0  0  0  0  0
   -1.0527   -5.1395    6.8239 C   0  0  0  0  0  0  0  0  0  0  0  0
   -0.9678   -6.1095    5.6815 C   0  0  0  0  0  0  0  0  0  0  0  0
    0.1831   -6.7969    5.6281 C   0  0  0  0  0  0  0  0  0  0  0  0
    0.4121   -7.8862    4.6445 C   0  0  0  0  0  0  0  0  0  0  0  0
   -0.6075   -8.3278    3.7681 C   0  0  0  0  0  0  0  0  0  0  0  0
   -0.4245   -9.3145    2.8785 N   0  0  0  0  0  0  0  0  0  0  0  0
    0.7705   -9.9023    2.8724 C   0  0  0  0  0  0  0  0  0  0  0  0
    1.8100   -9.5845    3.6377 N   0  0  0  0  0  0  0  0  0  0  0  0
    1.6313   -8.5887    4.5214 C   0  0  0  0  0  0  0  0  0  0  0  0
    1.1002   -6.3952    6.7909 C   0  0  2  0  0  0  0  0  0  0  0  0
    1.0955   -7.5634    7.8049 C   0  0  0  0  0  0  0  0  0  0  0  0
    2.5760   -6.0787    6.3869 C   0  0  0  0  0  0  0  0  0  0  0  0
    3.2818   -5.0899    7.3361 C   0  0  0  0  0  0  0  0  0  0  0  0
    2.5857   -3.7293    7.3957 C   0  0  1  0  0  0  0  0  0  0  0  0
    2.6319   -1.3937    6.8492 O   0  0  0  0  0  0  0  0  0  0  0  0
    1.9059   -0.4220    6.0950 N   0  0  0  0  0  0  0  0  0  0  0  0
    2.6288    0.2329    5.2697 C   0  0  0  0  0  0  0  0  0  0  0  0
    2.5350    1.3830    4.6143 C   0  0  0  0  0  0  0  0  0  0  0  0
    1.7533    2.4656    4.3115 C   0  0  0  0  0  0  0  0  0  0  0  0
    2.1143    3.7211    3.3797 C   0  0  0  0  0  0  0  0  0  0  0  0
    3.9024    1.2730    4.1542 O   0  0  0  0  0  0  0  0  0  0  0  0
    7.0768   -2.2170    6.4161 H   0  0  0  0  0  0  0  0  0  0  0  0
    6.2075   -3.8256    6.2130 H   0  0  0  0  0  0  0  0  0  0  0  0
    5.0672   -0.0895    6.4659 H   0  0  0  0  0  0  0  0  0  0  0  0
    6.0463   -0.2774    5.0313 H   0  0  0  0  0  0  0  0  0  0  0  0
    3.0904   -0.6368    2.6377 H   0  0  0  0  0  0  0  0  0  0  0  0
    4.7725   -0.9899    2.8110 H   0  0  0  0  0  0  0  0  0  0  0  0
    2.4433   -2.6496    3.5201 H   0  0  0  0  0  0  0  0  0  0  0  0
    4.0321   -3.1237    3.0537 H   0  0  0  0  0  0  0  0  0  0  0  0
    4.0859   -3.8889    5.1363 H   0  0  0  0  0  0  0  0  0  0  0  0
    0.5148   -2.4801    5.5019 H   0  0  0  0  0  0  0  0  0  0  0  0
    1.3067   -3.9976    5.0506 H   0  0  0  0  0  0  0  0  0  0  0  0
    0.5800   -3.0429    7.8531 H   0  0  0  0  0  0  0  0  0  0  0  0
    0.2810   -5.3068    8.4903 H   0  0  0  0  0  0  0  0  0  0  0  0
   -1.7802   -5.4930    7.5585 H   0  0  0  0  0  0  0  0  0  0  0  0
   -1.3753   -4.1574    6.4835 H   0  0  0  0  0  0  0  0  0  0  0  0
   -1.8179   -6.2559    5.0343 H   0  0  0  0  0  0  0  0  0  0  0  0
   -1.5849   -7.8721    3.7606 H   0  0  0  0  0  0  0  0  0  0  0  0
    0.9162  -10.6987    2.1600 H   0  0  0  0  0  0  0  0  0  0  0  0
    2.4895   -8.3659    5.1212 H   0  0  0  0  0  0  0  0  0  0  0  0
    1.6624   -7.3217    8.7037 H   0  0  0  0  0  0  0  0  0  0  0  0
    1.5325   -8.4694    7.3866 H   0  0  0  0  0  0  0  0  0  0  0  0
    0.0809   -7.8134    8.1164 H   0  0  0  0  0  0  0  0  0  0  0  0
    3.1839   -6.9783    6.3852 H   0  0  0  0  0  0  0  0  0  0  0  0
    2.6306   -5.6953    5.3703 H   0  0  0  0  0  0  0  0  0  0  0  0
    3.2997   -5.5276    8.3354 H   0  0  0  0  0  0  0  0  0  0  0  0
    4.3294   -4.9846    7.0633 H   0  0  0  0  0  0  0  0  0  0  0  0
    2.8679   -3.2428    8.3347 H   0  0  0  0  0  0  0  0  0  0  0  0
    2.5370    2.5540    3.7307 H   0  0  0  0  0  0  0  0  0  0  0  0
    1.5092    3.7464    2.4734 H   0  0  0  0  0  0  0  0  0  0  0  0
    3.1747    3.8656    2.9397 H   0  0  0  0  0  0  0  0  0  0  0  0
    1.9688    4.6357    3.9185 H   0  0  0  0  0  0  0  0  0  0  0  0
  1  2  2  0
  1 33  1  0
  1 34  1  0
  2  7  1  0
  2  3  1  0
  3  4  1  0
  3 35  1  0
  3 36  1  0
  4 28  1  0
  4 32  1  6
  4  5  1  0
  5  6  1  0
  5 37  1  0
  5 38  1  0
  6  7  1  0
  6 39  1  0
  6 40  1  0
  7  8  1  0
  7 41  1  6
  8 25  1  0
  8  9  1  6
  8 26  1  0
  9 10  1  0
  9 42  1  0
  9 43  1  0
 10 25  1  0
 10 11  1  0
 10 44  1  1
 11 21  1  0
 11 12  1  0
 11 45  1  1
 12 13  1  0
 12 46  1  0
 12 47  1  0
 13 14  2  0
 13 48  1  0
 14 15  1  0
 14 21  1  0
 15 20  1  0
 15 16  2  0
 16 17  1  0
 16 49  1  0
 17 18  2  0
 18 19  1  0
 18 50  1  0
 19 20  2  0
 20 51  1  0
 21 22  1  1
 21 23  1  0
 22 52  1  0
 22 53  1  0
 22 54  1  0
 23 24  1  0
 23 55  1  0
 23 56  1  0
 24 25  1  0
 24 57  1  0
 24 58  1  0
 25 59  1  1
 26 27  1  0
 27 28  2  3
 28 29  1  0
 29 30  2  3
 29 32  1  0
 30 31  1  0
 30 60  1  0
 31 61  1  0
 31 62  1  0
 31 63  1  0
M  END
>  <i_m_ct_stereo_status>  (325) 
1

>  <s_m_source_file>  (325) 
/var/tmp/pbs.5076255.sched01/tmpxmhsyh4a/135ajud44o5.sdf

>  <i_m_source_file_index>  (325) 
2

>  <i_lp_mmshare_version>  (325) 
48012

>  <i_f3d_flags>  (325) 
3

>  <s_epik_input>  (325) 
W0NIM11cW0NIXT1DKE8xKVxDKFxbQ0BdMTIzKT1OXE9bQ0BAXTQoW0NAQEhdKEMoPVtDSDJdKVtDSDJdMilbQ0gyXVtDSDJdMylbQ0BIXTVbQ0BASF0oW0NIMl00KVtDQEhdNltDQEBdKFtDSDNdKShbQ0gyXVtDSDJdNSlDKD1bQ0hdW0NIMl02KWM3W2NIXW5bY0hdbltjSF03

>  <s_epik_cmdline>  (325) 
J2VwaWtfcHl0aG9uJywgJy1waHQnLCAnMi4wJywgJy1waCcsICc3LjAnLCAnLXRuJywgJzgnLCAnLW1hJywgJzIwMCcsICctaW1hZScsICc8aW5maWxlLm1hZT4nLCAnLW9tYWUnLCAnPG91dGZpbGUubWFlPic=

>  <r_lp_tautomer_probability>  (325) 
1

>  <r_epik_Ionization_Penalty>  (325) 
3.74624e-06

>  <r_epik_Ionization_Penalty_Charging>  (325) 
0

>  <r_epik_Ionization_Penalty_Neutral>  (325) 
3.74624e-06

>  <r_epik_State_Penalty>  (325) 
-0

>  <r_epik_Charging_Adjusted_Penalty>  (325) 
0

>  <i_epik_Tot_Q>  (325) 
0

>  <i_epik_Tot_abs_Q>  (325) 
0

>  <s_epik_Chemistry_Notes>  (325) 
This compound contains an electron-poor aromatic ring that is susceptible to covalent hydrolysis at low pH, typically resulting in measured values for nitrogen ring protonation that are around two units higher than predicted values. This compound has an imine and may undergo hydrolysis.

>  <s_lp_Force_Field>  (325) 
OPLS3e

>  <r_lp_Energy>  (325) 
68.1267

>  <b_lp_Chiralities_Consistent>  (325) 
0

>  <s_lp_Variant>  (325) 
92:0-2

>  <s_i_glide_gridfile>  (325) 
pfpi4k_grid

>  <i_i_glide_lignum>  (325) 
2

>  <i_i_glide_rotatable_bonds>  (325) 
1

>  <r_i_docking_score>  (325) 
1.42115

>  <r_i_glide_ligand_efficiency>  (325) 
0.0444109

>  <r_i_glide_ligand_efficiency_sa>  (325) 
0.140996

>  <r_i_glide_ligand_efficiency_ln>  (325) 
0.318234

>  <r_i_glide_gscore>  (325) 
1.42115

>  <r_i_glide_lipo>  (325) 
-0.157302

>  <r_i_glide_hbond>  (325) 
0

>  <r_i_glide_metal>  (325) 
-0

>  <r_i_glide_rewards>  (325) 
-0.569101

>  <r_i_glide_evdw>  (325) 
-22.3394

>  <r_i_glide_ecoul>  (325) 
0.37654

>  <r_i_glide_erotb>  (325) 
0.107706

>  <r_i_glide_esite>  (325) 
-1.69647e-05

>  <r_i_glide_emodel>  (325) 
-8.54462

>  <r_i_glide_energy>  (325) 
-21.9629

>  <r_i_glide_einternal>  (325) 
0.19572

>  <r_i_glide_intrahb_reward>  (325) 
-0

>  <i_i_glide_confnum>  (325) 
4

>  <i_i_glide_posenum>  (325) 
4

>  <r_i_glide_eff_state_penalty>  (325) 
0

>  <ligand_id>  (325) 
92

>  <original_smiles>  (325) 
C=C1CC23CCC1C1(CC4C5CC=C(c6cncnc6)C5(C)CCC41)ON=C2C(=CC)O3

>  <smiles>  (325) 
[H]C([H])=C1C([H])([H])C23OC(=C([H])C([H])([H])[H])C2=NOC2(C([H])([H])C4([H])C2([H])C([H])([H])C([H])([H])C2(C([H])([H])[H])C(c5c([H])nc([H])nc5[H])=C([H])C([H])([H])C42[H])C1([H])C([H])([H])C3([H])[H]

$$$$
92:1:2
     RDKit          3D

 63 69  0  0  1  0  0  0  0  0999 V2000
    2.6740   -6.3379    9.5965 C   0  0  0  0  0  0  0  0  0  0  0  0
    2.1725   -5.5288    8.6451 C   0  0  0  0  0  0  0  0  0  0  0  0
    1.5021   -4.1904    8.9987 C   0  0  0  0  0  0  0  0  0  0  0  0
    1.3711   -3.2737    7.7701 C   0  0  1  0  0  0  0  0  0  0  0  0
    2.6870   -3.2778    6.9686 C   0  0  0  0  0  0  0  0  0  0  0  0
    3.0147   -4.6756    6.4101 C   0  0  0  0  0  0  0  0  0  0  0  0
    2.3028   -5.8441    7.1476 C   0  0  2  0  0  0  0  0  0  0  0  0
    0.9571   -6.3203    6.5032 C   0  0  1  0  0  0  0  0  0  0  0  0
    0.8799   -6.4896    4.9650 C   0  0  0  0  0  0  0  0  0  0  0  0
    0.0684   -7.7814    5.1511 C   0  0  1  0  0  0  0  0  0  0  0  0
    0.3188   -8.9824    4.2268 C   0  0  1  0  0  0  0  0  0  0  0  0
    0.0891   -8.6209    2.7496 C   0  0  0  0  0  0  0  0  0  0  0  0
    1.4566   -8.7291    2.1387 C   0  0  0  0  0  0  0  0  0  0  0  0
    2.3712   -9.2772    2.9510 C   0  0  0  0  0  0  0  0  0  0  0  0
    3.7573   -9.5833    2.5122 C   0  0  0  0  0  0  0  0  0  0  0  0
    4.5864  -10.4645    3.2353 C   0  0  0  0  0  0  0  0  0  0  0  0
    5.8201  -10.8126    2.8315 N   0  0  0  0  0  0  0  0  0  0  0  0
    6.2293  -10.2963    1.6810 C   0  0  0  0  0  0  0  0  0  0  0  0
    5.5584   -9.4460    0.9018 N   0  0  0  0  0  0  0  0  0  0  0  0
    4.3137   -9.1149    1.3008 C   0  0  0  0  0  0  0  0  0  0  0  0
    1.7481   -9.6323    4.3104 C   0  0  2  0  0  0  0  0  0  0  0  0
    1.5990  -11.1729    4.3605 C   0  0  0  0  0  0  0  0  0  0  0  0
    2.5569   -9.1588    5.5633 C   0  0  0  0  0  0  0  0  0  0  0  0
    1.6786   -8.9207    6.8109 C   0  0  0  0  0  0  0  0  0  0  0  0
    0.6084   -7.8472    6.5934 C   0  0  1  0  0  0  0  0  0  0  0  0
   -0.1938   -5.6376    7.0785 O   0  0  0  0  0  0  0  0  0  0  0  0
   -0.5034   -4.4094    6.4496 N   0  0  0  0  0  0  0  0  0  0  0  0
    0.1234   -3.3765    6.9663 C   0  0  0  0  0  0  0  0  0  0  0  0
   -0.0384   -2.0879    6.9461 C   0  0  0  0  0  0  0  0  0  0  0  0
   -0.7642   -1.0149    6.3887 C   0  0  0  0  0  0  0  0  0  0  0  0
   -0.5510    0.5318    6.7542 C   0  0  0  0  0  0  0  0  0  0  0  0
    0.9495   -1.8971    7.9771 O   0  0  0  0  0  0  0  0  0  0  0  0
    2.5965   -6.0856   10.6449 H   0  0  0  0  0  0  0  0  0  0  0  0
    3.1724   -7.2674    9.3548 H   0  0  0  0  0  0  0  0  0  0  0  0
    0.5360   -4.3767    9.4621 H   0  0  0  0  0  0  0  0  0  0  0  0
    2.1138   -3.6955    9.7547 H   0  0  0  0  0  0  0  0  0  0  0  0
    2.6795   -2.5534    6.1531 H   0  0  0  0  0  0  0  0  0  0  0  0
    3.5074   -2.9559    7.6175 H   0  0  0  0  0  0  0  0  0  0  0  0
    2.7854   -4.6944    5.3471 H   0  0  0  0  0  0  0  0  0  0  0  0
    4.0976   -4.8224    6.4553 H   0  0  0  0  0  0  0  0  0  0  0  0
    3.0124   -6.6688    7.0506 H   0  0  0  0  0  0  0  0  0  0  0  0
    0.3859   -5.7003    4.3996 H   0  0  0  0  0  0  0  0  0  0  0  0
    1.8618   -6.6747    4.5239 H   0  0  0  0  0  0  0  0  0  0  0  0
   -0.9997   -7.5472    5.1567 H   0  0  0  0  0  0  0  0  0  0  0  0
   -0.4138   -9.7365    4.5058 H   0  0  0  0  0  0  0  0  0  0  0  0
   -0.5888   -9.3373    2.2789 H   0  0  0  0  0  0  0  0  0  0  0  0
   -0.3241   -7.6231    2.6164 H   0  0  0  0  0  0  0  0  0  0  0  0
    1.6140   -8.4520    1.1052 H   0  0  0  0  0  0  0  0  0  0  0  0
    4.2895  -10.8910    4.1696 H   0  0  0  0  0  0  0  0  0  0  0  0
    7.2226  -10.5705    1.3610 H   0  0  0  0  0  0  0  0  0  0  0  0
    3.7703   -8.4566    0.6406 H   0  0  0  0  0  0  0  0  0  0  0  0
    1.0949  -11.5125    5.2610 H   0  0  0  0  0  0  0  0  0  0  0  0
    2.5412  -11.7049    4.3565 H   0  0  0  0  0  0  0  0  0  0  0  0
    1.0497  -11.5505    3.5003 H   0  0  0  0  0  0  0  0  0  0  0  0
    3.3200   -9.8887    5.8315 H   0  0  0  0  0  0  0  0  0  0  0  0
    3.1100   -8.2472    5.3517 H   0  0  0  0  0  0  0  0  0  0  0  0
    1.1882   -9.8588    7.0736 H   0  0  0  0  0  0  0  0  0  0  0  0
    2.2978   -8.6852    7.6741 H   0  0  0  0  0  0  0  0  0  0  0  0
   -0.1848   -8.0157    7.3302 H   0  0  0  0  0  0  0  0  0  0  0  0
   -0.1632   -0.5038    6.8697 H   0  0  0  0  0  0  0  0  0  0  0  0
   -0.1765    1.1247    5.8860 H   0  0  0  0  0  0  0  0  0  0  0  0
    0.2188    0.8711    7.6230 H   0  0  0  0  0  0  0  0  0  0  0  0
   -1.4953    0.9736    7.0923 H   0  0  0  0  0  0  0  0  0  0  0  0
  1  2  2  0
  1 33  1  0
  1 34  1  0
  2  7  1  0
  2  3  1  0
  3  4  1  0
  3 35  1  0
  3 36  1  0
  4 28  1  0
  4 32  1  1
  4  5  1  0
  5  6  1  0
  5 37  1  0
  5 38  1  0
  6  7  1  0
  6 39  1  0
  6 40  1  0
  7  8  1  0
  7 41  1  1
  8 25  1  0
  8  9  1  6
  8 26  1  0
  9 10  1  0
  9 42  1  0
  9 43  1  0
 10 25  1  0
 10 11  1  0
 10 44  1  1
 11 21  1  0
 11 12  1  0
 11 45  1  1
 12 13  1  0
 12 46  1  0
 12 47  1  0
 13 14  2  0
 13 48  1  0
 14 15  1  0
 14 21  1  0
 15 20  1  0
 15 16  2  0
 16 17  1  0
 16 49  1  0
 17 18  2  0
 18 19  1  0
 18 50  1  0
 19 20  2  0
 20 51  1  0
 21 22  1  1
 21 23  1  0
 22 52  1  0
 22 53  1  0
 22 54  1  0
 23 24  1  0
 23 55  1  0
 23 56  1  0
 24 25  1  0
 24 57  1  0
 24 58  1  0
 25 59  1  1
 26 27  1  0
 27 28  2  3
 28 29  1  0
 29 30  2  3
 29 32  1  0
 30 31  1  0
 30 60  1  0
 31 61  1  0
 31 62  1  0
 31 63  1  0
M  END
>  <i_m_ct_stereo_status>  (326) 
1

>  <s_m_source_file>  (326) 
/var/tmp/pbs.5076255.sched01/tmpxmhsyh4a/135ajud44o5.sdf

>  <i_m_source_file_index>  (326) 
2

>  <i_lp_mmshare_version>  (326) 
48012

>  <i_f3d_flags>  (326) 
3

>  <s_epik_input>  (326) 
W0NIM11cW0NIXT1DKE8xKVxDKFxbQ0BdMTIzKT1OXE9bQ0BAXTQoW0NAQEhdKEMoPVtDSDJdKVtDSDJdMilbQ0gyXVtDSDJdMylbQ0BIXTVbQ0BASF0oW0NIMl00KVtDQEhdNltDQEBdKFtDSDNdKShbQ0gyXVtDSDJdNSlDKD1bQ0hdW0NIMl02KWM3W2NIXW5bY0hdbltjSF03

>  <s_epik_cmdline>  (326) 
J2VwaWtfcHl0aG9uJywgJy1waHQnLCAnMi4wJywgJy1waCcsICc3LjAnLCAnLXRuJywgJzgnLCAnLW1hJywgJzIwMCcsICctaW1hZScsICc8aW5maWxlLm1hZT4nLCAnLW9tYWUnLCAnPG91dGZpbGUubWFlPic=

>  <r_lp_tautomer_probability>  (326) 
1

>  <r_epik_Ionization_Penalty>  (326) 
3.74624e-06

>  <r_epik_Ionization_Penalty_Charging>  (326) 
0

>  <r_epik_Ionization_Penalty_Neutral>  (326) 
3.74624e-06

>  <r_epik_State_Penalty>  (326) 
-0

>  <r_epik_Charging_Adjusted_Penalty>  (326) 
0

>  <i_epik_Tot_Q>  (326) 
0

>  <i_epik_Tot_abs_Q>  (326) 
0

>  <s_epik_Chemistry_Notes>  (326) 
This compound contains an electron-poor aromatic ring that is susceptible to covalent hydrolysis at low pH, typically resulting in measured values for nitrogen ring protonation that are around two units higher than predicted values. This compound has an imine and may undergo hydrolysis.

>  <s_lp_Force_Field>  (326) 
OPLS3e

>  <r_lp_Energy>  (326) 
68.1267

>  <b_lp_Chiralities_Consistent>  (326) 
0

>  <s_lp_Variant>  (326) 
92:0-2

>  <s_i_glide_gridfile>  (326) 
pfpi4k_grid

>  <i_i_glide_lignum>  (326) 
2

>  <i_i_glide_rotatable_bonds>  (326) 
1

>  <r_i_docking_score>  (326) 
2.26825

>  <r_i_glide_ligand_efficiency>  (326) 
0.0708828

>  <r_i_glide_ligand_efficiency_sa>  (326) 
0.225039

>  <r_i_glide_ligand_efficiency_ln>  (326) 
0.507923

>  <r_i_glide_gscore>  (326) 
2.26825

>  <r_i_glide_lipo>  (326) 
-0.0137373

>  <r_i_glide_hbond>  (326) 
0

>  <r_i_glide_metal>  (326) 
-0

>  <r_i_glide_rewards>  (326) 
-0.480314

>  <r_i_glide_evdw>  (326) 
-25.3765

>  <r_i_glide_ecoul>  (326) 
-2.20243

>  <r_i_glide_erotb>  (326) 
0.107706

>  <r_i_glide_esite>  (326) 
-0.0870465

>  <r_i_glide_emodel>  (326) 
-9.81705

>  <r_i_glide_energy>  (326) 
-27.5789

>  <r_i_glide_einternal>  (326) 
0.402652

>  <r_i_glide_intrahb_reward>  (326) 
-0

>  <i_i_glide_confnum>  (326) 
4

>  <i_i_glide_posenum>  (326) 
16

>  <r_i_glide_eff_state_penalty>  (326) 
0

>  <ligand_id>  (326) 
92

>  <original_smiles>  (326) 
C=C1CC23CCC1C1(CC4C5CC=C(c6cncnc6)C5(C)CCC41)ON=C2C(=CC)O3

>  <smiles>  (326) 
[H]C([H])=C1C([H])([H])C23OC(=C([H])C([H])([H])[H])C2=NOC2(C([H])([H])C4([H])C2([H])C([H])([H])C([H])([H])C2(C([H])([H])[H])C(c5c([H])nc([H])nc5[H])=C([H])C([H])([H])C42[H])C1([H])C([H])([H])C3([H])[H]

$$$$
92:2:0
     RDKit          3D

 63 69  0  0  1  0  0  0  0  0999 V2000
    3.0227    3.0851    3.5252 C   0  0  0  0  0  0  0  0  0  0  0  0
    1.7728    2.7865    3.8984 C   0  0  0  0  0  0  0  0  0  0  0  0
    0.6599    3.7589    3.6777 C   0  0  0  0  0  0  0  0  0  0  0  0
   -0.5641    3.4529    4.5140 C   0  0  2  0  0  0  0  0  0  0  0  0
   -0.2362    3.0393    5.9419 C   0  0  0  0  0  0  0  0  0  0  0  0
    0.7665    1.8593    5.9840 C   0  0  0  0  0  0  0  0  0  0  0  0
    1.4003    1.5004    4.6132 C   0  0  1  0  0  0  0  0  0  0  0  0
    0.5420    0.5191    3.7701 C   0  0  1  0  0  0  0  0  0  0  0  0
    0.7118    0.4561    2.2241 C   0  0  0  0  0  0  0  0  0  0  0  0
    1.6233   -0.7481    2.3870 C   0  0  1  0  0  0  0  0  0  0  0  0
    3.1428   -0.5714    2.4112 C   0  0  2  0  0  0  0  0  0  0  0  0
    3.7495   -0.5575    1.0018 C   0  0  0  0  0  0  0  0  0  0  0  0
    4.4975   -1.8536    0.9392 C   0  0  0  0  0  0  0  0  0  0  0  0
    4.5843   -2.5118    2.1041 C   0  0  0  0  0  0  0  0  0  0  0  0
    5.3680   -3.7723    2.2538 C   0  0  0  0  0  0  0  0  0  0  0  0
    6.2960   -4.1960    1.2636 C   0  0  0  0  0  0  0  0  0  0  0  0
    7.0391   -5.3111    1.4007 N   0  0  0  0  0  0  0  0  0  0  0  0
    6.8657   -6.0155    2.5140 C   0  0  0  0  0  0  0  0  0  0  0  0
    6.0253   -5.7406    3.5018 N   0  0  0  0  0  0  0  0  0  0  0  0
    5.2730   -4.6321    3.3783 C   0  0  0  0  0  0  0  0  0  0  0  0
    3.8910   -1.7013    3.2061 C   0  0  1  0  0  0  0  0  0  0  0  0
    4.9947   -1.0687    4.0778 C   0  0  0  0  0  0  0  0  0  0  0  0
    2.9045   -2.5135    4.1132 C   0  0  0  0  0  0  0  0  0  0  0  0
    1.8133   -1.6656    4.7800 C   0  0  0  0  0  0  0  0  0  0  0  0
    0.9432   -0.9803    3.7350 C   0  0  1  0  0  0  0  0  0  0  0  0
   -0.8247    0.5885    4.1973 O   0  0  0  0  0  0  0  0  0  0  0  0
   -1.5477    1.4578    3.3721 N   0  0  0  0  0  0  0  0  0  0  0  0
   -1.5534    2.6328    3.7958 C   0  0  0  0  0  0  0  0  0  0  0  0
   -2.3021    3.7082    3.5667 C   0  0  0  0  0  0  0  0  0  0  0  0
   -3.3682    4.1038    2.8508 C   0  0  0  0  0  0  0  0  0  0  0  0
   -4.2450    3.3058    1.9101 C   0  0  0  0  0  0  0  0  0  0  0  0
   -1.4993    4.5544    4.3715 O   0  0  0  0  0  0  0  0  0  0  0  0
    3.8342    2.3998    3.7156 H   0  0  0  0  0  0  0  0  0  0  0  0
    3.2616    4.0147    3.0305 H   0  0  0  0  0  0  0  0  0  0  0  0
    1.0190    4.7637    3.8868 H   0  0  0  0  0  0  0  0  0  0  0  0
    0.4249    3.6881    2.6301 H   0  0  0  0  0  0  0  0  0  0  0  0
    0.2381    3.8952    6.4163 H   0  0  0  0  0  0  0  0  0  0  0  0
   -1.1325    2.8094    6.5239 H   0  0  0  0  0  0  0  0  0  0  0  0
    1.5810    2.1360    6.6565 H   0  0  0  0  0  0  0  0  0  0  0  0
    0.3048    0.9688    6.4224 H   0  0  0  0  0  0  0  0  0  0  0  0
    2.3528    1.0336    4.8126 H   0  0  0  0  0  0  0  0  0  0  0  0
   -0.1926    0.1997    1.6613 H   0  0  0  0  0  0  0  0  0  0  0  0
    1.2271    1.3007    1.7753 H   0  0  0  0  0  0  0  0  0  0  0  0
    1.3175   -1.5344    1.7011 H   0  0  0  0  0  0  0  0  0  0  0  0
    3.3664    0.3882    2.8657 H   0  0  0  0  0  0  0  0  0  0  0  0
    3.0078   -0.4867    0.2023 H   0  0  0  0  0  0  0  0  0  0  0  0
    4.4607    0.2610    0.8909 H   0  0  0  0  0  0  0  0  0  0  0  0
    4.9298   -2.1591   -0.0011 H   0  0  0  0  0  0  0  0  0  0  0  0
    6.4821   -3.6412    0.3563 H   0  0  0  0  0  0  0  0  0  0  0  0
    7.4540   -6.9117    2.6387 H   0  0  0  0  0  0  0  0  0  0  0  0
    4.6221   -4.4713    4.2164 H   0  0  0  0  0  0  0  0  0  0  0  0
    4.5807   -0.4051    4.8351 H   0  0  0  0  0  0  0  0  0  0  0  0
    5.6948   -0.4888    3.4701 H   0  0  0  0  0  0  0  0  0  0  0  0
    5.5741   -1.8385    4.5911 H   0  0  0  0  0  0  0  0  0  0  0  0
    2.4418   -3.3154    3.5282 H   0  0  0  0  0  0  0  0  0  0  0  0
    3.4237   -2.9646    4.9518 H   0  0  0  0  0  0  0  0  0  0  0  0
    1.2118   -2.3013    5.4292 H   0  0  0  0  0  0  0  0  0  0  0  0
    2.2962   -0.9579    5.4503 H   0  0  0  0  0  0  0  0  0  0  0  0
    0.0636   -1.5849    3.5230 H   0  0  0  0  0  0  0  0  0  0  0  0
   -3.6059    5.1376    2.8702 H   0  0  0  0  0  0  0  0  0  0  0  0
   -5.2867    3.3383    2.2247 H   0  0  0  0  0  0  0  0  0  0  0  0
   -3.8937    2.2808    1.8073 H   0  0  0  0  0  0  0  0  0  0  0  0
   -4.2255    3.7532    0.9170 H   0  0  0  0  0  0  0  0  0  0  0  0
  1  2  2  0
  1 33  1  0
  1 34  1  0
  2  7  1  0
  2  3  1  0
  3  4  1  0
  3 35  1  0
  3 36  1  0
  4 28  1  0
  4 32  1  1
  4  5  1  0
  5  6  1  0
  5 37  1  0
  5 38  1  0
  6  7  1  0
  6 39  1  0
  6 40  1  0
  7  8  1  0
  7 41  1  1
  8 25  1  0
  8  9  1  6
  8 26  1  0
  9 10  1  0
  9 42  1  0
  9 43  1  0
 10 25  1  0
 10 11  1  0
 10 44  1  6
 11 21  1  0
 11 12  1  0
 11 45  1  1
 12 13  1  0
 12 46  1  0
 12 47  1  0
 13 14  2  0
 13 48  1  0
 14 15  1  0
 14 21  1  0
 15 20  1  0
 15 16  2  0
 16 17  1  0
 16 49  1  0
 17 18  2  0
 18 19  1  0
 18 50  1  0
 19 20  2  0
 20 51  1  0
 21 22  1  1
 21 23  1  0
 22 52  1  0
 22 53  1  0
 22 54  1  0
 23 24  1  0
 23 55  1  0
 23 56  1  0
 24 25  1  0
 24 57  1  0
 24 58  1  0
 25 59  1  6
 26 27  1  0
 27 28  2  3
 28 29  1  0
 29 30  2  3
 29 32  1  0
 30 31  1  0
 30 60  1  0
 31 61  1  0
 31 62  1  0
 31 63  1  0
M  END
>  <i_m_ct_stereo_status>  (327) 
1

>  <s_m_source_file>  (327) 
/var/tmp/pbs.5076255.sched01/tmpxmhsyh4a/135ajud44o5.sdf

>  <i_m_source_file_index>  (327) 
3

>  <i_lp_mmshare_version>  (327) 
48012

>  <i_f3d_flags>  (327) 
0

>  <s_epik_input>  (327) 
W0NIM11cW0NIXT1DKE8xKVxDKFxbQ0BdMTIzKT1OXE9bQ0BAXTQoW0NAQEhdKEMoPVtDSDJdKVtDSDJdMilbQ0gyXVtDSDJdMylbQ0BIXTVbQ0BASF0oW0NIMl00KVtDQEhdNltDQEBdKFtDSDNdKShbQ0gyXVtDSDJdNSlDKD1bQ0hdW0NIMl02KWM3W2NIXW5bY0hdbltjSF03

>  <s_epik_cmdline>  (327) 
J2VwaWtfcHl0aG9uJywgJy1waHQnLCAnMi4wJywgJy1waCcsICc3LjAnLCAnLXRuJywgJzgnLCAnLW1hJywgJzIwMCcsICctaW1hZScsICc8aW5maWxlLm1hZT4nLCAnLW9tYWUnLCAnPG91dGZpbGUubWFlPic=

>  <r_lp_tautomer_probability>  (327) 
1

>  <r_epik_Ionization_Penalty>  (327) 
3.74624e-06

>  <r_epik_Ionization_Penalty_Charging>  (327) 
0

>  <r_epik_Ionization_Penalty_Neutral>  (327) 
3.74624e-06

>  <r_epik_State_Penalty>  (327) 
-0

>  <r_epik_Charging_Adjusted_Penalty>  (327) 
0

>  <i_epik_Tot_Q>  (327) 
0

>  <i_epik_Tot_abs_Q>  (327) 
0

>  <s_epik_Chemistry_Notes>  (327) 
This compound contains an electron-poor aromatic ring that is susceptible to covalent hydrolysis at low pH, typically resulting in measured values for nitrogen ring protonation that are around two units higher than predicted values. This compound has an imine and may undergo hydrolysis.

>  <s_lp_Force_Field>  (327) 
OPLS3e

>  <r_lp_Energy>  (327) 
68.8006

>  <b_lp_Chiralities_Consistent>  (327) 
1

>  <s_lp_Variant>  (327) 
92:0-3

>  <s_i_glide_gridfile>  (327) 
pfpi4k_grid

>  <i_i_glide_lignum>  (327) 
3

>  <i_i_glide_rotatable_bonds>  (327) 
1

>  <r_i_docking_score>  (327) 
-2.42437

>  <r_i_glide_ligand_efficiency>  (327) 
-0.0757615

>  <r_i_glide_ligand_efficiency_sa>  (327) 
-0.240528

>  <r_i_glide_ligand_efficiency_ln>  (327) 
-0.542882

>  <r_i_glide_gscore>  (327) 
-2.42437

>  <r_i_glide_lipo>  (327) 
-0.358376

>  <r_i_glide_hbond>  (327) 
-0.100511

>  <r_i_glide_metal>  (327) 
-0

>  <r_i_glide_rewards>  (327) 
-0.510146

>  <r_i_glide_evdw>  (327) 
-24.2302

>  <r_i_glide_ecoul>  (327) 
-1.7624

>  <r_i_glide_erotb>  (327) 
0.107706

>  <r_i_glide_esite>  (327) 
-0.0871733

>  <r_i_glide_emodel>  (327) 
-28.6669

>  <r_i_glide_energy>  (327) 
-25.9926

>  <r_i_glide_einternal>  (327) 
0.0919039

>  <r_i_glide_intrahb_reward>  (327) 
-0

>  <i_i_glide_confnum>  (327) 
4

>  <i_i_glide_posenum>  (327) 
12

>  <r_i_glide_eff_state_penalty>  (327) 
0

>  <ligand_id>  (327) 
92

>  <original_smiles>  (327) 
C=C1CC23CCC1C1(CC4C5CC=C(c6cncnc6)C5(C)CCC41)ON=C2C(=CC)O3

>  <smiles>  (327) 
[H]C([H])=C1C([H])([H])C23OC(=C([H])C([H])([H])[H])C2=NOC2(C([H])([H])C4([H])C2([H])C([H])([H])C([H])([H])C2(C([H])([H])[H])C(c5c([H])nc([H])nc5[H])=C([H])C([H])([H])C42[H])C1([H])C([H])([H])C3([H])[H]

$$$$
92:2:1
     RDKit          3D

 63 69  0  0  1  0  0  0  0  0999 V2000
    2.9699    2.1681    3.7808 C   0  0  0  0  0  0  0  0  0  0  0  0
    1.7116    2.3448    4.2162 C   0  0  0  0  0  0  0  0  0  0  0  0
    0.8157    3.3914    3.6104 C   0  0  0  0  0  0  0  0  0  0  0  0
   -0.3553    3.7461    4.5122 C   0  0  2  0  0  0  0  0  0  0  0  0
    0.0103    3.8512    5.9932 C   0  0  0  0  0  0  0  0  0  0  0  0
    0.7239    2.5794    6.5112 C   0  0  0  0  0  0  0  0  0  0  0  0
    1.1264    1.5799    5.3951 C   0  0  1  0  0  0  0  0  0  0  0  0
   -0.0093    0.5926    5.0183 C   0  0  1  0  0  0  0  0  0  0  0  0
    0.0028   -0.0960    3.6284 C   0  0  0  0  0  0  0  0  0  0  0  0
    0.6248   -1.3347    4.2522 C   0  0  1  0  0  0  0  0  0  0  0  0
    2.1408   -1.5400    4.2094 C   0  0  2  0  0  0  0  0  0  0  0  0
    2.6007   -2.2169    2.9115 C   0  0  0  0  0  0  0  0  0  0  0  0
    3.0266   -3.5784    3.3719 C   0  0  0  0  0  0  0  0  0  0  0  0
    3.0682   -3.7358    4.7022 C   0  0  0  0  0  0  0  0  0  0  0  0
    3.5724   -4.9799    5.3443 C   0  0  0  0  0  0  0  0  0  0  0  0
    4.3803   -5.9087    4.6346 C   0  0  0  0  0  0  0  0  0  0  0  0
    4.8562   -7.0288    5.2076 N   0  0  0  0  0  0  0  0  0  0  0  0
    4.5351   -7.2411    6.4778 C   0  0  0  0  0  0  0  0  0  0  0  0
    3.7828   -6.4635    7.2447 N   0  0  0  0  0  0  0  0  0  0  0  0
    3.2955   -5.3440    6.6848 C   0  0  0  0  0  0  0  0  0  0  0  0
    2.6868   -2.4207    5.3895 C   0  0  1  0  0  0  0  0  0  0  0  0
    3.9835   -1.7957    5.9456 C   0  0  0  0  0  0  0  0  0  0  0  0
    1.6370   -2.5554    6.5414 C   0  0  0  0  0  0  0  0  0  0  0  0
    0.8317   -1.2772    6.8157 C   0  0  0  0  0  0  0  0  0  0  0  0
    0.0418   -0.8562    5.5801 C   0  0  1  0  0  0  0  0  0  0  0  0
   -1.2895    1.1471    5.3736 O   0  0  0  0  0  0  0  0  0  0  0  0
   -1.8920    1.7778    4.2753 N   0  0  0  0  0  0  0  0  0  0  0  0
   -1.5692    2.9955    4.1747 C   0  0  0  0  0  0  0  0  0  0  0  0
   -2.0685    4.0453    3.5443 C   0  0  0  0  0  0  0  0  0  0  0  0
   -3.0820    4.3933    2.7257 C   0  0  0  0  0  0  0  0  0  0  0  0
   -4.1935    3.5364    2.1602 C   0  0  0  0  0  0  0  0  0  0  0  0
   -1.0264    4.9131    3.9644 O   0  0  0  0  0  0  0  0  0  0  0  0
    3.6361    1.4473    4.2363 H   0  0  0  0  0  0  0  0  0  0  0  0
    3.3637    2.7550    2.9650 H   0  0  0  0  0  0  0  0  0  0  0  0
    1.4152    4.2808    3.4384 H   0  0  0  0  0  0  0  0  0  0  0  0
    0.4763    3.0446    2.6307 H   0  0  0  0  0  0  0  0  0  0  0  0
    0.7055    4.6816    6.0979 H   0  0  0  0  0  0  0  0  0  0  0  0
   -0.8492    4.0925    6.6232 H   0  0  0  0  0  0  0  0  0  0  0  0
    1.6354    2.8886    7.0288 H   0  0  0  0  0  0  0  0  0  0  0  0
    0.1151    2.0724    7.2682 H   0  0  0  0  0  0  0  0  0  0  0  0
    1.9628    1.0121    5.7748 H   0  0  0  0  0  0  0  0  0  0  0  0
   -0.9942   -0.2768    3.2202 H   0  0  0  0  0  0  0  0  0  0  0  0
    0.6562    0.3550    2.8866 H   0  0  0  0  0  0  0  0  0  0  0  0
    0.0852   -2.2227    3.9307 H   0  0  0  0  0  0  0  0  0  0  0  0
    2.6165   -0.5659    4.2519 H   0  0  0  0  0  0  0  0  0  0  0  0
    1.8296   -2.2694    2.1388 H   0  0  0  0  0  0  0  0  0  0  0  0
    3.4698   -1.7053    2.4982 H   0  0  0  0  0  0  0  0  0  0  0  0
    3.3064   -4.3187    2.6380 H   0  0  0  0  0  0  0  0  0  0  0  0
    4.6680   -5.7651    3.6039 H   0  0  0  0  0  0  0  0  0  0  0  0
    4.9175   -8.1340    6.9449 H   0  0  0  0  0  0  0  0  0  0  0  0
    2.6782   -4.7745    7.3542 H   0  0  0  0  0  0  0  0  0  0  0  0
    3.8043   -0.8129    6.3789 H   0  0  0  0  0  0  0  0  0  0  0  0
    4.7349   -1.6803    5.1608 H   0  0  0  0  0  0  0  0  0  0  0  0
    4.4270   -2.4253    6.7201 H   0  0  0  0  0  0  0  0  0  0  0  0
    0.9499   -3.3774    6.3183 H   0  0  0  0  0  0  0  0  0  0  0  0
    2.1285   -2.7750    7.4844 H   0  0  0  0  0  0  0  0  0  0  0  0
    0.1692   -1.4446    7.6639 H   0  0  0  0  0  0  0  0  0  0  0  0
    1.5209   -0.5056    7.1510 H   0  0  0  0  0  0  0  0  0  0  0  0
   -0.9681   -1.2617    5.6161 H   0  0  0  0  0  0  0  0  0  0  0  0
   -3.0785    5.3877    2.3531 H   0  0  0  0  0  0  0  0  0  0  0  0
   -5.1692    3.9275    2.4374 H   0  0  0  0  0  0  0  0  0  0  0  0
   -4.0992    2.5334    2.5507 H   0  0  0  0  0  0  0  0  0  0  0  0
   -4.1802    3.4814    1.0755 H   0  0  0  0  0  0  0  0  0  0  0  0
  1  2  2  0
  1 33  1  0
  1 34  1  0
  2  7  1  0
  2  3  1  0
  3  4  1  0
  3 35  1  0
  3 36  1  0
  4 28  1  0
  4 32  1  6
  4  5  1  0
  5  6  1  0
  5 37  1  0
  5 38  1  0
  6  7  1  0
  6 39  1  0
  6 40  1  0
  7  8  1  0
  7 41  1  1
  8 25  1  0
  8  9  1  6
  8 26  1  0
  9 10  1  0
  9 42  1  0
  9 43  1  0
 10 25  1  0
 10 11  1  0
 10 44  1  6
 11 21  1  0
 11 12  1  0
 11 45  1  1
 12 13  1  0
 12 46  1  0
 12 47  1  0
 13 14  2  0
 13 48  1  0
 14 15  1  0
 14 21  1  0
 15 20  1  0
 15 16  2  0
 16 17  1  0
 16 49  1  0
 17 18  2  0
 18 19  1  0
 18 50  1  0
 19 20  2  0
 20 51  1  0
 21 22  1  1
 21 23  1  0
 22 52  1  0
 22 53  1  0
 22 54  1  0
 23 24  1  0
 23 55  1  0
 23 56  1  0
 24 25  1  0
 24 57  1  0
 24 58  1  0
 25 59  1  1
 26 27  1  0
 27 28  2  3
 28 29  1  0
 29 30  2  3
 29 32  1  0
 30 31  1  0
 30 60  1  0
 31 61  1  0
 31 62  1  0
 31 63  1  0
M  END
>  <i_m_ct_stereo_status>  (328) 
1

>  <s_m_source_file>  (328) 
/var/tmp/pbs.5076255.sched01/tmpxmhsyh4a/135ajud44o5.sdf

>  <i_m_source_file_index>  (328) 
3

>  <i_lp_mmshare_version>  (328) 
48012

>  <i_f3d_flags>  (328) 
0

>  <s_epik_input>  (328) 
W0NIM11cW0NIXT1DKE8xKVxDKFxbQ0BdMTIzKT1OXE9bQ0BAXTQoW0NAQEhdKEMoPVtDSDJdKVtDSDJdMilbQ0gyXVtDSDJdMylbQ0BIXTVbQ0BASF0oW0NIMl00KVtDQEhdNltDQEBdKFtDSDNdKShbQ0gyXVtDSDJdNSlDKD1bQ0hdW0NIMl02KWM3W2NIXW5bY0hdbltjSF03

>  <s_epik_cmdline>  (328) 
J2VwaWtfcHl0aG9uJywgJy1waHQnLCAnMi4wJywgJy1waCcsICc3LjAnLCAnLXRuJywgJzgnLCAnLW1hJywgJzIwMCcsICctaW1hZScsICc8aW5maWxlLm1hZT4nLCAnLW9tYWUnLCAnPG91dGZpbGUubWFlPic=

>  <r_lp_tautomer_probability>  (328) 
1

>  <r_epik_Ionization_Penalty>  (328) 
3.74624e-06

>  <r_epik_Ionization_Penalty_Charging>  (328) 
0

>  <r_epik_Ionization_Penalty_Neutral>  (328) 
3.74624e-06

>  <r_epik_State_Penalty>  (328) 
-0

>  <r_epik_Charging_Adjusted_Penalty>  (328) 
0

>  <i_epik_Tot_Q>  (328) 
0

>  <i_epik_Tot_abs_Q>  (328) 
0

>  <s_epik_Chemistry_Notes>  (328) 
This compound contains an electron-poor aromatic ring that is susceptible to covalent hydrolysis at low pH, typically resulting in measured values for nitrogen ring protonation that are around two units higher than predicted values. This compound has an imine and may undergo hydrolysis.

>  <s_lp_Force_Field>  (328) 
OPLS3e

>  <r_lp_Energy>  (328) 
68.8006

>  <b_lp_Chiralities_Consistent>  (328) 
1

>  <s_lp_Variant>  (328) 
92:0-3

>  <s_i_glide_gridfile>  (328) 
pfpi4k_grid

>  <i_i_glide_lignum>  (328) 
3

>  <i_i_glide_rotatable_bonds>  (328) 
1

>  <r_i_docking_score>  (328) 
-2.1921

>  <r_i_glide_ligand_efficiency>  (328) 
-0.0685031

>  <r_i_glide_ligand_efficiency_sa>  (328) 
-0.217484

>  <r_i_glide_ligand_efficiency_ln>  (328) 
-0.490871

>  <r_i_glide_gscore>  (328) 
-2.1921

>  <r_i_glide_lipo>  (328) 
-0.251397

>  <r_i_glide_hbond>  (328) 
-0.124693

>  <r_i_glide_metal>  (328) 
-0

>  <r_i_glide_rewards>  (328) 
-0.480314

>  <r_i_glide_evdw>  (328) 
-20.8538

>  <r_i_glide_ecoul>  (328) 
-2.11203

>  <r_i_glide_erotb>  (328) 
0.107706

>  <r_i_glide_esite>  (328) 
-0.0839064

>  <r_i_glide_emodel>  (328) 
-25.3699

>  <r_i_glide_energy>  (328) 
-22.9659

>  <r_i_glide_einternal>  (328) 
0.0967039

>  <r_i_glide_intrahb_reward>  (328) 
-0

>  <i_i_glide_confnum>  (328) 
4

>  <i_i_glide_posenum>  (328) 
40

>  <r_i_glide_eff_state_penalty>  (328) 
0

>  <ligand_id>  (328) 
92

>  <original_smiles>  (328) 
C=C1CC23CCC1C1(CC4C5CC=C(c6cncnc6)C5(C)CCC41)ON=C2C(=CC)O3

>  <smiles>  (328) 
[H]C([H])=C1C([H])([H])C23OC(=C([H])C([H])([H])[H])C2=NOC2(C([H])([H])C4([H])C2([H])C([H])([H])C([H])([H])C2(C([H])([H])[H])C(c5c([H])nc([H])nc5[H])=C([H])C([H])([H])C42[H])C1([H])C([H])([H])C3([H])[H]

$$$$
92:2:2
     RDKit          3D

 63 69  0  0  1  0  0  0  0  0999 V2000
    4.0279   -0.1392    5.9770 C   0  0  0  0  0  0  0  0  0  0  0  0
    2.7466   -0.0765    6.3715 C   0  0  0  0  0  0  0  0  0  0  0  0
    2.0866    1.2434    6.6651 C   0  0  0  0  0  0  0  0  0  0  0  0
    0.8367    1.0992    7.5360 C   0  0  2  0  0  0  0  0  0  0  0  0
    0.9815    0.0563    8.6546 C   0  0  0  0  0  0  0  0  0  0  0  0
    1.4482   -1.3216    8.1323 C   0  0  0  0  0  0  0  0  0  0  0  0
    1.8965   -1.3080    6.6462 C   0  0  1  0  0  0  0  0  0  0  0  0
    0.7264   -1.5085    5.6490 C   0  0  1  0  0  0  0  0  0  0  0  0
    0.8656   -1.0256    4.1793 C   0  0  0  0  0  0  0  0  0  0  0  0
    1.2468   -2.4343    3.7673 C   0  0  1  0  0  0  0  0  0  0  0  0
    2.7118   -2.8431    3.6233 C   0  0  2  0  0  0  0  0  0  0  0  0
    3.2838   -2.5016    2.2371 C   0  0  0  0  0  0  0  0  0  0  0  0
    3.4679   -3.8442    1.6004 C   0  0  0  0  0  0  0  0  0  0  0  0
    3.2747   -4.8839    2.4254 C   0  0  0  0  0  0  0  0  0  0  0  0
    3.5326   -6.2910    2.0033 C   0  0  0  0  0  0  0  0  0  0  0  0
    4.3645   -6.5953    0.8927 C   0  0  0  0  0  0  0  0  0  0  0  0
    4.6193   -7.8637    0.5135 N   0  0  0  0  0  0  0  0  0  0  0  0
    4.0533   -8.8323    1.2264 C   0  0  0  0  0  0  0  0  0  0  0  0
    3.2344   -8.6784    2.2590 N   0  0  0  0  0  0  0  0  0  0  0  0
    2.9688   -7.4199    2.6487 C   0  0  0  0  0  0  0  0  0  0  0  0
    2.9576   -4.3825    3.8340 C   0  0  1  0  0  0  0  0  0  0  0  0
    4.2184   -4.5898    4.7014 C   0  0  0  0  0  0  0  0  0  0  0  0
    1.7324   -5.0711    4.5190 C   0  0  0  0  0  0  0  0  0  0  0  0
    1.0477   -4.2190    5.6036 C   0  0  0  0  0  0  0  0  0  0  0  0
    0.5221   -2.9143    5.0189 C   0  0  1  0  0  0  0  0  0  0  0  0
   -0.5221   -1.1178    6.2452 O   0  0  0  0  0  0  0  0  0  0  0  0
   -0.8387    0.2132    5.8929 N   0  0  0  0  0  0  0  0  0  0  0  0
   -0.4170    1.0173    6.7286 C   0  0  0  0  0  0  0  0  0  0  0  0
   -0.6655    2.2880    7.0463 C   0  0  0  0  0  0  0  0  0  0  0  0
   -1.4818    3.2811    6.6818 C   0  0  0  0  0  0  0  0  0  0  0  0
   -2.5533    3.2878    5.6206 C   0  0  0  0  0  0  0  0  0  0  0  0
    0.4138    2.4037    7.9659 O   0  0  0  0  0  0  0  0  0  0  0  0
    4.5205   -1.0864    5.8054 H   0  0  0  0  0  0  0  0  0  0  0  0
    4.6119    0.7564    5.8309 H   0  0  0  0  0  0  0  0  0  0  0  0
    2.8055    1.8544    7.2080 H   0  0  0  0  0  0  0  0  0  0  0  0
    1.8615    1.7692    5.7334 H   0  0  0  0  0  0  0  0  0  0  0  0
    1.7464    0.4283    9.3377 H   0  0  0  0  0  0  0  0  0  0  0  0
    0.0687   -0.0394    9.2510 H   0  0  0  0  0  0  0  0  0  0  0  0
    2.2989   -1.6410    8.7369 H   0  0  0  0  0  0  0  0  0  0  0  0
    0.6760   -2.0810    8.2831 H   0  0  0  0  0  0  0  0  0  0  0  0
    2.5901   -2.1299    6.5278 H   0  0  0  0  0  0  0  0  0  0  0  0
   -0.0608   -0.7103    3.6949 H   0  0  0  0  0  0  0  0  0  0  0  0
    1.6743   -0.3233    3.9965 H   0  0  0  0  0  0  0  0  0  0  0  0
    0.6558   -2.7249    2.8963 H   0  0  0  0  0  0  0  0  0  0  0  0
    3.2950   -2.2922    4.3550 H   0  0  0  0  0  0  0  0  0  0  0  0
    2.6406   -1.8554    1.6336 H   0  0  0  0  0  0  0  0  0  0  0  0
    4.2622   -2.0296    2.3291 H   0  0  0  0  0  0  0  0  0  0  0  0
    3.7702   -3.9076    0.5651 H   0  0  0  0  0  0  0  0  0  0  0  0
    4.8554   -5.8361    0.2989 H   0  0  0  0  0  0  0  0  0  0  0  0
    4.2473   -9.8487    0.9148 H   0  0  0  0  0  0  0  0  0  0  0  0
    2.2928   -7.3678    3.4820 H   0  0  0  0  0  0  0  0  0  0  0  0
    4.0880   -4.1760    5.7004 H   0  0  0  0  0  0  0  0  0  0  0  0
    5.0898   -4.1072    4.2519 H   0  0  0  0  0  0  0  0  0  0  0  0
    4.4571   -5.6504    4.8063 H   0  0  0  0  0  0  0  0  0  0  0  0
    0.9958   -5.3476    3.7584 H   0  0  0  0  0  0  0  0  0  0  0  0
    2.0461   -5.9829    5.0230 H   0  0  0  0  0  0  0  0  0  0  0  0
    0.2442   -4.7975    6.0572 H   0  0  0  0  0  0  0  0  0  0  0  0
    1.7674   -4.0566    6.4062 H   0  0  0  0  0  0  0  0  0  0  0  0
   -0.5223   -3.0189    4.7247 H   0  0  0  0  0  0  0  0  0  0  0  0
   -1.3056    4.2403    7.1460 H   0  0  0  0  0  0  0  0  0  0  0  0
   -3.5088    3.5572    6.0681 H   0  0  0  0  0  0  0  0  0  0  0  0
   -2.6416    2.3109    5.1298 H   0  0  0  0  0  0  0  0  0  0  0  0
   -2.3326    4.0313    4.8531 H   0  0  0  0  0  0  0  0  0  0  0  0
  1  2  2  0
  1 33  1  0
  1 34  1  0
  2  7  1  0
  2  3  1  0
  3  4  1  0
  3 35  1  0
  3 36  1  0
  4 28  1  0
  4 32  1  1
  4  5  1  0
  5  6  1  0
  5 37  1  0
  5 38  1  0
  6  7  1  0
  6 39  1  0
  6 40  1  0
  7  8  1  0
  7 41  1  1
  8 25  1  0
  8  9  1  6
  8 26  1  0
  9 10  1  0
  9 42  1  0
  9 43  1  0
 10 25  1  0
 10 11  1  0
 10 44  1  6
 11 21  1  0
 11 12  1  0
 11 45  1  1
 12 13  1  0
 12 46  1  0
 12 47  1  0
 13 14  2  0
 13 48  1  0
 14 15  1  0
 14 21  1  0
 15 20  1  0
 15 16  2  0
 16 17  1  0
 16 49  1  0
 17 18  2  0
 18 19  1  0
 18 50  1  0
 19 20  2  0
 20 51  1  0
 21 22  1  1
 21 23  1  0
 22 52  1  0
 22 53  1  0
 22 54  1  0
 23 24  1  0
 23 55  1  0
 23 56  1  0
 24 25  1  0
 24 57  1  0
 24 58  1  0
 25 59  1  6
 26 27  1  0
 27 28  2  3
 28 29  1  0
 29 30  2  3
 29 32  1  0
 30 31  1  0
 30 60  1  0
 31 61  1  0
 31 62  1  0
 31 63  1  0
M  END
>  <i_m_ct_stereo_status>  (329) 
1

>  <s_m_source_file>  (329) 
/var/tmp/pbs.5076255.sched01/tmpxmhsyh4a/135ajud44o5.sdf

>  <i_m_source_file_index>  (329) 
3

>  <i_lp_mmshare_version>  (329) 
48012

>  <i_f3d_flags>  (329) 
0

>  <s_epik_input>  (329) 
W0NIM11cW0NIXT1DKE8xKVxDKFxbQ0BdMTIzKT1OXE9bQ0BAXTQoW0NAQEhdKEMoPVtDSDJdKVtDSDJdMilbQ0gyXVtDSDJdMylbQ0BIXTVbQ0BASF0oW0NIMl00KVtDQEhdNltDQEBdKFtDSDNdKShbQ0gyXVtDSDJdNSlDKD1bQ0hdW0NIMl02KWM3W2NIXW5bY0hdbltjSF03

>  <s_epik_cmdline>  (329) 
J2VwaWtfcHl0aG9uJywgJy1waHQnLCAnMi4wJywgJy1waCcsICc3LjAnLCAnLXRuJywgJzgnLCAnLW1hJywgJzIwMCcsICctaW1hZScsICc8aW5maWxlLm1hZT4nLCAnLW9tYWUnLCAnPG91dGZpbGUubWFlPic=

>  <r_lp_tautomer_probability>  (329) 
1

>  <r_epik_Ionization_Penalty>  (329) 
3.74624e-06

>  <r_epik_Ionization_Penalty_Charging>  (329) 
0

>  <r_epik_Ionization_Penalty_Neutral>  (329) 
3.74624e-06

>  <r_epik_State_Penalty>  (329) 
-0

>  <r_epik_Charging_Adjusted_Penalty>  (329) 
0

>  <i_epik_Tot_Q>  (329) 
0

>  <i_epik_Tot_abs_Q>  (329) 
0

>  <s_epik_Chemistry_Notes>  (329) 
This compound contains an electron-poor aromatic ring that is susceptible to covalent hydrolysis at low pH, typically resulting in measured values for nitrogen ring protonation that are around two units higher than predicted values. This compound has an imine and may undergo hydrolysis.

>  <s_lp_Force_Field>  (329) 
OPLS3e

>  <r_lp_Energy>  (329) 
68.8006

>  <b_lp_Chiralities_Consistent>  (329) 
1

>  <s_lp_Variant>  (329) 
92:0-3

>  <s_i_glide_gridfile>  (329) 
pfpi4k_grid

>  <i_i_glide_lignum>  (329) 
3

>  <i_i_glide_rotatable_bonds>  (329) 
1

>  <r_i_docking_score>  (329) 
-2.05712

>  <r_i_glide_ligand_efficiency>  (329) 
-0.0642849

>  <r_i_glide_ligand_efficiency_sa>  (329) 
-0.204092

>  <r_i_glide_ligand_efficiency_ln>  (329) 
-0.460645

>  <r_i_glide_gscore>  (329) 
-2.05712

>  <r_i_glide_lipo>  (329) 
-0.218316

>  <r_i_glide_hbond>  (329) 
0

>  <r_i_glide_metal>  (329) 
-0

>  <r_i_glide_rewards>  (329) 
-0.480314

>  <r_i_glide_evdw>  (329) 
-21.6621

>  <r_i_glide_ecoul>  (329) 
-1.45243

>  <r_i_glide_erotb>  (329) 
0.107706

>  <r_i_glide_esite>  (329) 
-0.165224

>  <r_i_glide_emodel>  (329) 
-25.3731

>  <r_i_glide_energy>  (329) 
-23.1145

>  <r_i_glide_einternal>  (329) 
0.155049

>  <r_i_glide_intrahb_reward>  (329) 
-0

>  <i_i_glide_confnum>  (329) 
2

>  <i_i_glide_posenum>  (329) 
32

>  <r_i_glide_eff_state_penalty>  (329) 
0

>  <ligand_id>  (329) 
92

>  <original_smiles>  (329) 
C=C1CC23CCC1C1(CC4C5CC=C(c6cncnc6)C5(C)CCC41)ON=C2C(=CC)O3

>  <smiles>  (329) 
[H]C([H])=C1C([H])([H])C23OC(=C([H])C([H])([H])[H])C2=NOC2(C([H])([H])C4([H])C2([H])C([H])([H])C([H])([H])C2(C([H])([H])[H])C(c5c([H])nc([H])nc5[H])=C([H])C([H])([H])C42[H])C1([H])C([H])([H])C3([H])[H]

$$$$
92:3:0
     RDKit          3D

 63 69  0  0  1  0  0  0  0  0999 V2000
    4.3550   -3.9706    6.6822 C   0  0  0  0  0  0  0  0  0  0  0  0
    4.0998   -3.8103    5.3712 C   0  0  0  0  0  0  0  0  0  0  0  0
    4.6844   -4.7534    4.3185 C   0  0  0  0  0  0  0  0  0  0  0  0
    3.8990   -4.6628    3.0070 C   0  0  1  0  0  0  0  0  0  0  0  0
    2.4008   -4.5965    3.2254 C   0  0  0  0  0  0  0  0  0  0  0  0
    1.9831   -3.3613    4.0292 C   0  0  0  0  0  0  0  0  0  0  0  0
    3.1309   -2.7364    4.8619 C   0  0  2  0  0  0  0  0  0  0  0  0
    3.8427   -1.5418    4.1811 C   0  0  1  0  0  0  0  0  0  0  0  0
    3.0215   -0.4685    3.4359 C   0  0  0  0  0  0  0  0  0  0  0  0
    3.9117    0.6250    4.0202 C   0  0  1  0  0  0  0  0  0  0  0  0
    3.3288    1.9750    4.4704 C   0  0  1  0  0  0  0  0  0  0  0  0
    2.5669    2.6673    3.3229 C   0  0  0  0  0  0  0  0  0  0  0  0
    1.1389    2.6397    3.7734 C   0  0  0  0  0  0  0  0  0  0  0  0
    0.9597    2.2024    5.0248 C   0  0  0  0  0  0  0  0  0  0  0  0
   -0.3619    2.2547    5.6960 C   0  0  0  0  0  0  0  0  0  0  0  0
   -1.2955    3.2732    5.3958 C   0  0  0  0  0  0  0  0  0  0  0  0
   -2.4945    3.3412    6.0120 N   0  0  0  0  0  0  0  0  0  0  0  0
   -2.7721    2.3955    6.8950 C   0  0  0  0  0  0  0  0  0  0  0  0
   -2.0083    1.3556    7.2214 N   0  0  0  0  0  0  0  0  0  0  0  0
   -0.7950    1.2951    6.6366 C   0  0  0  0  0  0  0  0  0  0  0  0
    2.3143    1.8951    5.6733 C   0  0  2  0  0  0  0  0  0  0  0  0
    2.6201    3.0235    6.6800 C   0  0  0  0  0  0  0  0  0  0  0  0
    2.3652    0.5275    6.4201 C   0  0  0  0  0  0  0  0  0  0  0  0
    3.7748   -0.0959    6.4796 C   0  0  0  0  0  0  0  0  0  0  0  0
    4.3536   -0.3781    5.0890 C   0  0  1  0  0  0  0  0  0  0  0  0
    4.9654   -1.9923    3.3854 O   0  0  0  0  0  0  0  0  0  0  0  0
    4.5537   -2.4141    2.0972 N   0  0  0  0  0  0  0  0  0  0  0  0
    4.3567   -3.6604    2.0312 C   0  0  0  0  0  0  0  0  0  0  0  0
    4.3903   -4.5809    1.0883 C   0  0  0  0  0  0  0  0  0  0  0  0
    4.5243   -4.7192   -0.2387 C   0  0  0  0  0  0  0  0  0  0  0  0
    4.6340   -3.6218   -1.2839 C   0  0  0  0  0  0  0  0  0  0  0  0
    4.1561   -5.6578    1.9964 O   0  0  0  0  0  0  0  0  0  0  0  0
    5.0127   -4.7574    7.0282 H   0  0  0  0  0  0  0  0  0  0  0  0
    3.9120   -3.3251    7.4310 H   0  0  0  0  0  0  0  0  0  0  0  0
    5.7509   -4.5498    4.1909 H   0  0  0  0  0  0  0  0  0  0  0  0
    4.5960   -5.7664    4.7157 H   0  0  0  0  0  0  0  0  0  0  0  0
    1.8594   -4.6189    2.2733 H   0  0  0  0  0  0  0  0  0  0  0  0
    2.1018   -5.4959    3.7617 H   0  0  0  0  0  0  0  0  0  0  0  0
    1.5259   -2.6266    3.3627 H   0  0  0  0  0  0  0  0  0  0  0  0
    1.1829   -3.6767    4.7007 H   0  0  0  0  0  0  0  0  0  0  0  0
    2.6178   -2.3529    5.7337 H   0  0  0  0  0  0  0  0  0  0  0  0
    3.0160   -0.5098    2.3458 H   0  0  0  0  0  0  0  0  0  0  0  0
    1.9997   -0.4004    3.8014 H   0  0  0  0  0  0  0  0  0  0  0  0
    4.7353    0.7626    3.3198 H   0  0  0  0  0  0  0  0  0  0  0  0
    4.1601    2.6195    4.7509 H   0  0  0  0  0  0  0  0  0  0  0  0
    2.8811    3.7049    3.2049 H   0  0  0  0  0  0  0  0  0  0  0  0
    2.6846    2.1708    2.3588 H   0  0  0  0  0  0  0  0  0  0  0  0
    0.3574    3.0030    3.1159 H   0  0  0  0  0  0  0  0  0  0  0  0
   -1.0868    4.0536    4.6799 H   0  0  0  0  0  0  0  0  0  0  0  0
   -3.7509    2.4315    7.3477 H   0  0  0  0  0  0  0  0  0  0  0  0
   -0.1921    0.4486    6.9244 H   0  0  0  0  0  0  0  0  0  0  0  0
    3.6076    2.8987    7.1237 H   0  0  0  0  0  0  0  0  0  0  0  0
    1.8897    3.0446    7.4925 H   0  0  0  0  0  0  0  0  0  0  0  0
    2.5955    4.0024    6.1958 H   0  0  0  0  0  0  0  0  0  0  0  0
    1.9951    0.6499    7.4388 H   0  0  0  0  0  0  0  0  0  0  0  0
    1.6912   -0.1866    5.9487 H   0  0  0  0  0  0  0  0  0  0  0  0
    4.4289    0.5953    7.0129 H   0  0  0  0  0  0  0  0  0  0  0  0
    3.7672   -0.9957    7.0908 H   0  0  0  0  0  0  0  0  0  0  0  0
    5.4413   -0.4062    5.1223 H   0  0  0  0  0  0  0  0  0  0  0  0
    4.4117   -5.7038   -0.6518 H   0  0  0  0  0  0  0  0  0  0  0  0
    5.5186   -3.7816   -1.8996 H   0  0  0  0  0  0  0  0  0  0  0  0
    4.6680   -2.6318   -0.8301 H   0  0  0  0  0  0  0  0  0  0  0  0
    3.7717   -3.6609   -1.9540 H   0  0  0  0  0  0  0  0  0  0  0  0
  1  2  2  0
  1 33  1  0
  1 34  1  0
  2  7  1  0
  2  3  1  0
  3  4  1  0
  3 35  1  0
  3 36  1  0
  4 28  1  0
  4 32  1  6
  4  5  1  0
  5  6  1  0
  5 37  1  0
  5 38  1  0
  6  7  1  0
  6 39  1  0
  6 40  1  0
  7  8  1  0
  7 41  1  1
  8 25  1  0
  8  9  1  6
  8 26  1  0
  9 10  1  0
  9 42  1  0
  9 43  1  0
 10 25  1  0
 10 11  1  0
 10 44  1  6
 11 21  1  0
 11 12  1  0
 11 45  1  1
 12 13  1  0
 12 46  1  0
 12 47  1  0
 13 14  2  0
 13 48  1  0
 14 15  1  0
 14 21  1  0
 15 20  1  0
 15 16  2  0
 16 17  1  0
 16 49  1  0
 17 18  2  0
 18 19  1  0
 18 50  1  0
 19 20  2  0
 20 51  1  0
 21 22  1  1
 21 23  1  0
 22 52  1  0
 22 53  1  0
 22 54  1  0
 23 24  1  0
 23 55  1  0
 23 56  1  0
 24 25  1  0
 24 57  1  0
 24 58  1  0
 25 59  1  1
 26 27  1  0
 27 28  2  3
 28 29  1  0
 29 30  2  3
 29 32  1  0
 30 31  1  0
 30 60  1  0
 31 61  1  0
 31 62  1  0
 31 63  1  0
M  END
>  <i_m_ct_stereo_status>  (330) 
1

>  <s_m_source_file>  (330) 
/var/tmp/pbs.5076255.sched01/tmpxmhsyh4a/135ajud44o5.sdf

>  <i_m_source_file_index>  (330) 
4

>  <i_lp_mmshare_version>  (330) 
48012

>  <i_f3d_flags>  (330) 
3

>  <s_epik_input>  (330) 
W0NIM11cW0NIXT1DKE8xKVxDKFxbQ0BdMTIzKT1OXE9bQ0BAXTQoW0NAQEhdKEMoPVtDSDJdKVtDSDJdMilbQ0gyXVtDSDJdMylbQ0BIXTVbQ0BASF0oW0NIMl00KVtDQEhdNltDQEBdKFtDSDNdKShbQ0gyXVtDSDJdNSlDKD1bQ0hdW0NIMl02KWM3W2NIXW5bY0hdbltjSF03

>  <s_epik_cmdline>  (330) 
J2VwaWtfcHl0aG9uJywgJy1waHQnLCAnMi4wJywgJy1waCcsICc3LjAnLCAnLXRuJywgJzgnLCAnLW1hJywgJzIwMCcsICctaW1hZScsICc8aW5maWxlLm1hZT4nLCAnLW9tYWUnLCAnPG91dGZpbGUubWFlPic=

>  <r_lp_tautomer_probability>  (330) 
1

>  <r_epik_Ionization_Penalty>  (330) 
3.74624e-06

>  <r_epik_Ionization_Penalty_Charging>  (330) 
0

>  <r_epik_Ionization_Penalty_Neutral>  (330) 
3.74624e-06

>  <r_epik_State_Penalty>  (330) 
-0

>  <r_epik_Charging_Adjusted_Penalty>  (330) 
0

>  <i_epik_Tot_Q>  (330) 
0

>  <i_epik_Tot_abs_Q>  (330) 
0

>  <s_epik_Chemistry_Notes>  (330) 
This compound contains an electron-poor aromatic ring that is susceptible to covalent hydrolysis at low pH, typically resulting in measured values for nitrogen ring protonation that are around two units higher than predicted values. This compound has an imine and may undergo hydrolysis.

>  <s_lp_Force_Field>  (330) 
OPLS3e

>  <r_lp_Energy>  (330) 
68.1267

>  <b_lp_Chiralities_Consistent>  (330) 
0

>  <s_lp_Variant>  (330) 
92:0-4

>  <s_i_glide_gridfile>  (330) 
pfpi4k_grid

>  <i_i_glide_lignum>  (330) 
4

>  <i_i_glide_rotatable_bonds>  (330) 
1

>  <r_i_docking_score>  (330) 
-2.32351

>  <r_i_glide_ligand_efficiency>  (330) 
-0.0726098

>  <r_i_glide_ligand_efficiency_sa>  (330) 
-0.230522

>  <r_i_glide_ligand_efficiency_ln>  (330) 
-0.520298

>  <r_i_glide_gscore>  (330) 
-2.32351

>  <r_i_glide_lipo>  (330) 
-0.0472968

>  <r_i_glide_hbond>  (330) 
-0.119756

>  <r_i_glide_metal>  (330) 
-0

>  <r_i_glide_rewards>  (330) 
-0.664075

>  <r_i_glide_evdw>  (330) 
-22.0737

>  <r_i_glide_ecoul>  (330) 
-3.30937

>  <r_i_glide_erotb>  (330) 
0.107706

>  <r_i_glide_esite>  (330) 
0

>  <r_i_glide_emodel>  (330) 
-27.9326

>  <r_i_glide_energy>  (330) 
-25.3831

>  <r_i_glide_einternal>  (330) 
0.548347

>  <r_i_glide_intrahb_reward>  (330) 
-0

>  <i_i_glide_confnum>  (330) 
2

>  <i_i_glide_posenum>  (330) 
1

>  <r_i_glide_eff_state_penalty>  (330) 
0

>  <ligand_id>  (330) 
92

>  <original_smiles>  (330) 
C=C1CC23CCC1C1(CC4C5CC=C(c6cncnc6)C5(C)CCC41)ON=C2C(=CC)O3

>  <smiles>  (330) 
[H]C([H])=C1C([H])([H])C23OC(=C([H])C([H])([H])[H])C2=NOC2(C([H])([H])C4([H])C2([H])C([H])([H])C([H])([H])C2(C([H])([H])[H])C(c5c([H])nc([H])nc5[H])=C([H])C([H])([H])C42[H])C1([H])C([H])([H])C3([H])[H]

$$$$
92:3:1
     RDKit          3D

 63 69  0  0  1  0  0  0  0  0999 V2000
    5.5484    3.1836    6.5326 C   0  0  0  0  0  0  0  0  0  0  0  0
    4.2141    3.0852    6.3599 C   0  0  0  0  0  0  0  0  0  0  0  0
    3.2376    3.8924    7.2124 C   0  0  0  0  0  0  0  0  0  0  0  0
    1.8642    3.9898    6.5344 C   0  0  1  0  0  0  0  0  0  0  0  0
    1.9606    4.2212    5.0385 C   0  0  0  0  0  0  0  0  0  0  0  0
    2.6976    3.0898    4.3116 C   0  0  0  0  0  0  0  0  0  0  0  0
    3.6102    2.2405    5.2316 C   0  0  2  0  0  0  0  0  0  0  0  0
    2.9599    0.9251    5.7208 C   0  0  1  0  0  0  0  0  0  0  0  0
    2.1292    0.0465    4.7714 C   0  0  0  0  0  0  0  0  0  0  0  0
    2.7602   -1.2068    5.3761 C   0  0  1  0  0  0  0  0  0  0  0  0
    3.1359   -2.4060    4.4928 C   0  0  1  0  0  0  0  0  0  0  0  0
    1.9174   -2.9156    3.7046 C   0  0  0  0  0  0  0  0  0  0  0  0
    2.2540   -2.5747    2.2844 C   0  0  0  0  0  0  0  0  0  0  0  0
    3.5028   -2.1508    2.0812 C   0  0  0  0  0  0  0  0  0  0  0  0
    4.0506   -1.8915    0.7068 C   0  0  0  0  0  0  0  0  0  0  0  0
    3.3579   -2.3101   -0.4618 C   0  0  0  0  0  0  0  0  0  0  0  0
    3.8576   -2.1110   -1.6987 N   0  0  0  0  0  0  0  0  0  0  0  0
    5.0104   -1.5050   -1.7918 C   0  0  0  0  0  0  0  0  0  0  0  0
    5.7595   -1.0632   -0.7840 N   0  0  0  0  0  0  0  0  0  0  0  0
    5.2843   -1.2472    0.4602 C   0  0  0  0  0  0  0  0  0  0  0  0
    4.2575   -2.1225    3.4137 C   0  0  2  0  0  0  0  0  0  0  0  0
    5.2513   -3.2990    3.3851 C   0  0  0  0  0  0  0  0  0  0  0  0
    5.0259   -0.7903    3.6872 C   0  0  0  0  0  0  0  0  0  0  0  0
    5.2030   -0.4708    5.1850 C   0  0  0  0  0  0  0  0  0  0  0  0
    3.8737   -0.3157    5.9226 C   0  0  1  0  0  0  0  0  0  0  0  0
    2.2433    1.1333    6.9526 O   0  0  0  0  0  0  0  0  0  0  0  0
    0.9538    1.6701    6.6999 N   0  0  0  0  0  0  0  0  0  0  0  0
    0.9116    2.8985    6.8249 C   0  0  0  0  0  0  0  0  0  0  0  0
    0.0017    3.8024    7.1513 C   0  0  0  0  0  0  0  0  0  0  0  0
   -1.3041    3.8856    7.4471 C   0  0  0  0  0  0  0  0  0  0  0  0
   -2.3576    2.8100    7.4030 C   0  0  0  0  0  0  0  0  0  0  0  0
    0.9026    4.8957    7.0770 O   0  0  0  0  0  0  0  0  0  0  0  0
    5.9617    3.8220    7.3082 H   0  0  0  0  0  0  0  0  0  0  0  0
    6.2443    2.6342    5.9068 H   0  0  0  0  0  0  0  0  0  0  0  0
    3.1857    3.4638    8.2184 H   0  0  0  0  0  0  0  0  0  0  0  0
    3.6621    4.8981    7.3107 H   0  0  0  0  0  0  0  0  0  0  0  0
    0.9602    4.3480    4.6014 H   0  0  0  0  0  0  0  0  0  0  0  0
    2.4937    5.1596    4.8824 H   0  0  0  0  0  0  0  0  0  0  0  0
    1.9837    2.4671    3.7645 H   0  0  0  0  0  0  0  0  0  0  0  0
    3.3129    3.5659    3.5446 H   0  0  0  0  0  0  0  0  0  0  0  0
    4.4316    1.9752    4.5784 H   0  0  0  0  0  0  0  0  0  0  0  0
    1.0409    0.0879    4.8797 H   0  0  0  0  0  0  0  0  0  0  0  0
    2.4058    0.1961    3.7264 H   0  0  0  0  0  0  0  0  0  0  0  0
    2.1231   -1.5034    6.2146 H   0  0  0  0  0  0  0  0  0  0  0  0
    3.4676   -3.2185    5.1379 H   0  0  0  0  0  0  0  0  0  0  0  0
    1.7989   -3.9987    3.7821 H   0  0  0  0  0  0  0  0  0  0  0  0
    0.9742   -2.4485    3.9910 H   0  0  0  0  0  0  0  0  0  0  0  0
    1.5100   -2.7167    1.5214 H   0  0  0  0  0  0  0  0  0  0  0  0
    2.4011   -2.8320   -0.4479 H   0  0  0  0  0  0  0  0  0  0  0  0
    5.4132   -1.3364   -2.7790 H   0  0  0  0  0  0  0  0  0  0  0  0
    5.9416   -0.8815    1.2349 H   0  0  0  0  0  0  0  0  0  0  0  0
    5.7770   -3.3808    4.3391 H   0  0  0  0  0  0  0  0  0  0  0  0
    5.9916   -3.1652    2.5931 H   0  0  0  0  0  0  0  0  0  0  0  0
    4.7436   -4.2499    3.1949 H   0  0  0  0  0  0  0  0  0  0  0  0
    6.0374   -0.8411    3.2879 H   0  0  0  0  0  0  0  0  0  0  0  0
    4.5325    0.0365    3.1728 H   0  0  0  0  0  0  0  0  0  0  0  0
    5.7761   -1.2890    5.6183 H   0  0  0  0  0  0  0  0  0  0  0  0
    5.8357    0.4020    5.3010 H   0  0  0  0  0  0  0  0  0  0  0  0
    3.9886   -0.5219    6.9874 H   0  0  0  0  0  0  0  0  0  0  0  0
   -1.6840    4.8896    7.6014 H   0  0  0  0  0  0  0  0  0  0  0  0
   -2.9056    2.7752    8.3462 H   0  0  0  0  0  0  0  0  0  0  0  0
   -1.9433    1.8146    7.1877 H   0  0  0  0  0  0  0  0  0  0  0  0
   -3.1007    3.0314    6.6344 H   0  0  0  0  0  0  0  0  0  0  0  0
  1  2  2  0
  1 33  1  0
  1 34  1  0
  2  7  1  0
  2  3  1  0
  3  4  1  0
  3 35  1  0
  3 36  1  0
  4 28  1  0
  4 32  1  1
  4  5  1  0
  5  6  1  0
  5 37  1  0
  5 38  1  0
  6  7  1  0
  6 39  1  0
  6 40  1  0
  7  8  1  0
  7 41  1  6
  8 25  1  0
  8  9  1  6
  8 26  1  0
  9 10  1  0
  9 42  1  0
  9 43  1  0
 10 25  1  0
 10 11  1  0
 10 44  1  1
 11 21  1  0
 11 12  1  0
 11 45  1  1
 12 13  1  0
 12 46  1  0
 12 47  1  0
 13 14  2  0
 13 48  1  0
 14 15  1  0
 14 21  1  0
 15 20  1  0
 15 16  2  0
 16 17  1  0
 16 49  1  0
 17 18  2  0
 18 19  1  0
 18 50  1  0
 19 20  2  0
 20 51  1  0
 21 22  1  6
 21 23  1  0
 22 52  1  0
 22 53  1  0
 22 54  1  0
 23 24  1  0
 23 55  1  0
 23 56  1  0
 24 25  1  0
 24 57  1  0
 24 58  1  0
 25 59  1  1
 26 27  1  0
 27 28  2  3
 28 29  1  0
 29 30  2  3
 29 32  1  0
 30 31  1  0
 30 60  1  0
 31 61  1  0
 31 62  1  0
 31 63  1  0
M  END
>  <i_m_ct_stereo_status>  (331) 
1

>  <s_m_source_file>  (331) 
/var/tmp/pbs.5076255.sched01/tmpxmhsyh4a/135ajud44o5.sdf

>  <i_m_source_file_index>  (331) 
4

>  <i_lp_mmshare_version>  (331) 
48012

>  <i_f3d_flags>  (331) 
3

>  <s_epik_input>  (331) 
W0NIM11cW0NIXT1DKE8xKVxDKFxbQ0BdMTIzKT1OXE9bQ0BAXTQoW0NAQEhdKEMoPVtDSDJdKVtDSDJdMilbQ0gyXVtDSDJdMylbQ0BIXTVbQ0BASF0oW0NIMl00KVtDQEhdNltDQEBdKFtDSDNdKShbQ0gyXVtDSDJdNSlDKD1bQ0hdW0NIMl02KWM3W2NIXW5bY0hdbltjSF03

>  <s_epik_cmdline>  (331) 
J2VwaWtfcHl0aG9uJywgJy1waHQnLCAnMi4wJywgJy1waCcsICc3LjAnLCAnLXRuJywgJzgnLCAnLW1hJywgJzIwMCcsICctaW1hZScsICc8aW5maWxlLm1hZT4nLCAnLW9tYWUnLCAnPG91dGZpbGUubWFlPic=

>  <r_lp_tautomer_probability>  (331) 
1

>  <r_epik_Ionization_Penalty>  (331) 
3.74624e-06

>  <r_epik_Ionization_Penalty_Charging>  (331) 
0

>  <r_epik_Ionization_Penalty_Neutral>  (331) 
3.74624e-06

>  <r_epik_State_Penalty>  (331) 
-0

>  <r_epik_Charging_Adjusted_Penalty>  (331) 
0

>  <i_epik_Tot_Q>  (331) 
0

>  <i_epik_Tot_abs_Q>  (331) 
0

>  <s_epik_Chemistry_Notes>  (331) 
This compound contains an electron-poor aromatic ring that is susceptible to covalent hydrolysis at low pH, typically resulting in measured values for nitrogen ring protonation that are around two units higher than predicted values. This compound has an imine and may undergo hydrolysis.

>  <s_lp_Force_Field>  (331) 
OPLS3e

>  <r_lp_Energy>  (331) 
68.1267

>  <b_lp_Chiralities_Consistent>  (331) 
0

>  <s_lp_Variant>  (331) 
92:0-4

>  <s_i_glide_gridfile>  (331) 
pfpi4k_grid

>  <i_i_glide_lignum>  (331) 
4

>  <i_i_glide_rotatable_bonds>  (331) 
1

>  <r_i_docking_score>  (331) 
-2.28669

>  <r_i_glide_ligand_efficiency>  (331) 
-0.0714592

>  <r_i_glide_ligand_efficiency_sa>  (331) 
-0.226869

>  <r_i_glide_ligand_efficiency_ln>  (331) 
-0.512053

>  <r_i_glide_gscore>  (331) 
-2.28669

>  <r_i_glide_lipo>  (331) 
-0.437937

>  <r_i_glide_hbond>  (331) 
-0.0363895

>  <r_i_glide_metal>  (331) 
-0

>  <r_i_glide_rewards>  (331) 
-0.480314

>  <r_i_glide_evdw>  (331) 
-21.62

>  <r_i_glide_ecoul>  (331) 
-2.1165

>  <r_i_glide_erotb>  (331) 
0.107706

>  <r_i_glide_esite>  (331) 
-0.0412851

>  <r_i_glide_emodel>  (331) 
-26.2743

>  <r_i_glide_energy>  (331) 
-23.7365

>  <r_i_glide_einternal>  (331) 
0.180263

>  <r_i_glide_intrahb_reward>  (331) 
-0

>  <i_i_glide_confnum>  (331) 
4

>  <i_i_glide_posenum>  (331) 
22

>  <r_i_glide_eff_state_penalty>  (331) 
0

>  <ligand_id>  (331) 
92

>  <original_smiles>  (331) 
C=C1CC23CCC1C1(CC4C5CC=C(c6cncnc6)C5(C)CCC41)ON=C2C(=CC)O3

>  <smiles>  (331) 
[H]C([H])=C1C([H])([H])C23OC(=C([H])C([H])([H])[H])C2=NOC2(C([H])([H])C4([H])C2([H])C([H])([H])C([H])([H])C2(C([H])([H])[H])C(c5c([H])nc([H])nc5[H])=C([H])C([H])([H])C42[H])C1([H])C([H])([H])C3([H])[H]

$$$$
92:3:2
     RDKit          3D

 63 69  0  0  1  0  0  0  0  0999 V2000
    4.5357    3.0152    6.0411 C   0  0  0  0  0  0  0  0  0  0  0  0
    3.3400    2.9064    5.4378 C   0  0  0  0  0  0  0  0  0  0  0  0
    2.1799    3.8249    5.8101 C   0  0  0  0  0  0  0  0  0  0  0  0
    1.1342    3.8479    4.6955 C   0  0  1  0  0  0  0  0  0  0  0  0
    1.7372    3.8931    3.3123 C   0  0  0  0  0  0  0  0  0  0  0  0
    2.5767    2.6715    3.0033 C   0  0  0  0  0  0  0  0  0  0  0  0
    3.0946    1.9426    4.2674 C   0  0  2  0  0  0  0  0  0  0  0  0
    2.2688    0.6962    4.6591 C   0  0  1  0  0  0  0  0  0  0  0  0
    1.7761   -0.2782    3.5715 C   0  0  0  0  0  0  0  0  0  0  0  0
    2.0989   -1.4589    4.4807 C   0  0  1  0  0  0  0  0  0  0  0  0
    2.7032   -2.7624    3.9270 C   0  0  1  0  0  0  0  0  0  0  0  0
    1.8165   -3.3518    2.8264 C   0  0  0  0  0  0  0  0  0  0  0  0
    2.6361   -3.2010    1.5787 C   0  0  0  0  0  0  0  0  0  0  0  0
    3.8859   -2.7884    1.7769 C   0  0  0  0  0  0  0  0  0  0  0  0
    4.8822   -2.7323    0.6702 C   0  0  0  0  0  0  0  0  0  0  0  0
    4.7296   -3.5093   -0.5072 C   0  0  0  0  0  0  0  0  0  0  0  0
    5.6260   -3.4681   -1.5115 N   0  0  0  0  0  0  0  0  0  0  0  0
    6.6647   -2.6665   -1.3570 C   0  0  0  0  0  0  0  0  0  0  0  0
    6.9058   -1.8613   -0.3284 N   0  0  0  0  0  0  0  0  0  0  0  0
    6.0167   -1.8877    0.6830 C   0  0  0  0  0  0  0  0  0  0  0  0
    4.1308   -2.6170    3.2807 C   0  0  2  0  0  0  0  0  0  0  0  0
    5.0056   -3.7961    3.7349 C   0  0  0  0  0  0  0  0  0  0  0  0
    4.8148   -1.2712    3.6504 C   0  0  0  0  0  0  0  0  0  0  0  0
    4.4977   -0.7807    5.0764 C   0  0  0  0  0  0  0  0  0  0  0  0
    3.0020   -0.5244    5.2810 C   0  0  1  0  0  0  0  0  0  0  0  0
    1.1926    1.0620    5.5442 O   0  0  0  0  0  0  0  0  0  0  0  0
    0.0992    1.5598    4.7962 N   0  0  0  0  0  0  0  0  0  0  0  0
    0.0879    2.8078    4.7624 C   0  0  0  0  0  0  0  0  0  0  0  0
   -0.8314    3.7581    4.6287 C   0  0  0  0  0  0  0  0  0  0  0  0
   -2.1252    3.9039    4.3869 C   0  0  0  0  0  0  0  0  0  0  0  0
   -3.1677    2.8652    4.0793 C   0  0  0  0  0  0  0  0  0  0  0  0
    0.0910    4.8390    4.7554 O   0  0  0  0  0  0  0  0  0  0  0  0
    4.6878    3.7342    6.8338 H   0  0  0  0  0  0  0  0  0  0  0  0
    5.3705    2.3938    5.7592 H   0  0  0  0  0  0  0  0  0  0  0  0
    1.7551    3.5255    6.7746 H   0  0  0  0  0  0  0  0  0  0  0  0
    2.5855    4.8346    5.9142 H   0  0  0  0  0  0  0  0  0  0  0  0
    0.9765    3.9852    2.5450 H   0  0  0  0  0  0  0  0  0  0  0  0
    2.3398    4.7918    3.2501 H   0  0  0  0  0  0  0  0  0  0  0  0
    2.0458    1.9985    2.3182 H   0  0  0  0  0  0  0  0  0  0  0  0
    3.4056    3.1125    2.4522 H   0  0  0  0  0  0  0  0  0  0  0  0
    4.0721    1.6045    3.9607 H   0  0  0  0  0  0  0  0  0  0  0  0
    0.7306   -0.2066    3.2716 H   0  0  0  0  0  0  0  0  0  0  0  0
    2.3988   -0.2604    2.6836 H   0  0  0  0  0  0  0  0  0  0  0  0
    1.1973   -1.6433    5.0638 H   0  0  0  0  0  0  0  0  0  0  0  0
    2.7468   -3.4900    4.7410 H   0  0  0  0  0  0  0  0  0  0  0  0
    1.6181   -4.4107    2.9869 H   0  0  0  0  0  0  0  0  0  0  0  0
    0.8682   -2.8311    2.7329 H   0  0  0  0  0  0  0  0  0  0  0  0
    2.2208   -3.4649    0.6192 H   0  0  0  0  0  0  0  0  0  0  0  0
    3.9044   -4.1954   -0.6584 H   0  0  0  0  0  0  0  0  0  0  0  0
    7.3856   -2.6263   -2.1585 H   0  0  0  0  0  0  0  0  0  0  0  0
    6.2499   -1.2177    1.4921 H   0  0  0  0  0  0  0  0  0  0  0  0
    5.1719   -3.7658    4.8122 H   0  0  0  0  0  0  0  0  0  0  0  0
    5.9671   -3.7768    3.2268 H   0  0  0  0  0  0  0  0  0  0  0  0
    4.5442   -4.7548    3.4898 H   0  0  0  0  0  0  0  0  0  0  0  0
    5.8894   -1.3881    3.5877 H   0  0  0  0  0  0  0  0  0  0  0  0
    4.5570   -0.4959    2.9268 H   0  0  0  0  0  0  0  0  0  0  0  0
    4.8387   -1.5447    5.7776 H   0  0  0  0  0  0  0  0  0  0  0  0
    5.0872    0.1012    5.3136 H   0  0  0  0  0  0  0  0  0  0  0  0
    2.7278   -0.5922    6.3290 H   0  0  0  0  0  0  0  0  0  0  0  0
   -2.4604    4.8956    4.2327 H   0  0  0  0  0  0  0  0  0  0  0  0
   -3.9941    2.9726    4.7965 H   0  0  0  0  0  0  0  0  0  0  0  0
   -2.7450    1.8543    4.1395 H   0  0  0  0  0  0  0  0  0  0  0  0
   -3.6015    3.0002    3.0868 H   0  0  0  0  0  0  0  0  0  0  0  0
  1  2  2  0
  1 33  1  0
  1 34  1  0
  2  7  1  0
  2  3  1  0
  3  4  1  0
  3 35  1  0
  3 36  1  0
  4 28  1  0
  4 32  1  1
  4  5  1  0
  5  6  1  0
  5 37  1  0
  5 38  1  0
  6  7  1  0
  6 39  1  0
  6 40  1  0
  7  8  1  0
  7 41  1  6
  8 25  1  0
  8  9  1  6
  8 26  1  0
  9 10  1  0
  9 42  1  0
  9 43  1  0
 10 25  1  0
 10 11  1  0
 10 44  1  1
 11 21  1  0
 11 12  1  0
 11 45  1  1
 12 13  1  0
 12 46  1  0
 12 47  1  0
 13 14  2  0
 13 48  1  0
 14 15  1  0
 14 21  1  0
 15 20  1  0
 15 16  2  0
 16 17  1  0
 16 49  1  0
 17 18  2  0
 18 19  1  0
 18 50  1  0
 19 20  2  0
 20 51  1  0
 21 22  1  1
 21 23  1  0
 22 52  1  0
 22 53  1  0
 22 54  1  0
 23 24  1  0
 23 55  1  0
 23 56  1  0
 24 25  1  0
 24 57  1  0
 24 58  1  0
 25 59  1  1
 26 27  1  0
 27 28  2  3
 28 29  1  0
 29 30  2  3
 29 32  1  0
 30 31  1  0
 30 60  1  0
 31 61  1  0
 31 62  1  0
 31 63  1  0
M  END
>  <i_m_ct_stereo_status>  (332) 
1

>  <s_m_source_file>  (332) 
/var/tmp/pbs.5076255.sched01/tmpxmhsyh4a/135ajud44o5.sdf

>  <i_m_source_file_index>  (332) 
4

>  <i_lp_mmshare_version>  (332) 
48012

>  <i_f3d_flags>  (332) 
3

>  <s_epik_input>  (332) 
W0NIM11cW0NIXT1DKE8xKVxDKFxbQ0BdMTIzKT1OXE9bQ0BAXTQoW0NAQEhdKEMoPVtDSDJdKVtDSDJdMilbQ0gyXVtDSDJdMylbQ0BIXTVbQ0BASF0oW0NIMl00KVtDQEhdNltDQEBdKFtDSDNdKShbQ0gyXVtDSDJdNSlDKD1bQ0hdW0NIMl02KWM3W2NIXW5bY0hdbltjSF03

>  <s_epik_cmdline>  (332) 
J2VwaWtfcHl0aG9uJywgJy1waHQnLCAnMi4wJywgJy1waCcsICc3LjAnLCAnLXRuJywgJzgnLCAnLW1hJywgJzIwMCcsICctaW1hZScsICc8aW5maWxlLm1hZT4nLCAnLW9tYWUnLCAnPG91dGZpbGUubWFlPic=

>  <r_lp_tautomer_probability>  (332) 
1

>  <r_epik_Ionization_Penalty>  (332) 
3.74624e-06

>  <r_epik_Ionization_Penalty_Charging>  (332) 
0

>  <r_epik_Ionization_Penalty_Neutral>  (332) 
3.74624e-06

>  <r_epik_State_Penalty>  (332) 
-0

>  <r_epik_Charging_Adjusted_Penalty>  (332) 
0

>  <i_epik_Tot_Q>  (332) 
0

>  <i_epik_Tot_abs_Q>  (332) 
0

>  <s_epik_Chemistry_Notes>  (332) 
This compound contains an electron-poor aromatic ring that is susceptible to covalent hydrolysis at low pH, typically resulting in measured values for nitrogen ring protonation that are around two units higher than predicted values. This compound has an imine and may undergo hydrolysis.

>  <s_lp_Force_Field>  (332) 
OPLS3e

>  <r_lp_Energy>  (332) 
68.1267

>  <b_lp_Chiralities_Consistent>  (332) 
0

>  <s_lp_Variant>  (332) 
92:0-4

>  <s_i_glide_gridfile>  (332) 
pfpi4k_grid

>  <i_i_glide_lignum>  (332) 
4

>  <i_i_glide_rotatable_bonds>  (332) 
1

>  <r_i_docking_score>  (332) 
-2.21797

>  <r_i_glide_ligand_efficiency>  (332) 
-0.0693116

>  <r_i_glide_ligand_efficiency_sa>  (332) 
-0.220051

>  <r_i_glide_ligand_efficiency_ln>  (332) 
-0.496665

>  <r_i_glide_gscore>  (332) 
-2.21797

>  <r_i_glide_lipo>  (332) 
-0.277643

>  <r_i_glide_hbond>  (332) 
-0.150155

>  <r_i_glide_metal>  (332) 
-0

>  <r_i_glide_rewards>  (332) 
-0.480314

>  <r_i_glide_evdw>  (332) 
-20.4849

>  <r_i_glide_ecoul>  (332) 
-2.25318

>  <r_i_glide_erotb>  (332) 
0.107706

>  <r_i_glide_esite>  (332) 
-0.0553452

>  <r_i_glide_emodel>  (332) 
-24.8847

>  <r_i_glide_energy>  (332) 
-22.7381

>  <r_i_glide_einternal>  (332) 
0.286661

>  <r_i_glide_intrahb_reward>  (332) 
-0

>  <i_i_glide_confnum>  (332) 
4

>  <i_i_glide_posenum>  (332) 
25

>  <r_i_glide_eff_state_penalty>  (332) 
0

>  <ligand_id>  (332) 
92

>  <original_smiles>  (332) 
C=C1CC23CCC1C1(CC4C5CC=C(c6cncnc6)C5(C)CCC41)ON=C2C(=CC)O3

>  <smiles>  (332) 
[H]C([H])=C1C([H])([H])C23OC(=C([H])C([H])([H])[H])C2=NOC2(C([H])([H])C4([H])C2([H])C([H])([H])C([H])([H])C2(C([H])([H])[H])C(c5c([H])nc([H])nc5[H])=C([H])C([H])([H])C42[H])C1([H])C([H])([H])C3([H])[H]

$$$$
94:0:0
     RDKit          3D

 57 62  0  0  1  0  0  0  0  0999 V2000
    3.6445   -1.8034   -0.7923 C   0  0  0  0  0  0  0  0  0  0  0  0
    3.9679   -2.5945    0.2463 C   0  0  0  0  0  0  0  0  0  0  0  0
    3.2860   -3.8972    0.4527 C   0  0  0  0  0  0  0  0  0  0  0  0
    2.3303   -4.2669   -0.2395 O   0  0  0  0  0  0  0  0  0  0  0  0
    3.7772   -4.8050    1.5675 C   0  0  2  0  0  0  0  0  0  0  0  0
    3.2818   -4.2194    2.9327 C   0  0  1  0  0  0  0  0  0  0  0  0
    2.8282   -5.2342    4.0168 C   0  0  0  0  0  0  0  0  0  0  0  0
    1.5613   -6.0439    3.6615 C   0  0  2  0  0  0  0  0  0  0  0  0
    0.3368   -5.3435    4.0118 O   0  0  0  0  0  0  0  0  0  0  0  0
   -0.2535   -6.6134    4.3876 C   0  0  1  0  0  0  0  0  0  0  0  0
   -0.9692   -7.2263    3.3137 O   0  0  0  0  0  0  0  0  0  0  0  0
   -0.9544   -8.6558    3.3414 C   0  0  1  0  0  0  0  0  0  0  0  0
   -1.9025   -9.1570    2.2570 C   0  0  0  0  0  0  0  0  0  0  0  0
    0.4783   -9.1535    3.0984 C   0  0  0  0  0  0  0  0  0  0  0  0
    1.4074   -8.6647    4.2110 C   0  0  0  0  0  0  0  0  0  0  0  0
    1.1479   -7.2002    4.5753 C   0  0  1  0  0  0  0  0  0  0  0  0
    4.2569   -3.1494    3.5134 C   0  0  0  0  0  0  0  0  0  0  0  0
    4.5248   -1.9056    2.6253 C   0  0  0  0  0  0  0  0  0  0  0  0
    5.0192   -2.2623    1.2401 C   0  0  2  0  0  0  0  0  0  0  0  0
    6.1164   -1.5024    0.6945 O   0  0  0  0  0  0  0  0  0  0  0  0
    6.3978   -2.8493    1.1170 C   0  0  2  0  0  0  0  0  0  0  0  0
    6.7798   -3.8617    0.0572 C   0  0  0  0  0  0  0  0  0  0  0  0
    5.9970   -5.2009    0.1115 C   0  0  0  0  0  0  0  0  0  0  0  0
    5.1569   -5.4857    1.3640 C   0  0  1  0  0  0  0  0  0  0  0  0
    6.0912   -5.8453    2.5198 C   0  0  0  0  0  0  0  0  0  0  0  0
    3.8839   -6.2767    1.1533 C   0  0  1  0  0  0  0  0  0  0  0  0
    3.7279   -7.3194    2.0885 O   0  0  0  0  0  0  0  0  0  0  0  0
    4.1330   -0.8500   -0.9574 H   0  0  0  0  0  0  0  0  0  0  0  0
    2.8710   -2.0845   -1.4964 H   0  0  0  0  0  0  0  0  0  0  0  0
    2.3694   -3.6526    2.7283 H   0  0  0  0  0  0  0  0  0  0  0  0
    3.6352   -5.9147    4.2746 H   0  0  0  0  0  0  0  0  0  0  0  0
    2.6537   -4.6964    4.9513 H   0  0  0  0  0  0  0  0  0  0  0  0
    1.5103   -6.3524    2.6103 H   0  0  0  0  0  0  0  0  0  0  0  0
   -0.8151   -6.5609    5.3223 H   0  0  0  0  0  0  0  0  0  0  0  0
   -1.3043   -9.0185    4.3080 H   0  0  0  0  0  0  0  0  0  0  0  0
   -1.9096  -10.2500    2.2035 H   0  0  0  0  0  0  0  0  0  0  0  0
   -1.6008   -8.7927    1.2800 H   0  0  0  0  0  0  0  0  0  0  0  0
   -2.9203   -8.8293    2.4427 H   0  0  0  0  0  0  0  0  0  0  0  0
    0.5175  -10.2455    3.0331 H   0  0  0  0  0  0  0  0  0  0  0  0
    0.8315   -8.7738    2.1391 H   0  0  0  0  0  0  0  0  0  0  0  0
    1.2538   -9.2941    5.0885 H   0  0  0  0  0  0  0  0  0  0  0  0
    2.4473   -8.8210    3.9290 H   0  0  0  0  0  0  0  0  0  0  0  0
    1.4849   -6.9815    5.5873 H   0  0  0  0  0  0  0  0  0  0  0  0
    3.8740   -2.7924    4.4729 H   0  0  0  0  0  0  0  0  0  0  0  0
    5.2101   -3.6113    3.7569 H   0  0  0  0  0  0  0  0  0  0  0  0
    3.6214   -1.2959    2.5377 H   0  0  0  0  0  0  0  0  0  0  0  0
    5.2732   -1.2726    3.1007 H   0  0  0  0  0  0  0  0  0  0  0  0
    6.9881   -2.9075    2.0209 H   0  0  0  0  0  0  0  0  0  0  0  0
    6.6724   -3.4100   -0.9325 H   0  0  0  0  0  0  0  0  0  0  0  0
    7.8456   -4.0686    0.1769 H   0  0  0  0  0  0  0  0  0  0  0  0
    5.3344   -5.2256   -0.7553 H   0  0  0  0  0  0  0  0  0  0  0  0
    6.6841   -6.0365   -0.0126 H   0  0  0  0  0  0  0  0  0  0  0  0
    6.7003   -6.7085    2.2588 H   0  0  0  0  0  0  0  0  0  0  0  0
    5.5426   -6.0818    3.4236 H   0  0  0  0  0  0  0  0  0  0  0  0
    6.7573   -5.0216    2.7538 H   0  0  0  0  0  0  0  0  0  0  0  0
    3.6326   -6.5768    0.1397 H   0  0  0  0  0  0  0  0  0  0  0  0
    4.5804   -7.6047    2.3808 H   0  0  0  0  0  0  0  0  0  0  0  0
  1  2  2  0
  1 28  1  0
  1 29  1  0
  2 19  1  0
  2  3  1  0
  3  4  2  0
  5  3  1  6
  5 24  1  0
  5 26  1  0
  5  6  1  0
  6  7  1  0
  6 17  1  0
  6 30  1  6
  7  8  1  0
  7 31  1  0
  7 32  1  0
  8 16  1  0
  8  9  1  0
  8 33  1  6
  9 10  1  0
 10 16  1  0
 10 11  1  0
 10 34  1  1
 11 12  1  0
 12 13  1  0
 12 14  1  0
 12 35  1  1
 13 36  1  0
 13 37  1  0
 13 38  1  0
 14 15  1  0
 14 39  1  0
 14 40  1  0
 15 16  1  0
 15 41  1  0
 15 42  1  0
 16 43  1  1
 17 18  1  0
 17 44  1  0
 17 45  1  0
 18 19  1  0
 18 46  1  0
 18 47  1  0
 19 21  1  0
 19 20  1  6
 20 21  1  0
 21 22  1  0
 21 48  1  1
 22 23  1  0
 22 49  1  0
 22 50  1  0
 23 24  1  0
 23 51  1  0
 23 52  1  0
 24 25  1  1
 24 26  1  0
 25 53  1  0
 25 54  1  0
 25 55  1  0
 26 27  1  0
 26 56  1  6
 27 57  1  0
M  END
>  <i_m_ct_stereo_status>  (333) 
1

>  <s_m_source_file>  (333) 
/var/tmp/pbs.5076255.sched01/tmpxmhsyh4a/135ajud44o5.sdf

>  <i_m_source_file_index>  (333) 
6

>  <i_lp_mmshare_version>  (333) 
48012

>  <i_f3d_flags>  (333) 
0

>  <s_epik_input>  (333) 
W09IXVtDQEBIXTFbQ0BAXShbQ0BdMTIzKShbQ0gzXSlbQ0gyXVtDSDJdW0NIXTRbQ0BAXShPNCkoQyg9W0NIMl0pQzI9TylbQ0gyXVtDSDJdW0NAQEhdM1tDSDJdW0NASF0oTzUpW0NAQEhdKFtDQEBIXTU2KVtDSDJdW0NIMl1bQ0BASF0oTzYpW0NIM10=

>  <s_epik_cmdline>  (333) 
J2VwaWtfcHl0aG9uJywgJy1waHQnLCAnMi4wJywgJy1waCcsICc3LjAnLCAnLXRuJywgJzgnLCAnLW1hJywgJzIwMCcsICctaW1hZScsICc8aW5maWxlLm1hZT4nLCAnLW9tYWUnLCAnPG91dGZpbGUubWFlPic=

>  <r_lp_tautomer_probability>  (333) 
1

>  <r_epik_Ionization_Penalty>  (333) 
8.43676e-08

>  <r_epik_Ionization_Penalty_Charging>  (333) 
0

>  <r_epik_Ionization_Penalty_Neutral>  (333) 
8.43676e-08

>  <r_epik_State_Penalty>  (333) 
-0

>  <r_epik_Charging_Adjusted_Penalty>  (333) 
0

>  <i_epik_Tot_Q>  (333) 
0

>  <i_epik_Tot_abs_Q>  (333) 
0

>  <s_epik_Chemistry_Notes>  (333) 
This compound contains an acetal/aminal-like group ( X-CH(R)-Y where X, Y are N, S, or O) that may be acid/base labile, releasing an aldehyde.

>  <s_lp_Force_Field>  (333) 
OPLS3e

>  <r_lp_Energy>  (333) 
47.4962

>  <b_lp_Chiralities_Consistent>  (333) 
1

>  <s_lp_Variant>  (333) 
94:0-1

>  <s_i_glide_gridfile>  (333) 
pfpi4k_grid

>  <i_i_glide_lignum>  (333) 
6

>  <i_i_glide_rotatable_bonds>  (333) 
3

>  <r_i_docking_score>  (333) 
-2.6367

>  <r_i_glide_ligand_efficiency>  (333) 
-0.0976556

>  <r_i_glide_ligand_efficiency_sa>  (333) 
-0.292967

>  <r_i_glide_ligand_efficiency_ln>  (333) 
-0.613781

>  <r_i_glide_gscore>  (333) 
-2.6367

>  <r_i_glide_lipo>  (333) 
-0.796755

>  <r_i_glide_hbond>  (333) 
-0.0624911

>  <r_i_glide_metal>  (333) 
-0

>  <r_i_glide_rewards>  (333) 
-0.855882

>  <r_i_glide_evdw>  (333) 
-20.5366

>  <r_i_glide_ecoul>  (333) 
-0.854164

>  <r_i_glide_erotb>  (333) 
0.275784

>  <r_i_glide_esite>  (333) 
-0.0424027

>  <r_i_glide_emodel>  (333) 
-24.596

>  <r_i_glide_energy>  (333) 
-21.3908

>  <r_i_glide_einternal>  (333) 
2.33281

>  <r_i_glide_intrahb_reward>  (333) 
-0

>  <i_i_glide_confnum>  (333) 
2

>  <i_i_glide_posenum>  (333) 
14

>  <r_i_glide_eff_state_penalty>  (333) 
0

>  <ligand_id>  (333) 
94

>  <original_smiles>  (333) 
C=C1C(=O)C23C(CC4OC5OC(C)CCC45)CCC14OC4CCC2(C)C3O

>  <smiles>  (333) 
[H]OC1([H])C23C(=O)C(=C([H])[H])C4(OC4([H])C([H])([H])C([H])([H])C12C([H])([H])[H])C([H])([H])C([H])([H])C3([H])C([H])([H])C1([H])OC2([H])OC([H])(C([H])([H])[H])C([H])([H])C([H])([H])C21[H]

$$$$
94:0:1
     RDKit          3D

 57 62  0  0  1  0  0  0  0  0999 V2000
   -0.3617    0.9669    4.0789 C   0  0  0  0  0  0  0  0  0  0  0  0
    0.6294    0.1410    3.7266 C   0  0  0  0  0  0  0  0  0  0  0  0
    1.3752    0.3525    2.4727 C   0  0  0  0  0  0  0  0  0  0  0  0
    1.0801    1.2277    1.6978 O   0  0  0  0  0  0  0  0  0  0  0  0
    2.6049   -0.5021    2.1960 C   0  0  2  0  0  0  0  0  0  0  0  0
    2.1541   -1.9550    1.7780 C   0  0  1  0  0  0  0  0  0  0  0  0
    2.8598   -2.6832    0.5873 C   0  0  0  0  0  0  0  0  0  0  0  0
    4.1800   -3.4335    0.8609 C   0  0  2  0  0  0  0  0  0  0  0  0
    5.3270   -2.5484    0.6950 O   0  0  0  0  0  0  0  0  0  0  0  0
    6.0964   -3.6222    0.2016 C   0  0  1  0  0  0  0  0  0  0  0  0
    6.8593   -4.2607    1.2294 O   0  0  0  0  0  0  0  0  0  0  0  0
    7.0558   -5.6542    1.0781 C   0  0  1  0  0  0  0  0  0  0  0  0
    8.0552   -6.1141    2.1439 C   0  0  0  0  0  0  0  0  0  0  0  0
    5.6880   -6.3582    1.1726 C   0  0  0  0  0  0  0  0  0  0  0  0
    4.7314   -5.9045    0.0500 C   0  0  0  0  0  0  0  0  0  0  0  0
    4.7971   -4.3838   -0.1535 C   0  0  1  0  0  0  0  0  0  0  0  0
    1.8559   -2.8737    3.0006 C   0  0  0  0  0  0  0  0  0  0  0  0
    0.8192   -2.3527    4.0410 C   0  0  0  0  0  0  0  0  0  0  0  0
    1.1253   -0.9747    4.5494 C   0  0  2  0  0  0  0  0  0  0  0  0
    1.0223   -0.7359    5.9528 O   0  0  0  0  0  0  0  0  0  0  0  0
    2.3546   -0.8109    5.4319 C   0  0  2  0  0  0  0  0  0  0  0  0
    3.2032    0.4524    5.4588 C   0  0  0  0  0  0  0  0  0  0  0  0
    3.8636    0.8752    4.1180 C   0  0  0  0  0  0  0  0  0  0  0  0
    3.8795   -0.1862    3.0157 C   0  0  1  0  0  0  0  0  0  0  0  0
    4.8772   -1.2962    3.4308 C   0  0  0  0  0  0  0  0  0  0  0  0
    3.7306    0.3656    1.5969 C   0  0  1  0  0  0  0  0  0  0  0  0
    4.6093   -0.1389    0.6198 O   0  0  0  0  0  0  0  0  0  0  0  0
   -0.8995    0.8619    5.0236 H   0  0  0  0  0  0  0  0  0  0  0  0
   -0.6617    1.7917    3.4531 H   0  0  0  0  0  0  0  0  0  0  0  0
    1.1582   -1.8057    1.3508 H   0  0  0  0  0  0  0  0  0  0  0  0
    2.1573   -3.4283    0.2234 H   0  0  0  0  0  0  0  0  0  0  0  0
    2.9639   -1.9952   -0.2584 H   0  0  0  0  0  0  0  0  0  0  0  0
    4.2399   -3.9656    1.8143 H   0  0  0  0  0  0  0  0  0  0  0  0
    6.6863   -3.4334   -0.7089 H   0  0  0  0  0  0  0  0  0  0  0  0
    7.5185   -5.8244    0.1137 H   0  0  0  0  0  0  0  0  0  0  0  0
    8.2472   -7.1865    2.0453 H   0  0  0  0  0  0  0  0  0  0  0  0
    7.6696   -5.9106    3.1445 H   0  0  0  0  0  0  0  0  0  0  0  0
    9.0081   -5.5898    2.0351 H   0  0  0  0  0  0  0  0  0  0  0  0
    5.8147   -7.4425    1.1156 H   0  0  0  0  0  0  0  0  0  0  0  0
    5.2540   -6.1154    2.1483 H   0  0  0  0  0  0  0  0  0  0  0  0
    5.0050   -6.3846   -0.8913 H   0  0  0  0  0  0  0  0  0  0  0  0
    3.6989   -6.1936    0.2864 H   0  0  0  0  0  0  0  0  0  0  0  0
    4.4529   -4.1105   -1.1475 H   0  0  0  0  0  0  0  0  0  0  0  0
    1.5056   -3.8383    2.6462 H   0  0  0  0  0  0  0  0  0  0  0  0
    2.7762   -3.0642    3.5414 H   0  0  0  0  0  0  0  0  0  0  0  0
   -0.1901   -2.3401    3.6291 H   0  0  0  0  0  0  0  0  0  0  0  0
    0.7867   -3.0270    4.8925 H   0  0  0  0  0  0  0  0  0  0  0  0
    2.8724   -1.7119    5.7179 H   0  0  0  0  0  0  0  0  0  0  0  0
    2.5939    1.2854    5.8246 H   0  0  0  0  0  0  0  0  0  0  0  0
    3.9924    0.2870    6.2052 H   0  0  0  0  0  0  0  0  0  0  0  0
    3.3540    1.7480    3.7283 H   0  0  0  0  0  0  0  0  0  0  0  0
    4.9002    1.1612    4.2786 H   0  0  0  0  0  0  0  0  0  0  0  0
    5.8822   -0.8401    3.5292 H   0  0  0  0  0  0  0  0  0  0  0  0
    4.8792   -2.1002    2.7572 H   0  0  0  0  0  0  0  0  0  0  0  0
    4.5969   -1.6822    4.4374 H   0  0  0  0  0  0  0  0  0  0  0  0
    3.5551    1.4392    1.4692 H   0  0  0  0  0  0  0  0  0  0  0  0
    4.0970   -0.3444   -0.1429 H   0  0  0  0  0  0  0  0  0  0  0  0
  1  2  2  0
  1 28  1  0
  1 29  1  0
  2 19  1  0
  2  3  1  0
  3  4  2  0
  5  3  1  1
  5 24  1  0
  5 26  1  0
  5  6  1  0
  6  7  1  0
  6 17  1  0
  6 30  1  6
  7  8  1  0
  7 31  1  0
  7 32  1  0
  8 16  1  0
  8  9  1  0
  8 33  1  1
  9 10  1  0
 10 16  1  0
 10 11  1  0
 10 34  1  6
 11 12  1  0
 12 13  1  0
 12 14  1  0
 12 35  1  6
 13 36  1  0
 13 37  1  0
 13 38  1  0
 14 15  1  0
 14 39  1  0
 14 40  1  0
 15 16  1  0
 15 41  1  0
 15 42  1  0
 16 43  1  6
 17 18  1  0
 17 44  1  0
 17 45  1  0
 18 19  1  0
 18 46  1  0
 18 47  1  0
 19 21  1  0
 19 20  1  1
 20 21  1  0
 21 22  1  0
 21 48  1  1
 22 23  1  0
 22 49  1  0
 22 50  1  0
 23 24  1  0
 23 51  1  0
 23 52  1  0
 24 25  1  6
 24 26  1  0
 25 53  1  0
 25 54  1  0
 25 55  1  0
 26 27  1  0
 26 56  1  1
 27 57  1  0
M  END
>  <i_m_ct_stereo_status>  (334) 
1

>  <s_m_source_file>  (334) 
/var/tmp/pbs.5076255.sched01/tmpxmhsyh4a/135ajud44o5.sdf

>  <i_m_source_file_index>  (334) 
6

>  <i_lp_mmshare_version>  (334) 
48012

>  <i_f3d_flags>  (334) 
0

>  <s_epik_input>  (334) 
W09IXVtDQEBIXTFbQ0BAXShbQ0BdMTIzKShbQ0gzXSlbQ0gyXVtDSDJdW0NIXTRbQ0BAXShPNCkoQyg9W0NIMl0pQzI9TylbQ0gyXVtDSDJdW0NAQEhdM1tDSDJdW0NASF0oTzUpW0NAQEhdKFtDQEBIXTU2KVtDSDJdW0NIMl1bQ0BASF0oTzYpW0NIM10=

>  <s_epik_cmdline>  (334) 
J2VwaWtfcHl0aG9uJywgJy1waHQnLCAnMi4wJywgJy1waCcsICc3LjAnLCAnLXRuJywgJzgnLCAnLW1hJywgJzIwMCcsICctaW1hZScsICc8aW5maWxlLm1hZT4nLCAnLW9tYWUnLCAnPG91dGZpbGUubWFlPic=

>  <r_lp_tautomer_probability>  (334) 
1

>  <r_epik_Ionization_Penalty>  (334) 
8.43676e-08

>  <r_epik_Ionization_Penalty_Charging>  (334) 
0

>  <r_epik_Ionization_Penalty_Neutral>  (334) 
8.43676e-08

>  <r_epik_State_Penalty>  (334) 
-0

>  <r_epik_Charging_Adjusted_Penalty>  (334) 
0

>  <i_epik_Tot_Q>  (334) 
0

>  <i_epik_Tot_abs_Q>  (334) 
0

>  <s_epik_Chemistry_Notes>  (334) 
This compound contains an acetal/aminal-like group ( X-CH(R)-Y where X, Y are N, S, or O) that may be acid/base labile, releasing an aldehyde.

>  <s_lp_Force_Field>  (334) 
OPLS3e

>  <r_lp_Energy>  (334) 
47.4962

>  <b_lp_Chiralities_Consistent>  (334) 
1

>  <s_lp_Variant>  (334) 
94:0-1

>  <s_i_glide_gridfile>  (334) 
pfpi4k_grid

>  <i_i_glide_lignum>  (334) 
6

>  <i_i_glide_rotatable_bonds>  (334) 
3

>  <r_i_docking_score>  (334) 
-2.46647

>  <r_i_glide_ligand_efficiency>  (334) 
-0.0913507

>  <r_i_glide_ligand_efficiency_sa>  (334) 
-0.274052

>  <r_i_glide_ligand_efficiency_ln>  (334) 
-0.574153

>  <r_i_glide_gscore>  (334) 
-2.46647

>  <r_i_glide_lipo>  (334) 
-0.438569

>  <r_i_glide_hbond>  (334) 
0

>  <r_i_glide_metal>  (334) 
-0

>  <r_i_glide_rewards>  (334) 
-0.959378

>  <r_i_glide_evdw>  (334) 
-21.4144

>  <r_i_glide_ecoul>  (334) 
-1.61642

>  <r_i_glide_erotb>  (334) 
0.275784

>  <r_i_glide_esite>  (334) 
-0.0311204

>  <r_i_glide_emodel>  (334) 
-24.4785

>  <r_i_glide_energy>  (334) 
-23.0309

>  <r_i_glide_einternal>  (334) 
2.13672

>  <r_i_glide_intrahb_reward>  (334) 
-0

>  <i_i_glide_confnum>  (334) 
2

>  <i_i_glide_posenum>  (334) 
5

>  <r_i_glide_eff_state_penalty>  (334) 
0

>  <ligand_id>  (334) 
94

>  <original_smiles>  (334) 
C=C1C(=O)C23C(CC4OC5OC(C)CCC45)CCC14OC4CCC2(C)C3O

>  <smiles>  (334) 
[H]OC1([H])C23C(=O)C(=C([H])[H])C4(OC4([H])C([H])([H])C([H])([H])C12C([H])([H])[H])C([H])([H])C([H])([H])C3([H])C([H])([H])C1([H])OC2([H])OC([H])(C([H])([H])[H])C([H])([H])C([H])([H])C21[H]

$$$$
94:0:2
     RDKit          3D

 57 62  0  0  1  0  0  0  0  0999 V2000
   -0.9721   -1.1292    4.7393 C   0  0  0  0  0  0  0  0  0  0  0  0
    0.2676   -1.6048    4.5378 C   0  0  0  0  0  0  0  0  0  0  0  0
    1.0984   -1.0988    3.4123 C   0  0  0  0  0  0  0  0  0  0  0  0
    0.6743   -0.2868    2.5915 O   0  0  0  0  0  0  0  0  0  0  0  0
    2.5345   -1.5744    3.2974 C   0  0  2  0  0  0  0  0  0  0  0  0
    2.5324   -3.0509    2.7705 C   0  0  1  0  0  0  0  0  0  0  0  0
    3.6557   -3.4521    1.7733 C   0  0  0  0  0  0  0  0  0  0  0  0
    3.4949   -2.8553    0.3644 C   0  0  2  0  0  0  0  0  0  0  0  0
    2.6433   -3.6804   -0.4697 O   0  0  0  0  0  0  0  0  0  0  0  0
    3.5070   -3.3777   -1.6050 C   0  0  1  0  0  0  0  0  0  0  0  0
    3.0482   -2.2730   -2.3906 O   0  0  0  0  0  0  0  0  0  0  0  0
    4.0731   -1.4938   -2.9969 C   0  0  1  0  0  0  0  0  0  0  0  0
    3.3971   -0.4730   -3.9138 C   0  0  0  0  0  0  0  0  0  0  0  0
    4.8873   -0.8207   -1.8843 C   0  0  0  0  0  0  0  0  0  0  0  0
    5.5795   -1.8530   -0.9996 C   0  0  0  0  0  0  0  0  0  0  0  0
    4.6346   -3.0008   -0.6465 C   0  0  1  0  0  0  0  0  0  0  0  0
    2.3921   -4.0924    3.9222 C   0  0  0  0  0  0  0  0  0  0  0  0
    1.1140   -3.9829    4.7922 C   0  0  0  0  0  0  0  0  0  0  0  0
    0.9405   -2.6096    5.3965 C   0  0  2  0  0  0  0  0  0  0  0  0
    0.5324   -2.5279    6.7781 O   0  0  0  0  0  0  0  0  0  0  0  0
    1.9041   -2.1847    6.4707 C   0  0  2  0  0  0  0  0  0  0  0  0
    2.3395   -0.7479    6.6785 C   0  0  0  0  0  0  0  0  0  0  0  0
    3.0714   -0.0936    5.4773 C   0  0  0  0  0  0  0  0  0  0  0  0
    3.5407   -1.0219    4.3453 C   0  0  1  0  0  0  0  0  0  0  0  0
    4.7583   -1.8164    4.8205 C   0  0  0  0  0  0  0  0  0  0  0  0
    3.5063   -0.4453    2.9425 C   0  0  1  0  0  0  0  0  0  0  0  0
    4.6687   -0.7070    2.1981 O   0  0  0  0  0  0  0  0  0  0  0  0
   -1.5857   -1.4815    5.5605 H   0  0  0  0  0  0  0  0  0  0  0  0
   -1.4072   -0.3764    4.0896 H   0  0  0  0  0  0  0  0  0  0  0  0
    1.6156   -3.1874    2.1884 H   0  0  0  0  0  0  0  0  0  0  0  0
    4.6438   -3.2174    2.1616 H   0  0  0  0  0  0  0  0  0  0  0  0
    3.6977   -4.5401    1.6893 H   0  0  0  0  0  0  0  0  0  0  0  0
    3.1236   -1.8309    0.3569 H   0  0  0  0  0  0  0  0  0  0  0  0
    3.7848   -4.2565   -2.1919 H   0  0  0  0  0  0  0  0  0  0  0  0
    4.7271   -2.1326   -3.5911 H   0  0  0  0  0  0  0  0  0  0  0  0
    4.1196    0.1890   -4.3905 H   0  0  0  0  0  0  0  0  0  0  0  0
    2.7007    0.1438   -3.3481 H   0  0  0  0  0  0  0  0  0  0  0  0
    2.8292   -0.9721   -4.6984 H   0  0  0  0  0  0  0  0  0  0  0  0
    5.6138   -0.1328   -2.3075 H   0  0  0  0  0  0  0  0  0  0  0  0
    4.2164   -0.2306   -1.2609 H   0  0  0  0  0  0  0  0  0  0  0  0
    6.4441   -2.2484   -1.5283 H   0  0  0  0  0  0  0  0  0  0  0  0
    5.9699   -1.3881   -0.0969 H   0  0  0  0  0  0  0  0  0  0  0  0
    5.1841   -3.9040   -0.3989 H   0  0  0  0  0  0  0  0  0  0  0  0
    2.4157   -5.1000    3.5032 H   0  0  0  0  0  0  0  0  0  0  0  0
    3.2626   -4.0515    4.5755 H   0  0  0  0  0  0  0  0  0  0  0  0
    0.2250   -4.2344    4.2043 H   0  0  0  0  0  0  0  0  0  0  0  0
    1.1617   -4.7105    5.6014 H   0  0  0  0  0  0  0  0  0  0  0  0
    2.6107   -2.9266    6.8191 H   0  0  0  0  0  0  0  0  0  0  0  0
    1.4718   -0.1458    6.9517 H   0  0  0  0  0  0  0  0  0  0  0  0
    2.9991   -0.7295    7.5490 H   0  0  0  0  0  0  0  0  0  0  0  0
    2.3939    0.6411    5.0447 H   0  0  0  0  0  0  0  0  0  0  0  0
    3.9214    0.4927    5.8260 H   0  0  0  0  0  0  0  0  0  0  0  0
    5.5570   -1.1429    5.1214 H   0  0  0  0  0  0  0  0  0  0  0  0
    5.1512   -2.4656    4.0484 H   0  0  0  0  0  0  0  0  0  0  0  0
    4.5059   -2.4432    5.6691 H   0  0  0  0  0  0  0  0  0  0  0  0
    3.1569    0.5772    2.8029 H   0  0  0  0  0  0  0  0  0  0  0  0
    4.4289   -0.6969    1.2843 H   0  0  0  0  0  0  0  0  0  0  0  0
  1  2  2  0
  1 28  1  0
  1 29  1  0
  2 19  1  0
  2  3  1  0
  3  4  2  0
  5  3  1  1
  5 24  1  0
  5 26  1  0
  5  6  1  0
  6  7  1  0
  6 17  1  0
  6 30  1  6
  7  8  1  0
  7 31  1  0
  7 32  1  0
  8 16  1  0
  8  9  1  0
  8 33  1  1
  9 10  1  0
 10 16  1  0
 10 11  1  0
 10 34  1  6
 11 12  1  0
 12 13  1  0
 12 14  1  0
 12 35  1  6
 13 36  1  0
 13 37  1  0
 13 38  1  0
 14 15  1  0
 14 39  1  0
 14 40  1  0
 15 16  1  0
 15 41  1  0
 15 42  1  0
 16 43  1  1
 17 18  1  0
 17 44  1  0
 17 45  1  0
 18 19  1  0
 18 46  1  0
 18 47  1  0
 19 21  1  0
 19 20  1  1
 20 21  1  0
 21 22  1  0
 21 48  1  1
 22 23  1  0
 22 49  1  0
 22 50  1  0
 23 24  1  0
 23 51  1  0
 23 52  1  0
 24 25  1  1
 24 26  1  0
 25 53  1  0
 25 54  1  0
 25 55  1  0
 26 27  1  0
 26 56  1  1
 27 57  1  0
M  END
>  <i_m_ct_stereo_status>  (335) 
1

>  <s_m_source_file>  (335) 
/var/tmp/pbs.5076255.sched01/tmpxmhsyh4a/135ajud44o5.sdf

>  <i_m_source_file_index>  (335) 
6

>  <i_lp_mmshare_version>  (335) 
48012

>  <i_f3d_flags>  (335) 
0

>  <s_epik_input>  (335) 
W09IXVtDQEBIXTFbQ0BAXShbQ0BdMTIzKShbQ0gzXSlbQ0gyXVtDSDJdW0NIXTRbQ0BAXShPNCkoQyg9W0NIMl0pQzI9TylbQ0gyXVtDSDJdW0NAQEhdM1tDSDJdW0NASF0oTzUpW0NAQEhdKFtDQEBIXTU2KVtDSDJdW0NIMl1bQ0BASF0oTzYpW0NIM10=

>  <s_epik_cmdline>  (335) 
J2VwaWtfcHl0aG9uJywgJy1waHQnLCAnMi4wJywgJy1waCcsICc3LjAnLCAnLXRuJywgJzgnLCAnLW1hJywgJzIwMCcsICctaW1hZScsICc8aW5maWxlLm1hZT4nLCAnLW9tYWUnLCAnPG91dGZpbGUubWFlPic=

>  <r_lp_tautomer_probability>  (335) 
1

>  <r_epik_Ionization_Penalty>  (335) 
8.43676e-08

>  <r_epik_Ionization_Penalty_Charging>  (335) 
0

>  <r_epik_Ionization_Penalty_Neutral>  (335) 
8.43676e-08

>  <r_epik_State_Penalty>  (335) 
-0

>  <r_epik_Charging_Adjusted_Penalty>  (335) 
0

>  <i_epik_Tot_Q>  (335) 
0

>  <i_epik_Tot_abs_Q>  (335) 
0

>  <s_epik_Chemistry_Notes>  (335) 
This compound contains an acetal/aminal-like group ( X-CH(R)-Y where X, Y are N, S, or O) that may be acid/base labile, releasing an aldehyde.

>  <s_lp_Force_Field>  (335) 
OPLS3e

>  <r_lp_Energy>  (335) 
47.4962

>  <b_lp_Chiralities_Consistent>  (335) 
1

>  <s_lp_Variant>  (335) 
94:0-1

>  <s_i_glide_gridfile>  (335) 
pfpi4k_grid

>  <i_i_glide_lignum>  (335) 
6

>  <i_i_glide_rotatable_bonds>  (335) 
3

>  <r_i_docking_score>  (335) 
-2.12799

>  <r_i_glide_ligand_efficiency>  (335) 
-0.0788146

>  <r_i_glide_ligand_efficiency_sa>  (335) 
-0.236444

>  <r_i_glide_ligand_efficiency_ln>  (335) 
-0.495362

>  <r_i_glide_gscore>  (335) 
-2.12799

>  <r_i_glide_lipo>  (335) 
-0.347947

>  <r_i_glide_hbond>  (335) 
0

>  <r_i_glide_metal>  (335) 
-0

>  <r_i_glide_rewards>  (335) 
-0.921394

>  <r_i_glide_evdw>  (335) 
-22.0313

>  <r_i_glide_ecoul>  (335) 
-0.157754

>  <r_i_glide_erotb>  (335) 
0.275784

>  <r_i_glide_esite>  (335) 
-0.00920735

>  <r_i_glide_emodel>  (335) 
-24.806

>  <r_i_glide_energy>  (335) 
-22.1891

>  <r_i_glide_einternal>  (335) 
1.8458

>  <r_i_glide_intrahb_reward>  (335) 
-0

>  <i_i_glide_confnum>  (335) 
2

>  <i_i_glide_posenum>  (335) 
2

>  <r_i_glide_eff_state_penalty>  (335) 
0

>  <ligand_id>  (335) 
94

>  <original_smiles>  (335) 
C=C1C(=O)C23C(CC4OC5OC(C)CCC45)CCC14OC4CCC2(C)C3O

>  <smiles>  (335) 
[H]OC1([H])C23C(=O)C(=C([H])[H])C4(OC4([H])C([H])([H])C([H])([H])C12C([H])([H])[H])C([H])([H])C([H])([H])C3([H])C([H])([H])C1([H])OC2([H])OC([H])(C([H])([H])[H])C([H])([H])C([H])([H])C21[H]

$$$$
94:1:0
     RDKit          3D

 57 62  0  0  1  0  0  0  0  0999 V2000
    3.2011   -0.4943    3.5781 C   0  0  0  0  0  0  0  0  0  0  0  0
    3.5944   -1.2186    2.5202 C   0  0  0  0  0  0  0  0  0  0  0  0
    2.6495   -2.0844    1.7857 C   0  0  0  0  0  0  0  0  0  0  0  0
    1.4465   -1.8513    1.8096 O   0  0  0  0  0  0  0  0  0  0  0  0
    3.2299   -3.2919    1.0280 C   0  0  2  0  0  0  0  0  0  0  0  0
    4.0432   -4.1399    2.0486 C   0  0  1  0  0  0  0  0  0  0  0  0
    3.8084   -5.6794    2.0695 C   0  0  0  0  0  0  0  0  0  0  0  0
    2.3897   -6.1088    2.5167 C   0  0  2  0  0  0  0  0  0  0  0  0
    1.9921   -5.4999    3.7704 O   0  0  0  0  0  0  0  0  0  0  0  0
    1.3004   -6.7207    4.1106 C   0  0  1  0  0  0  0  0  0  0  0  0
   -0.0771   -6.6934    3.7278 O   0  0  0  0  0  0  0  0  0  0  0  0
   -0.6058   -7.9804    3.4022 C   0  0  1  0  0  0  0  0  0  0  0  0
   -2.1167   -7.8372    3.2380 C   0  0  0  0  0  0  0  0  0  0  0  0
    0.0615   -8.4620    2.1057 C   0  0  0  0  0  0  0  0  0  0  0  0
    1.5700   -8.6383    2.3039 C   0  0  0  0  0  0  0  0  0  0  0  0
    2.1782   -7.4940    3.1164 C   0  0  1  0  0  0  0  0  0  0  0  0
    5.5473   -3.7440    2.0299 C   0  0  0  0  0  0  0  0  0  0  0  0
    5.9152   -2.2458    2.2132 C   0  0  0  0  0  0  0  0  0  0  0  0
    4.8974   -1.1758    1.8489 C   0  0  2  0  0  0  0  0  0  0  0  0
    5.5867    0.0661    1.6101 O   0  0  0  0  0  0  0  0  0  0  0  0
    4.7364   -0.3919    0.5674 C   0  0  1  0  0  0  0  0  0  0  0  0
    5.1598   -1.0704   -0.7035 C   0  0  0  0  0  0  0  0  0  0  0  0
    3.9406   -1.8912   -1.1893 C   0  0  0  0  0  0  0  0  0  0  0  0
    3.7582   -3.2211   -0.4564 C   0  0  1  0  0  0  0  0  0  0  0  0
    4.7386   -4.2180   -1.0933 C   0  0  0  0  0  0  0  0  0  0  0  0
    2.3707   -3.7225   -0.1671 C   0  0  1  0  0  0  0  0  0  0  0  0
    2.1441   -5.0922   -0.3222 O   0  0  0  0  0  0  0  0  0  0  0  0
    3.8615    0.1973    4.0765 H   0  0  0  0  0  0  0  0  0  0  0  0
    2.1897   -0.5636    3.9406 H   0  0  0  0  0  0  0  0  0  0  0  0
    3.7311   -3.8431    3.0518 H   0  0  0  0  0  0  0  0  0  0  0  0
    4.0359   -6.1403    1.1130 H   0  0  0  0  0  0  0  0  0  0  0  0
    4.5563   -6.1080    2.7400 H   0  0  0  0  0  0  0  0  0  0  0  0
    1.6027   -5.9573    1.7766 H   0  0  0  0  0  0  0  0  0  0  0  0
    1.4817   -7.0123    5.1456 H   0  0  0  0  0  0  0  0  0  0  0  0
   -0.4071   -8.6969    4.2037 H   0  0  0  0  0  0  0  0  0  0  0  0
   -2.5804   -8.7868    2.9586 H   0  0  0  0  0  0  0  0  0  0  0  0
   -2.3474   -7.0989    2.4759 H   0  0  0  0  0  0  0  0  0  0  0  0
   -2.5744   -7.4864    4.1592 H   0  0  0  0  0  0  0  0  0  0  0  0
   -0.3853   -9.4071    1.7815 H   0  0  0  0  0  0  0  0  0  0  0  0
   -0.1171   -7.7384    1.3079 H   0  0  0  0  0  0  0  0  0  0  0  0
    1.7405   -9.5802    2.8282 H   0  0  0  0  0  0  0  0  0  0  0  0
    2.0691   -8.7497    1.3405 H   0  0  0  0  0  0  0  0  0  0  0  0
    3.1017   -7.8001    3.6083 H   0  0  0  0  0  0  0  0  0  0  0  0
    6.0569   -4.2928    2.8206 H   0  0  0  0  0  0  0  0  0  0  0  0
    6.0276   -4.1038    1.1285 H   0  0  0  0  0  0  0  0  0  0  0  0
    6.1483   -2.0704    3.2602 H   0  0  0  0  0  0  0  0  0  0  0  0
    6.8413   -2.0342    1.6741 H   0  0  0  0  0  0  0  0  0  0  0  0
    3.8919    0.2890    0.4415 H   0  0  0  0  0  0  0  0  0  0  0  0
    5.4124   -0.3126   -1.4473 H   0  0  0  0  0  0  0  0  0  0  0  0
    6.0397   -1.6916   -0.5363 H   0  0  0  0  0  0  0  0  0  0  0  0
    3.0301   -1.3067   -1.0556 H   0  0  0  0  0  0  0  0  0  0  0  0
    4.0085   -2.0834   -2.2610 H   0  0  0  0  0  0  0  0  0  0  0  0
    4.5168   -4.3488   -2.1507 H   0  0  0  0  0  0  0  0  0  0  0  0
    4.6999   -5.1996   -0.6312 H   0  0  0  0  0  0  0  0  0  0  0  0
    5.7641   -3.8628   -1.0198 H   0  0  0  0  0  0  0  0  0  0  0  0
    1.5442   -3.1116   -0.5371 H   0  0  0  0  0  0  0  0  0  0  0  0
    2.4536   -5.3555   -1.1975 H   0  0  0  0  0  0  0  0  0  0  0  0
  1  2  2  0
  1 28  1  0
  1 29  1  0
  2 19  1  0
  2  3  1  0
  3  4  2  0
  5  3  1  1
  5 24  1  0
  5 26  1  0
  5  6  1  0
  6  7  1  0
  6 17  1  0
  6 30  1  1
  7  8  1  0
  7 31  1  0
  7 32  1  0
  8 16  1  0
  8  9  1  0
  8 33  1  6
  9 10  1  0
 10 16  1  0
 10 11  1  0
 10 34  1  1
 11 12  1  0
 12 13  1  0
 12 14  1  0
 12 35  1  1
 13 36  1  0
 13 37  1  0
 13 38  1  0
 14 15  1  0
 14 39  1  0
 14 40  1  0
 15 16  1  0
 15 41  1  0
 15 42  1  0
 16 43  1  1
 17 18  1  0
 17 44  1  0
 17 45  1  0
 18 19  1  0
 18 46  1  0
 18 47  1  0
 19 21  1  0
 19 20  1  1
 20 21  1  0
 21 22  1  0
 21 48  1  6
 22 23  1  0
 22 49  1  0
 22 50  1  0
 23 24  1  0
 23 51  1  0
 23 52  1  0
 24 25  1  1
 24 26  1  0
 25 53  1  0
 25 54  1  0
 25 55  1  0
 26 27  1  0
 26 56  1  6
 27 57  1  0
M  END
>  <i_m_ct_stereo_status>  (336) 
1

>  <s_m_source_file>  (336) 
/var/tmp/pbs.5076255.sched01/tmpxmhsyh4a/135ajud44o5.sdf

>  <i_m_source_file_index>  (336) 
7

>  <i_lp_mmshare_version>  (336) 
48012

>  <i_f3d_flags>  (336) 
0

>  <s_epik_input>  (336) 
W09IXVtDQEBIXTFbQ0BAXShbQ0BdMTIzKShbQ0gzXSlbQ0gyXVtDSDJdW0NIXTRbQ0BAXShPNCkoQyg9W0NIMl0pQzI9TylbQ0gyXVtDSDJdW0NAQEhdM1tDSDJdW0NASF0oTzUpW0NAQEhdKFtDQEBIXTU2KVtDSDJdW0NIMl1bQ0BASF0oTzYpW0NIM10=

>  <s_epik_cmdline>  (336) 
J2VwaWtfcHl0aG9uJywgJy1waHQnLCAnMi4wJywgJy1waCcsICc3LjAnLCAnLXRuJywgJzgnLCAnLW1hJywgJzIwMCcsICctaW1hZScsICc8aW5maWxlLm1hZT4nLCAnLW9tYWUnLCAnPG91dGZpbGUubWFlPic=

>  <r_lp_tautomer_probability>  (336) 
1

>  <r_epik_Ionization_Penalty>  (336) 
8.43676e-08

>  <r_epik_Ionization_Penalty_Charging>  (336) 
0

>  <r_epik_Ionization_Penalty_Neutral>  (336) 
8.43676e-08

>  <r_epik_State_Penalty>  (336) 
-0

>  <r_epik_Charging_Adjusted_Penalty>  (336) 
0

>  <i_epik_Tot_Q>  (336) 
0

>  <i_epik_Tot_abs_Q>  (336) 
0

>  <s_epik_Chemistry_Notes>  (336) 
This compound contains an acetal/aminal-like group ( X-CH(R)-Y where X, Y are N, S, or O) that may be acid/base labile, releasing an aldehyde.

>  <s_lp_Force_Field>  (336) 
OPLS3e

>  <r_lp_Energy>  (336) 
63.9921

>  <b_lp_Chiralities_Consistent>  (336) 
1

>  <s_lp_Variant>  (336) 
94:0-2

>  <s_i_glide_gridfile>  (336) 
pfpi4k_grid

>  <i_i_glide_lignum>  (336) 
7

>  <i_i_glide_rotatable_bonds>  (336) 
3

>  <r_i_docking_score>  (336) 
-3.23851

>  <r_i_glide_ligand_efficiency>  (336) 
-0.119945

>  <r_i_glide_ligand_efficiency_sa>  (336) 
-0.359834

>  <r_i_glide_ligand_efficiency_ln>  (336) 
-0.753872

>  <r_i_glide_gscore>  (336) 
-3.23851

>  <r_i_glide_lipo>  (336) 
-0.3708

>  <r_i_glide_hbond>  (336) 
-0.572246

>  <r_i_glide_metal>  (336) 
-0

>  <r_i_glide_rewards>  (336) 
-0.855882

>  <r_i_glide_evdw>  (336) 
-16.673

>  <r_i_glide_ecoul>  (336) 
-5.63237

>  <r_i_glide_erotb>  (336) 
0.275784

>  <r_i_glide_esite>  (336) 
-0.0368603

>  <r_i_glide_emodel>  (336) 
-26.805

>  <r_i_glide_energy>  (336) 
-22.3053

>  <r_i_glide_einternal>  (336) 
2.73373

>  <r_i_glide_intrahb_reward>  (336) 
-0

>  <i_i_glide_confnum>  (336) 
2

>  <i_i_glide_posenum>  (336) 
38

>  <r_i_glide_eff_state_penalty>  (336) 
0

>  <ligand_id>  (336) 
94

>  <original_smiles>  (336) 
C=C1C(=O)C23C(CC4OC5OC(C)CCC45)CCC14OC4CCC2(C)C3O

>  <smiles>  (336) 
[H]OC1([H])C23C(=O)C(=C([H])[H])C4(OC4([H])C([H])([H])C([H])([H])C12C([H])([H])[H])C([H])([H])C([H])([H])C3([H])C([H])([H])C1([H])OC2([H])OC([H])(C([H])([H])[H])C([H])([H])C([H])([H])C21[H]

$$$$
94:1:1
     RDKit          3D

 57 62  0  0  1  0  0  0  0  0999 V2000
   -1.0753    3.8548    7.9927 C   0  0  0  0  0  0  0  0  0  0  0  0
   -0.8489    3.2460    6.8166 C   0  0  0  0  0  0  0  0  0  0  0  0
   -1.3401    1.8685    6.5431 C   0  0  0  0  0  0  0  0  0  0  0  0
   -2.3154    1.3819    7.1268 O   0  0  0  0  0  0  0  0  0  0  0  0
   -0.5738    1.0313    5.5146 C   0  0  2  0  0  0  0  0  0  0  0  0
    0.9189    0.9948    5.9591 C   0  0  1  0  0  0  0  0  0  0  0  0
    1.6048   -0.3978    5.9591 C   0  0  0  0  0  0  0  0  0  0  0  0
    1.0966   -1.3586    7.0506 C   0  0  2  0  0  0  0  0  0  0  0  0
   -0.1706   -0.9362    7.6344 O   0  0  0  0  0  0  0  0  0  0  0  0
    0.2913   -1.3703    8.9279 C   0  0  1  0  0  0  0  0  0  0  0  0
   -0.2039   -2.6669    9.2340 O   0  0  0  0  0  0  0  0  0  0  0  0
    0.6703   -3.4772   10.0106 C   0  0  1  0  0  0  0  0  0  0  0  0
   -0.0877   -4.7565   10.3721 C   0  0  0  0  0  0  0  0  0  0  0  0
    1.9421   -3.7649    9.1953 C   0  0  0  0  0  0  0  0  0  0  0  0
    2.6895   -2.4672    8.8693 C   0  0  0  0  0  0  0  0  0  0  0  0
    1.7424   -1.3528    8.4319 C   0  0  1  0  0  0  0  0  0  0  0  0
    1.7487    2.1074    5.2585 C   0  0  0  0  0  0  0  0  0  0  0  0
    1.2504    3.5770    5.3672 C   0  0  0  0  0  0  0  0  0  0  0  0
   -0.2348    3.8501    5.6149 C   0  0  2  0  0  0  0  0  0  0  0  0
   -0.5757    5.1915    5.1758 O   0  0  0  0  0  0  0  0  0  0  0  0
   -1.3426    4.1253    4.6301 C   0  0  1  0  0  0  0  0  0  0  0  0
   -1.2159    3.5060    3.2712 C   0  0  0  0  0  0  0  0  0  0  0  0
   -1.8275    2.0841    3.3617 C   0  0  0  0  0  0  0  0  0  0  0  0
   -0.8993    1.0326    3.9765 C   0  0  1  0  0  0  0  0  0  0  0  0
    0.0768    0.6065    2.8739 C   0  0  0  0  0  0  0  0  0  0  0  0
   -1.4576   -0.0477    4.8657 C   0  0  1  0  0  0  0  0  0  0  0  0
   -0.9438   -1.3507    4.6821 O   0  0  0  0  0  0  0  0  0  0  0  0
   -0.7659    4.8751    8.1711 H   0  0  0  0  0  0  0  0  0  0  0  0
   -1.5822    3.3420    8.8003 H   0  0  0  0  0  0  0  0  0  0  0  0
    0.9736    1.2850    7.0115 H   0  0  0  0  0  0  0  0  0  0  0  0
    1.5398   -0.8865    4.9948 H   0  0  0  0  0  0  0  0  0  0  0  0
    2.6811   -0.2569    6.0849 H   0  0  0  0  0  0  0  0  0  0  0  0
    1.0185   -2.3889    6.6843 H   0  0  0  0  0  0  0  0  0  0  0  0
    0.1192   -0.6394    9.7207 H   0  0  0  0  0  0  0  0  0  0  0  0
    0.9280   -2.9445   10.9260 H   0  0  0  0  0  0  0  0  0  0  0  0
    0.5304   -5.4261   10.9722 H   0  0  0  0  0  0  0  0  0  0  0  0
   -0.3949   -5.2938    9.4753 H   0  0  0  0  0  0  0  0  0  0  0  0
   -0.9855   -4.5262   10.9460 H   0  0  0  0  0  0  0  0  0  0  0  0
    2.6029   -4.4469    9.7366 H   0  0  0  0  0  0  0  0  0  0  0  0
    1.6693   -4.2682    8.2673 H   0  0  0  0  0  0  0  0  0  0  0  0
    3.2325   -2.1490    9.7614 H   0  0  0  0  0  0  0  0  0  0  0  0
    3.4518   -2.6509    8.1118 H   0  0  0  0  0  0  0  0  0  0  0  0
    2.1769   -0.3666    8.6072 H   0  0  0  0  0  0  0  0  0  0  0  0
    2.7644    2.0860    5.6615 H   0  0  0  0  0  0  0  0  0  0  0  0
    1.8864    1.8677    4.2102 H   0  0  0  0  0  0  0  0  0  0  0  0
    1.7881    4.0698    6.1776 H   0  0  0  0  0  0  0  0  0  0  0  0
    1.5465    4.1171    4.4651 H   0  0  0  0  0  0  0  0  0  0  0  0
   -2.3719    4.1751    4.9775 H   0  0  0  0  0  0  0  0  0  0  0  0
   -1.7738    4.1077    2.5530 H   0  0  0  0  0  0  0  0  0  0  0  0
   -0.1775    3.4956    2.9389 H   0  0  0  0  0  0  0  0  0  0  0  0
   -2.7454    2.1225    3.9514 H   0  0  0  0  0  0  0  0  0  0  0  0
   -2.1356    1.7439    2.3709 H   0  0  0  0  0  0  0  0  0  0  0  0
   -0.4653    0.1526    2.0469 H   0  0  0  0  0  0  0  0  0  0  0  0
    0.8104   -0.1138    3.2124 H   0  0  0  0  0  0  0  0  0  0  0  0
    0.6188    1.4629    2.4776 H   0  0  0  0  0  0  0  0  0  0  0  0
   -2.5297   -0.0671    5.0342 H   0  0  0  0  0  0  0  0  0  0  0  0
   -0.0255   -1.2778    4.4695 H   0  0  0  0  0  0  0  0  0  0  0  0
  1  2  2  0
  1 28  1  0
  1 29  1  0
  2 19  1  0
  2  3  1  0
  3  4  2  0
  5  3  1  1
  5 24  1  0
  5 26  1  0
  5  6  1  0
  6  7  1  0
  6 17  1  0
  6 30  1  1
  7  8  1  0
  7 31  1  0
  7 32  1  0
  8 16  1  0
  8  9  1  0
  8 33  1  6
  9 10  1  0
 10 16  1  0
 10 11  1  0
 10 34  1  1
 11 12  1  0
 12 13  1  0
 12 14  1  0
 12 35  1  1
 13 36  1  0
 13 37  1  0
 13 38  1  0
 14 15  1  0
 14 39  1  0
 14 40  1  0
 15 16  1  0
 15 41  1  0
 15 42  1  0
 16 43  1  1
 17 18  1  0
 17 44  1  0
 17 45  1  0
 18 19  1  0
 18 46  1  0
 18 47  1  0
 19 21  1  0
 19 20  1  1
 20 21  1  0
 21 22  1  0
 21 48  1  1
 22 23  1  0
 22 49  1  0
 22 50  1  0
 23 24  1  0
 23 51  1  0
 23 52  1  0
 24 25  1  6
 24 26  1  0
 25 53  1  0
 25 54  1  0
 25 55  1  0
 26 27  1  0
 26 56  1  1
 27 57  1  0
M  END
>  <i_m_ct_stereo_status>  (337) 
1

>  <s_m_source_file>  (337) 
/var/tmp/pbs.5076255.sched01/tmpxmhsyh4a/135ajud44o5.sdf

>  <i_m_source_file_index>  (337) 
7

>  <i_lp_mmshare_version>  (337) 
48012

>  <i_f3d_flags>  (337) 
0

>  <s_epik_input>  (337) 
W09IXVtDQEBIXTFbQ0BAXShbQ0BdMTIzKShbQ0gzXSlbQ0gyXVtDSDJdW0NIXTRbQ0BAXShPNCkoQyg9W0NIMl0pQzI9TylbQ0gyXVtDSDJdW0NAQEhdM1tDSDJdW0NASF0oTzUpW0NAQEhdKFtDQEBIXTU2KVtDSDJdW0NIMl1bQ0BASF0oTzYpW0NIM10=

>  <s_epik_cmdline>  (337) 
J2VwaWtfcHl0aG9uJywgJy1waHQnLCAnMi4wJywgJy1waCcsICc3LjAnLCAnLXRuJywgJzgnLCAnLW1hJywgJzIwMCcsICctaW1hZScsICc8aW5maWxlLm1hZT4nLCAnLW9tYWUnLCAnPG91dGZpbGUubWFlPic=

>  <r_lp_tautomer_probability>  (337) 
1

>  <r_epik_Ionization_Penalty>  (337) 
8.43676e-08

>  <r_epik_Ionization_Penalty_Charging>  (337) 
0

>  <r_epik_Ionization_Penalty_Neutral>  (337) 
8.43676e-08

>  <r_epik_State_Penalty>  (337) 
-0

>  <r_epik_Charging_Adjusted_Penalty>  (337) 
0

>  <i_epik_Tot_Q>  (337) 
0

>  <i_epik_Tot_abs_Q>  (337) 
0

>  <s_epik_Chemistry_Notes>  (337) 
This compound contains an acetal/aminal-like group ( X-CH(R)-Y where X, Y are N, S, or O) that may be acid/base labile, releasing an aldehyde.

>  <s_lp_Force_Field>  (337) 
OPLS3e

>  <r_lp_Energy>  (337) 
63.9921

>  <b_lp_Chiralities_Consistent>  (337) 
1

>  <s_lp_Variant>  (337) 
94:0-2

>  <s_i_glide_gridfile>  (337) 
pfpi4k_grid

>  <i_i_glide_lignum>  (337) 
7

>  <i_i_glide_rotatable_bonds>  (337) 
3

>  <r_i_docking_score>  (337) 
-2.82948

>  <r_i_glide_ligand_efficiency>  (337) 
-0.104796

>  <r_i_glide_ligand_efficiency_sa>  (337) 
-0.314387

>  <r_i_glide_ligand_efficiency_ln>  (337) 
-0.658657

>  <r_i_glide_gscore>  (337) 
-2.82948

>  <r_i_glide_lipo>  (337) 
-0.000360144

>  <r_i_glide_hbond>  (337) 
-0.297205

>  <r_i_glide_metal>  (337) 
-0

>  <r_i_glide_rewards>  (337) 
-0.855882

>  <r_i_glide_evdw>  (337) 
-17.0691

>  <r_i_glide_ecoul>  (337) 
-6.79704

>  <r_i_glide_erotb>  (337) 
0.275784

>  <r_i_glide_esite>  (337) 
-0.0788061

>  <r_i_glide_emodel>  (337) 
-26.2021

>  <r_i_glide_energy>  (337) 
-23.8662

>  <r_i_glide_einternal>  (337) 
5.91086

>  <r_i_glide_intrahb_reward>  (337) 
-0

>  <i_i_glide_confnum>  (337) 
2

>  <i_i_glide_posenum>  (337) 
14

>  <r_i_glide_eff_state_penalty>  (337) 
0

>  <ligand_id>  (337) 
94

>  <original_smiles>  (337) 
C=C1C(=O)C23C(CC4OC5OC(C)CCC45)CCC14OC4CCC2(C)C3O

>  <smiles>  (337) 
[H]OC1([H])C23C(=O)C(=C([H])[H])C4(OC4([H])C([H])([H])C([H])([H])C12C([H])([H])[H])C([H])([H])C([H])([H])C3([H])C([H])([H])C1([H])OC2([H])OC([H])(C([H])([H])[H])C([H])([H])C([H])([H])C21[H]

$$$$
94:1:2
     RDKit          3D

 57 62  0  0  1  0  0  0  0  0999 V2000
   -1.3466    3.9906    7.9599 C   0  0  0  0  0  0  0  0  0  0  0  0
   -1.0190    3.3166    6.8469 C   0  0  0  0  0  0  0  0  0  0  0  0
   -1.5009    1.9246    6.6029 C   0  0  0  0  0  0  0  0  0  0  0  0
   -2.5284    1.4768    7.1223 O   0  0  0  0  0  0  0  0  0  0  0  0
   -0.6619    1.0205    5.6940 C   0  0  2  0  0  0  0  0  0  0  0  0
    0.7826    1.0004    6.2663 C   0  0  1  0  0  0  0  0  0  0  0  0
    1.4742   -0.3810    6.4191 C   0  0  0  0  0  0  0  0  0  0  0  0
    0.8157   -1.3232    7.4501 C   0  0  2  0  0  0  0  0  0  0  0  0
    0.3669   -0.6143    8.6380 O   0  0  0  0  0  0  0  0  0  0  0  0
    0.7608   -1.7465    9.4423 C   0  0  1  0  0  0  0  0  0  0  0  0
   -0.3312   -2.6331    9.6714 O   0  0  0  0  0  0  0  0  0  0  0  0
    0.0421   -4.0006    9.8074 C   0  0  1  0  0  0  0  0  0  0  0  0
   -1.1904   -4.7679   10.2739 C   0  0  0  0  0  0  0  0  0  0  0  0
    0.5632   -4.4960    8.4504 C   0  0  0  0  0  0  0  0  0  0  0  0
    1.8181   -3.7207    8.0370 C   0  0  0  0  0  0  0  0  0  0  0  0
    1.6911   -2.2243    8.3183 C   0  0  1  0  0  0  0  0  0  0  0  0
    1.6867    2.0745    5.5937 C   0  0  0  0  0  0  0  0  0  0  0  0
    1.2026    3.5548    5.5824 C   0  0  0  0  0  0  0  0  0  0  0  0
   -0.2916    3.8504    5.6779 C   0  0  2  0  0  0  0  0  0  0  0  0
   -0.5740    5.1734    5.1460 O   0  0  0  0  0  0  0  0  0  0  0  0
   -1.3011    4.0845    4.5833 C   0  0  1  0  0  0  0  0  0  0  0  0
   -1.0587    3.3974    3.2766 C   0  0  0  0  0  0  0  0  0  0  0  0
   -1.6934    1.9884    3.3801 C   0  0  0  0  0  0  0  0  0  0  0  0
   -0.8398    0.9629    4.1310 C   0  0  1  0  0  0  0  0  0  0  0  0
    0.2326    0.4741    3.1497 C   0  0  0  0  0  0  0  0  0  0  0  0
   -1.4994   -0.0685    5.0031 C   0  0  1  0  0  0  0  0  0  0  0  0
   -0.9898   -1.3772    4.8667 O   0  0  0  0  0  0  0  0  0  0  0  0
   -1.0431    5.0191    8.1128 H   0  0  0  0  0  0  0  0  0  0  0  0
   -1.9310    3.5263    8.7477 H   0  0  0  0  0  0  0  0  0  0  0  0
    0.7482    1.3647    7.2958 H   0  0  0  0  0  0  0  0  0  0  0  0
    1.5599   -0.9074    5.4759 H   0  0  0  0  0  0  0  0  0  0  0  0
    2.5107   -0.1921    6.6999 H   0  0  0  0  0  0  0  0  0  0  0  0
   -0.0097   -1.9167    7.0425 H   0  0  0  0  0  0  0  0  0  0  0  0
    1.3043   -1.4637   10.3487 H   0  0  0  0  0  0  0  0  0  0  0  0
    0.8229   -4.0964   10.5622 H   0  0  0  0  0  0  0  0  0  0  0  0
   -0.9667   -5.8292   10.3831 H   0  0  0  0  0  0  0  0  0  0  0  0
   -2.0086   -4.6576    9.5624 H   0  0  0  0  0  0  0  0  0  0  0  0
   -1.5393   -4.4045   11.2407 H   0  0  0  0  0  0  0  0  0  0  0  0
    0.7811   -5.5672    8.4777 H   0  0  0  0  0  0  0  0  0  0  0  0
   -0.2125   -4.3568    7.6985 H   0  0  0  0  0  0  0  0  0  0  0  0
    2.6689   -4.1205    8.5914 H   0  0  0  0  0  0  0  0  0  0  0  0
    2.0436   -3.9004    6.9862 H   0  0  0  0  0  0  0  0  0  0  0  0
    2.6681   -1.7561    8.4431 H   0  0  0  0  0  0  0  0  0  0  0  0
    2.6609    2.0711    6.0923 H   0  0  0  0  0  0  0  0  0  0  0  0
    1.9230    1.7843    4.5760 H   0  0  0  0  0  0  0  0  0  0  0  0
    1.6717    4.0871    6.4116 H   0  0  0  0  0  0  0  0  0  0  0  0
    1.5877    4.0462    4.6861 H   0  0  0  0  0  0  0  0  0  0  0  0
   -2.3550    4.1675    4.8319 H   0  0  0  0  0  0  0  0  0  0  0  0
   -1.5467    3.9691    2.4890 H   0  0  0  0  0  0  0  0  0  0  0  0
    0.0030    3.3656    3.0383 H   0  0  0  0  0  0  0  0  0  0  0  0
   -2.6611    2.0605    3.8781 H   0  0  0  0  0  0  0  0  0  0  0  0
   -1.9054    1.6016    2.3835 H   0  0  0  0  0  0  0  0  0  0  0  0
   -0.2318   -0.0242    2.3035 H   0  0  0  0  0  0  0  0  0  0  0  0
    0.9257   -0.2281    3.5979 H   0  0  0  0  0  0  0  0  0  0  0  0
    0.8157    1.3031    2.7542 H   0  0  0  0  0  0  0  0  0  0  0  0
   -2.5828   -0.0607    5.0806 H   0  0  0  0  0  0  0  0  0  0  0  0
   -0.0505   -1.3195    4.7825 H   0  0  0  0  0  0  0  0  0  0  0  0
  1  2  2  0
  1 28  1  0
  1 29  1  0
  2 19  1  0
  2  3  1  0
  3  4  2  0
  5  3  1  1
  5 24  1  0
  5 26  1  0
  5  6  1  0
  6  7  1  0
  6 17  1  0
  6 30  1  1
  7  8  1  0
  7 31  1  0
  7 32  1  0
  8 16  1  0
  8  9  1  0
  8 33  1  6
  9 10  1  0
 10 16  1  0
 10 11  1  0
 10 34  1  1
 11 12  1  0
 12 13  1  0
 12 14  1  0
 12 35  1  1
 13 36  1  0
 13 37  1  0
 13 38  1  0
 14 15  1  0
 14 39  1  0
 14 40  1  0
 15 16  1  0
 15 41  1  0
 15 42  1  0
 16 43  1  1
 17 18  1  0
 17 44  1  0
 17 45  1  0
 18 19  1  0
 18 46  1  0
 18 47  1  0
 19 21  1  0
 19 20  1  1
 20 21  1  0
 21 22  1  0
 21 48  1  1
 22 23  1  0
 22 49  1  0
 22 50  1  0
 23 24  1  0
 23 51  1  0
 23 52  1  0
 24 25  1  6
 24 26  1  0
 25 53  1  0
 25 54  1  0
 25 55  1  0
 26 27  1  0
 26 56  1  1
 27 57  1  0
M  END
>  <i_m_ct_stereo_status>  (338) 
1

>  <s_m_source_file>  (338) 
/var/tmp/pbs.5076255.sched01/tmpxmhsyh4a/135ajud44o5.sdf

>  <i_m_source_file_index>  (338) 
7

>  <i_lp_mmshare_version>  (338) 
48012

>  <i_f3d_flags>  (338) 
0

>  <s_epik_input>  (338) 
W09IXVtDQEBIXTFbQ0BAXShbQ0BdMTIzKShbQ0gzXSlbQ0gyXVtDSDJdW0NIXTRbQ0BAXShPNCkoQyg9W0NIMl0pQzI9TylbQ0gyXVtDSDJdW0NAQEhdM1tDSDJdW0NASF0oTzUpW0NAQEhdKFtDQEBIXTU2KVtDSDJdW0NIMl1bQ0BASF0oTzYpW0NIM10=

>  <s_epik_cmdline>  (338) 
J2VwaWtfcHl0aG9uJywgJy1waHQnLCAnMi4wJywgJy1waCcsICc3LjAnLCAnLXRuJywgJzgnLCAnLW1hJywgJzIwMCcsICctaW1hZScsICc8aW5maWxlLm1hZT4nLCAnLW9tYWUnLCAnPG91dGZpbGUubWFlPic=

>  <r_lp_tautomer_probability>  (338) 
1

>  <r_epik_Ionization_Penalty>  (338) 
8.43676e-08

>  <r_epik_Ionization_Penalty_Charging>  (338) 
0

>  <r_epik_Ionization_Penalty_Neutral>  (338) 
8.43676e-08

>  <r_epik_State_Penalty>  (338) 
-0

>  <r_epik_Charging_Adjusted_Penalty>  (338) 
0

>  <i_epik_Tot_Q>  (338) 
0

>  <i_epik_Tot_abs_Q>  (338) 
0

>  <s_epik_Chemistry_Notes>  (338) 
This compound contains an acetal/aminal-like group ( X-CH(R)-Y where X, Y are N, S, or O) that may be acid/base labile, releasing an aldehyde.

>  <s_lp_Force_Field>  (338) 
OPLS3e

>  <r_lp_Energy>  (338) 
63.9921

>  <b_lp_Chiralities_Consistent>  (338) 
1

>  <s_lp_Variant>  (338) 
94:0-2

>  <s_i_glide_gridfile>  (338) 
pfpi4k_grid

>  <i_i_glide_lignum>  (338) 
7

>  <i_i_glide_rotatable_bonds>  (338) 
3

>  <r_i_docking_score>  (338) 
-2.67365

>  <r_i_glide_ligand_efficiency>  (338) 
-0.0990241

>  <r_i_glide_ligand_efficiency_sa>  (338) 
-0.297072

>  <r_i_glide_ligand_efficiency_ln>  (338) 
-0.622382

>  <r_i_glide_gscore>  (338) 
-2.67365

>  <r_i_glide_lipo>  (338) 
-0.00803988

>  <r_i_glide_hbond>  (338) 
-0.255085

>  <r_i_glide_metal>  (338) 
-0

>  <r_i_glide_rewards>  (338) 
-0.855882

>  <r_i_glide_evdw>  (338) 
-17.9644

>  <r_i_glide_ecoul>  (338) 
-5.9196

>  <r_i_glide_erotb>  (338) 
0.275784

>  <r_i_glide_esite>  (338) 
-0.0442678

>  <r_i_glide_emodel>  (338) 
-26.7827

>  <r_i_glide_energy>  (338) 
-23.884

>  <r_i_glide_einternal>  (338) 
3.88323

>  <r_i_glide_intrahb_reward>  (338) 
-0

>  <i_i_glide_confnum>  (338) 
2

>  <i_i_glide_posenum>  (338) 
1

>  <r_i_glide_eff_state_penalty>  (338) 
0

>  <ligand_id>  (338) 
94

>  <original_smiles>  (338) 
C=C1C(=O)C23C(CC4OC5OC(C)CCC45)CCC14OC4CCC2(C)C3O

>  <smiles>  (338) 
[H]OC1([H])C23C(=O)C(=C([H])[H])C4(OC4([H])C([H])([H])C([H])([H])C12C([H])([H])[H])C([H])([H])C([H])([H])C3([H])C([H])([H])C1([H])OC2([H])OC([H])(C([H])([H])[H])C([H])([H])C([H])([H])C21[H]

$$$$
95:0:0
     RDKit          3D

 30 33  0  0  1  0  0  0  0  0999 V2000
    6.6105   -3.0252   -2.4189 O   0  0  0  0  0  0  0  0  0  0  0  0
    6.4388   -3.3137   -1.2372 C   0  0  0  0  0  0  0  0  0  0  0  0
    7.5463   -3.0656   -0.2204 C   0  0  0  0  0  0  0  0  0  0  0  0
    7.6465   -4.1800    0.8380 C   0  0  0  0  0  0  0  0  0  0  0  0
    6.2790   -4.5626    1.4305 C   0  0  0  0  0  0  0  0  0  0  0  0
    5.3042   -4.9613    0.3240 C   0  0  2  0  0  0  0  0  0  0  0  0
    5.1660   -3.8415   -0.7106 C   0  0  0  0  0  0  0  0  0  0  0  0
    3.9622   -3.3996   -1.1450 C   0  0  0  0  0  0  0  0  0  0  0  0
    3.7492   -2.3919   -2.1349 C   0  0  0  0  0  0  0  0  0  0  0  0
    4.2444   -1.1210   -2.0416 C   0  0  0  0  0  0  0  0  0  0  0  0
    3.8365   -0.3027   -3.1335 C   0  0  0  0  0  0  0  0  0  0  0  0
    3.0409   -0.9673   -4.0317 C   0  0  0  0  0  0  0  0  0  0  0  0
    2.7591   -2.6162   -3.5419 S   0  0  0  0  0  0  0  0  0  0  0  0
    2.7943   -3.8756   -0.5561 N   0  0  0  0  0  0  0  0  0  0  0  0
    2.8255   -4.8824    0.4099 C   0  0  0  0  0  0  0  0  0  0  0  0
    1.8176   -5.5119    1.0004 N   0  0  0  0  0  0  0  0  0  0  0  0
    2.4669   -6.3978    1.8433 N   0  0  0  0  0  0  0  0  0  0  0  0
    3.7724   -6.3272    1.7193 N   0  0  0  0  0  0  0  0  0  0  0  0
    4.0061   -5.3427    0.8236 N   0  0  0  0  0  0  0  0  0  0  0  0
    7.3368   -2.1001    0.2474 H   0  0  0  0  0  0  0  0  0  0  0  0
    8.4877   -2.9751   -0.7548 H   0  0  0  0  0  0  0  0  0  0  0  0
    8.1550   -5.0551    0.4264 H   0  0  0  0  0  0  0  0  0  0  0  0
    8.2790   -3.8358    1.6479 H   0  0  0  0  0  0  0  0  0  0  0  0
    6.3958   -5.3890    2.1265 H   0  0  0  0  0  0  0  0  0  0  0  0
    5.8524   -3.7218    1.9803 H   0  0  0  0  0  0  0  0  0  0  0  0
    5.6801   -5.8297   -0.2136 H   0  0  0  0  0  0  0  0  0  0  0  0
    1.9032   -3.5611   -0.9281 H   0  0  0  0  0  0  0  0  0  0  0  0
    4.8400   -0.7522   -1.2258 H   0  0  0  0  0  0  0  0  0  0  0  0
    4.1089    0.7429   -3.1863 H   0  0  0  0  0  0  0  0  0  0  0  0
    2.5671   -0.5681   -4.9201 H   0  0  0  0  0  0  0  0  0  0  0  0
  1  2  2  0
  2  3  1  0
  2  7  1  0
  3  4  1  0
  3 20  1  0
  3 21  1  0
  4  5  1  0
  4 22  1  0
  4 23  1  0
  5  6  1  0
  5 24  1  0
  5 25  1  0
  6 19  1  0
  6 26  1  6
  6  7  1  0
  7  8  2  0
  8  9  1  0
  8 14  1  0
  9 13  1  0
  9 10  2  0
 10 11  1  0
 10 28  1  0
 11 12  2  0
 11 29  1  0
 12 13  1  0
 12 30  1  0
 14 15  1  0
 14 27  1  0
 15 19  1  0
 15 16  2  0
 16 17  1  0
 17 18  2  0
 18 19  1  0
M  END
>  <i_m_ct_stereo_status>  (339) 
1

>  <s_m_source_file>  (339) 
/var/tmp/pbs.5076255.sched01/tmpxmhsyh4a/135ajud44o5.sdf

>  <i_m_source_file_index>  (339) 
8

>  <i_lp_mmshare_version>  (339) 
48012

>  <i_f3d_flags>  (339) 
0

>  <s_epik_input>  (339) 
W0NIMl0xW0NIMl1bQ0gyXUMoPU8pW0NAQEhdKFtDQEBIXTEyKUMoYzNbY0hdW2NIXVtjSF1zMyk9TmM0bjJubm40

>  <s_epik_cmdline>  (339) 
J2VwaWtfcHl0aG9uJywgJy1waHQnLCAnMi4wJywgJy1waCcsICc3LjAnLCAnLXRuJywgJzgnLCAnLW1hJywgJzIwMCcsICctaW1hZScsICc8aW5maWxlLm1hZT4nLCAnLW9tYWUnLCAnPG91dGZpbGUubWFlPic=

>  <r_lp_tautomer_probability>  (339) 
1

>  <r_epik_Ionization_Penalty>  (339) 
0.0744187

>  <r_epik_Ionization_Penalty_Charging>  (339) 
0.0744184

>  <r_epik_Ionization_Penalty_Neutral>  (339) 
3.82835e-07

>  <r_epik_State_Penalty>  (339) 
0.0655259

>  <r_epik_Charging_Adjusted_Penalty>  (339) 
0.139944

>  <i_epik_Tot_Q>  (339) 
0

>  <i_epik_Tot_abs_Q>  (339) 
0

>  <s_epik_Chemistry_Notes>  (339) 
This compound has an imine and may undergo hydrolysis.

>  <s_lp_Force_Field>  (339) 
OPLS3e

>  <r_lp_Energy>  (339) 
25.6454

>  <b_lp_Chiralities_Consistent>  (339) 
1

>  <s_lp_Variant>  (339) 
95:0-1

>  <s_i_glide_gridfile>  (339) 
pfpi4k_grid

>  <i_i_glide_lignum>  (339) 
8

>  <i_i_glide_rotatable_bonds>  (339) 
1

>  <r_i_docking_score>  (339) 
-4.46519

>  <r_i_glide_ligand_efficiency>  (339) 
-0.23501

>  <r_i_glide_ligand_efficiency_sa>  (339) 
-0.627102

>  <r_i_glide_ligand_efficiency_ln>  (339) 
-1.13202

>  <r_i_glide_gscore>  (339) 
-4.46519

>  <r_i_glide_lipo>  (339) 
-1.03987

>  <r_i_glide_hbond>  (339) 
0

>  <r_i_glide_metal>  (339) 
-0

>  <r_i_glide_rewards>  (339) 
-1.76472

>  <r_i_glide_evdw>  (339) 
-30.0054

>  <r_i_glide_ecoul>  (339) 
-1.65171

>  <r_i_glide_erotb>  (339) 
0.24012

>  <r_i_glide_esite>  (339) 
-0.152694

>  <r_i_glide_emodel>  (339) 
-39.6283

>  <r_i_glide_energy>  (339) 
-31.6571

>  <r_i_glide_einternal>  (339) 
0.386652

>  <r_i_glide_intrahb_reward>  (339) 
-0

>  <i_i_glide_confnum>  (339) 
1

>  <i_i_glide_posenum>  (339) 
25

>  <r_i_glide_eff_state_penalty>  (339) 
0

>  <ligand_id>  (339) 
95

>  <original_smiles>  (339) 
O=C1CCCC2C1C(c1cccs1)=Nc1nnnn12

>  <smiles>  (339) 
[H]c1sc(C2=C3C(=O)C([H])([H])C([H])([H])C([H])([H])C3([H])n3nnnc3N2[H])c([H])c1[H]

$$$$
95:0:1
     RDKit          3D

 30 33  0  0  1  0  0  0  0  0999 V2000
    5.7705   -0.6329   -0.0188 O   0  0  0  0  0  0  0  0  0  0  0  0
    5.1138   -1.3620    0.7141 C   0  0  0  0  0  0  0  0  0  0  0  0
    4.4690   -0.7693    1.9630 C   0  0  0  0  0  0  0  0  0  0  0  0
    4.7859   -1.6018    3.2149 C   0  0  0  0  0  0  0  0  0  0  0  0
    4.5454   -3.1058    2.9988 C   0  0  0  0  0  0  0  0  0  0  0  0
    5.3227   -3.6318    1.7724 C   0  0  2  0  0  0  0  0  0  0  0  0
    4.9850   -2.8199    0.5151 C   0  0  0  0  0  0  0  0  0  0  0  0
    4.5633   -3.4065   -0.6460 C   0  0  0  0  0  0  0  0  0  0  0  0
    4.1337   -2.7481   -1.8496 C   0  0  0  0  0  0  0  0  0  0  0  0
    4.8947   -1.8660   -2.5751 C   0  0  0  0  0  0  0  0  0  0  0  0
    4.2038   -1.3768   -3.7227 C   0  0  0  0  0  0  0  0  0  0  0  0
    2.9664   -1.9345   -3.8824 C   0  0  0  0  0  0  0  0  0  0  0  0
    2.5922   -3.0544   -2.6010 S   0  0  0  0  0  0  0  0  0  0  0  0
    4.5033   -4.7963   -0.7071 N   0  0  0  0  0  0  0  0  0  0  0  0
    4.7203   -5.6118    0.3875 C   0  0  0  0  0  0  0  0  0  0  0  0
    4.6136   -6.9237    0.4994 N   0  0  0  0  0  0  0  0  0  0  0  0
    4.9857   -7.1474    1.8207 N   0  0  0  0  0  0  0  0  0  0  0  0
    5.2803   -6.0329    2.4344 N   0  0  0  0  0  0  0  0  0  0  0  0
    5.0880   -5.0442    1.5365 N   0  0  0  0  0  0  0  0  0  0  0  0
    3.3931   -0.6964    1.8010 H   0  0  0  0  0  0  0  0  0  0  0  0
    4.8461    0.2420    2.0854 H   0  0  0  0  0  0  0  0  0  0  0  0
    5.8153   -1.4264    3.5272 H   0  0  0  0  0  0  0  0  0  0  0  0
    4.1653   -1.2420    4.0324 H   0  0  0  0  0  0  0  0  0  0  0  0
    4.8312   -3.6481    3.8980 H   0  0  0  0  0  0  0  0  0  0  0  0
    3.4786   -3.2805    2.8578 H   0  0  0  0  0  0  0  0  0  0  0  0
    6.3899   -3.5308    1.9635 H   0  0  0  0  0  0  0  0  0  0  0  0
    4.1048   -5.2436   -1.5332 H   0  0  0  0  0  0  0  0  0  0  0  0
    5.8921   -1.5518   -2.3210 H   0  0  0  0  0  0  0  0  0  0  0  0
    4.6191   -0.6306   -4.3811 H   0  0  0  0  0  0  0  0  0  0  0  0
    2.2292   -1.7315   -4.6488 H   0  0  0  0  0  0  0  0  0  0  0  0
  1  2  2  0
  2  3  1  0
  2  7  1  0
  3  4  1  0
  3 20  1  0
  3 21  1  0
  4  5  1  0
  4 22  1  0
  4 23  1  0
  5  6  1  0
  5 24  1  0
  5 25  1  0
  6 19  1  0
  6 26  1  1
  6  7  1  0
  7  8  2  0
  8  9  1  0
  8 14  1  0
  9 13  1  0
  9 10  2  0
 10 11  1  0
 10 28  1  0
 11 12  2  0
 11 29  1  0
 12 13  1  0
 12 30  1  0
 14 15  1  0
 14 27  1  0
 15 19  1  0
 15 16  2  0
 16 17  1  0
 17 18  2  0
 18 19  1  0
M  END
>  <i_m_ct_stereo_status>  (340) 
1

>  <s_m_source_file>  (340) 
/var/tmp/pbs.5076255.sched01/tmpxmhsyh4a/135ajud44o5.sdf

>  <i_m_source_file_index>  (340) 
8

>  <i_lp_mmshare_version>  (340) 
48012

>  <i_f3d_flags>  (340) 
0

>  <s_epik_input>  (340) 
W0NIMl0xW0NIMl1bQ0gyXUMoPU8pW0NAQEhdKFtDQEBIXTEyKUMoYzNbY0hdW2NIXVtjSF1zMyk9TmM0bjJubm40

>  <s_epik_cmdline>  (340) 
J2VwaWtfcHl0aG9uJywgJy1waHQnLCAnMi4wJywgJy1waCcsICc3LjAnLCAnLXRuJywgJzgnLCAnLW1hJywgJzIwMCcsICctaW1hZScsICc8aW5maWxlLm1hZT4nLCAnLW9tYWUnLCAnPG91dGZpbGUubWFlPic=

>  <r_lp_tautomer_probability>  (340) 
1

>  <r_epik_Ionization_Penalty>  (340) 
0.0744187

>  <r_epik_Ionization_Penalty_Charging>  (340) 
0.0744184

>  <r_epik_Ionization_Penalty_Neutral>  (340) 
3.82835e-07

>  <r_epik_State_Penalty>  (340) 
0.0655259

>  <r_epik_Charging_Adjusted_Penalty>  (340) 
0.139944

>  <i_epik_Tot_Q>  (340) 
0

>  <i_epik_Tot_abs_Q>  (340) 
0

>  <s_epik_Chemistry_Notes>  (340) 
This compound has an imine and may undergo hydrolysis.

>  <s_lp_Force_Field>  (340) 
OPLS3e

>  <r_lp_Energy>  (340) 
25.6454

>  <b_lp_Chiralities_Consistent>  (340) 
1

>  <s_lp_Variant>  (340) 
95:0-1

>  <s_i_glide_gridfile>  (340) 
pfpi4k_grid

>  <i_i_glide_lignum>  (340) 
8

>  <i_i_glide_rotatable_bonds>  (340) 
1

>  <r_i_docking_score>  (340) 
-4.38474

>  <r_i_glide_ligand_efficiency>  (340) 
-0.230776

>  <r_i_glide_ligand_efficiency_sa>  (340) 
-0.615802

>  <r_i_glide_ligand_efficiency_ln>  (340) 
-1.11163

>  <r_i_glide_gscore>  (340) 
-4.38474

>  <r_i_glide_lipo>  (340) 
-0.583165

>  <r_i_glide_hbond>  (340) 
-0.32

>  <r_i_glide_metal>  (340) 
-0

>  <r_i_glide_rewards>  (340) 
-1.83029

>  <r_i_glide_evdw>  (340) 
-24.7769

>  <r_i_glide_ecoul>  (340) 
-4.15462

>  <r_i_glide_erotb>  (340) 
0.24012

>  <r_i_glide_esite>  (340) 
-0.0293601

>  <r_i_glide_emodel>  (340) 
-35.8845

>  <r_i_glide_energy>  (340) 
-28.9316

>  <r_i_glide_einternal>  (340) 
1.63403

>  <r_i_glide_intrahb_reward>  (340) 
-0

>  <i_i_glide_confnum>  (340) 
2

>  <i_i_glide_posenum>  (340) 
32

>  <r_i_glide_eff_state_penalty>  (340) 
0

>  <ligand_id>  (340) 
95

>  <original_smiles>  (340) 
O=C1CCCC2C1C(c1cccs1)=Nc1nnnn12

>  <smiles>  (340) 
[H]c1sc(C2=C3C(=O)C([H])([H])C([H])([H])C([H])([H])C3([H])n3nnnc3N2[H])c([H])c1[H]

$$$$
95:0:2
     RDKit          3D

 30 33  0  0  1  0  0  0  0  0999 V2000
    6.3341   -1.4882   -0.6483 O   0  0  0  0  0  0  0  0  0  0  0  0
    5.4778   -1.7361    0.2017 C   0  0  0  0  0  0  0  0  0  0  0  0
    5.4836   -0.9628    1.5143 C   0  0  0  0  0  0  0  0  0  0  0  0
    5.2904   -1.8817    2.7316 C   0  0  0  0  0  0  0  0  0  0  0  0
    4.1117   -2.8577    2.5674 C   0  0  0  0  0  0  0  0  0  0  0  0
    4.2475   -3.6702    1.2671 C   0  0  2  0  0  0  0  0  0  0  0  0
    4.3979   -2.7442    0.0462 C   0  0  0  0  0  0  0  0  0  0  0  0
    3.6001   -2.8648   -1.0571 C   0  0  0  0  0  0  0  0  0  0  0  0
    3.6051   -2.0371   -2.2442 C   0  0  0  0  0  0  0  0  0  0  0  0
    3.9264   -0.7003   -2.2780 C   0  0  0  0  0  0  0  0  0  0  0  0
    3.8121   -0.1320   -3.5736 C   0  0  0  0  0  0  0  0  0  0  0  0
    3.4178   -1.0390   -4.5140 C   0  0  0  0  0  0  0  0  0  0  0  0
    3.1638   -2.6235   -3.8254 S   0  0  0  0  0  0  0  0  0  0  0  0
    2.5834   -3.8226   -1.0538 N   0  0  0  0  0  0  0  0  0  0  0  0
    2.3896   -4.7134   -0.0098 C   0  0  0  0  0  0  0  0  0  0  0  0
    1.5138   -5.7075    0.0953 N   0  0  0  0  0  0  0  0  0  0  0  0
    1.7667   -6.1976    1.3656 N   0  0  0  0  0  0  0  0  0  0  0  0
    2.7484   -5.5518    1.9505 N   0  0  0  0  0  0  0  0  0  0  0  0
    3.1422   -4.5947    1.0735 N   0  0  0  0  0  0  0  0  0  0  0  0
    4.6914   -0.2152    1.4726 H   0  0  0  0  0  0  0  0  0  0  0  0
    6.4288   -0.4325    1.5934 H   0  0  0  0  0  0  0  0  0  0  0  0
    6.2068   -2.4433    2.9010 H   0  0  0  0  0  0  0  0  0  0  0  0
    5.1321   -1.2643    3.6166 H   0  0  0  0  0  0  0  0  0  0  0  0
    4.0757   -3.5278    3.4259 H   0  0  0  0  0  0  0  0  0  0  0  0
    3.1720   -2.3033    2.5534 H   0  0  0  0  0  0  0  0  0  0  0  0
    5.1487   -4.2818    1.3139 H   0  0  0  0  0  0  0  0  0  0  0  0
    2.0225   -3.9491   -1.8851 H   0  0  0  0  0  0  0  0  0  0  0  0
    4.2190   -0.0860   -1.4414 H   0  0  0  0  0  0  0  0  0  0  0  0
    4.0185    0.9136   -3.7580 H   0  0  0  0  0  0  0  0  0  0  0  0
    3.2452   -0.8513   -5.5617 H   0  0  0  0  0  0  0  0  0  0  0  0
  1  2  2  0
  2  3  1  0
  2  7  1  0
  3  4  1  0
  3 20  1  0
  3 21  1  0
  4  5  1  0
  4 22  1  0
  4 23  1  0
  5  6  1  0
  5 24  1  0
  5 25  1  0
  6 19  1  0
  6 26  1  1
  6  7  1  0
  7  8  2  0
  8  9  1  0
  8 14  1  0
  9 13  1  0
  9 10  2  0
 10 11  1  0
 10 28  1  0
 11 12  2  0
 11 29  1  0
 12 13  1  0
 12 30  1  0
 14 15  1  0
 14 27  1  0
 15 19  1  0
 15 16  2  0
 16 17  1  0
 17 18  2  0
 18 19  1  0
M  END
>  <i_m_ct_stereo_status>  (341) 
1

>  <s_m_source_file>  (341) 
/var/tmp/pbs.5076255.sched01/tmpxmhsyh4a/135ajud44o5.sdf

>  <i_m_source_file_index>  (341) 
8

>  <i_lp_mmshare_version>  (341) 
48012

>  <i_f3d_flags>  (341) 
0

>  <s_epik_input>  (341) 
W0NIMl0xW0NIMl1bQ0gyXUMoPU8pW0NAQEhdKFtDQEBIXTEyKUMoYzNbY0hdW2NIXVtjSF1zMyk9TmM0bjJubm40

>  <s_epik_cmdline>  (341) 
J2VwaWtfcHl0aG9uJywgJy1waHQnLCAnMi4wJywgJy1waCcsICc3LjAnLCAnLXRuJywgJzgnLCAnLW1hJywgJzIwMCcsICctaW1hZScsICc8aW5maWxlLm1hZT4nLCAnLW9tYWUnLCAnPG91dGZpbGUubWFlPic=

>  <r_lp_tautomer_probability>  (341) 
1

>  <r_epik_Ionization_Penalty>  (341) 
0.0744187

>  <r_epik_Ionization_Penalty_Charging>  (341) 
0.0744184

>  <r_epik_Ionization_Penalty_Neutral>  (341) 
3.82835e-07

>  <r_epik_State_Penalty>  (341) 
0.0655259

>  <r_epik_Charging_Adjusted_Penalty>  (341) 
0.139944

>  <i_epik_Tot_Q>  (341) 
0

>  <i_epik_Tot_abs_Q>  (341) 
0

>  <s_epik_Chemistry_Notes>  (341) 
This compound has an imine and may undergo hydrolysis.

>  <s_lp_Force_Field>  (341) 
OPLS3e

>  <r_lp_Energy>  (341) 
25.6454

>  <b_lp_Chiralities_Consistent>  (341) 
1

>  <s_lp_Variant>  (341) 
95:0-1

>  <s_i_glide_gridfile>  (341) 
pfpi4k_grid

>  <i_i_glide_lignum>  (341) 
8

>  <i_i_glide_rotatable_bonds>  (341) 
1

>  <r_i_docking_score>  (341) 
-4.30705

>  <r_i_glide_ligand_efficiency>  (341) 
-0.226687

>  <r_i_glide_ligand_efficiency_sa>  (341) 
-0.604892

>  <r_i_glide_ligand_efficiency_ln>  (341) 
-1.09193

>  <r_i_glide_gscore>  (341) 
-4.30705

>  <r_i_glide_lipo>  (341) 
-0.501358

>  <r_i_glide_hbond>  (341) 
-0.118936

>  <r_i_glide_metal>  (341) 
-0

>  <r_i_glide_rewards>  (341) 
-1.58886

>  <r_i_glide_evdw>  (341) 
-23.269

>  <r_i_glide_ecoul>  (341) 
-6.19615

>  <r_i_glide_erotb>  (341) 
0.24012

>  <r_i_glide_esite>  (341) 
-0.245147

>  <r_i_glide_emodel>  (341) 
-37.0536

>  <r_i_glide_energy>  (341) 
-29.4651

>  <r_i_glide_einternal>  (341) 
0.446098

>  <r_i_glide_intrahb_reward>  (341) 
-0

>  <i_i_glide_confnum>  (341) 
2

>  <i_i_glide_posenum>  (341) 
9

>  <r_i_glide_eff_state_penalty>  (341) 
0

>  <ligand_id>  (341) 
95

>  <original_smiles>  (341) 
O=C1CCCC2C1C(c1cccs1)=Nc1nnnn12

>  <smiles>  (341) 
[H]c1sc(C2=C3C(=O)C([H])([H])C([H])([H])C([H])([H])C3([H])n3nnnc3N2[H])c([H])c1[H]

$$$$
95:1:0
     RDKit          3D

 31 34  0  0  1  0  0  0  0  0999 V2000
   -4.9491   -9.3972   -4.7206 O   0  0  0  0  0  0  0  0  0  0  0  0
   -5.1224   -9.8885   -5.9466 C   0  0  0  0  0  0  0  0  0  0  0  0
   -4.2182  -11.1065   -6.0765 C   0  0  0  0  0  0  0  0  0  0  0  0
   -4.2178  -11.7014   -7.4894 C   0  0  0  0  0  0  0  0  0  0  0  0
   -5.6588  -11.7753   -8.0348 C   0  0  0  0  0  0  0  0  0  0  0  0
   -6.3087  -10.3741   -8.1000 C   0  0  2  0  0  0  0  0  0  0  0  0
   -6.0500   -9.4860   -6.8652 C   0  0  0  0  0  0  0  0  0  0  0  0
   -6.9582   -8.3689   -6.6930 C   0  0  0  0  0  0  0  0  0  0  0  0
   -6.6359   -7.1396   -5.9745 C   0  0  0  0  0  0  0  0  0  0  0  0
   -5.3933   -6.7567   -5.5336 C   0  0  0  0  0  0  0  0  0  0  0  0
   -5.4038   -5.4503   -4.9672 C   0  0  0  0  0  0  0  0  0  0  0  0
   -6.6150   -4.8128   -5.0448 C   0  0  0  0  0  0  0  0  0  0  0  0
   -7.7864   -5.8414   -5.8294 S   0  0  0  0  0  0  0  0  0  0  0  0
   -8.1840   -8.4434   -7.2739 N   0  0  0  0  0  0  0  0  0  0  0  0
   -8.6078   -9.5287   -8.0291 C   0  0  0  0  0  0  0  0  0  0  0  0
   -9.8248   -9.7876   -8.4933 N   0  0  0  0  0  0  0  0  0  0  0  0
   -9.5934  -10.9311   -9.2751 N   0  0  0  0  0  0  0  0  0  0  0  0
   -8.3446  -11.2946   -9.2555 N   0  0  0  0  0  0  0  0  0  0  0  0
   -7.7209  -10.4355   -8.4090 N   0  0  0  0  0  0  0  0  0  0  0  0
   -4.5333  -11.8670   -5.3476 H   0  0  0  0  0  0  0  0  0  0  0  0
   -3.1967  -10.8004   -5.8046 H   0  0  0  0  0  0  0  0  0  0  0  0
   -3.6043  -11.0752   -8.1416 H   0  0  0  0  0  0  0  0  0  0  0  0
   -3.7587  -12.6915   -7.4699 H   0  0  0  0  0  0  0  0  0  0  0  0
   -5.6471  -12.2188   -9.0348 H   0  0  0  0  0  0  0  0  0  0  0  0
   -6.2637  -12.4253   -7.3964 H   0  0  0  0  0  0  0  0  0  0  0  0
   -5.8658   -9.8307   -8.9432 H   0  0  0  0  0  0  0  0  0  0  0  0
   -8.9133   -7.7850   -7.0691 H   0  0  0  0  0  0  0  0  0  0  0  0
   -4.4684   -7.2956   -5.6636 H   0  0  0  0  0  0  0  0  0  0  0  0
   -4.5114   -5.0121   -4.5484 H   0  0  0  0  0  0  0  0  0  0  0  0
   -6.8690   -3.8085   -4.7144 H   0  0  0  0  0  0  0  0  0  0  0  0
   -4.3528   -9.9901   -4.2616 H   0  0  0  0  0  0  0  0  0  0  0  0
  1  2  1  0
  1 31  1  0
  2  3  1  0
  2  7  2  0
  3  4  1  0
  3 20  1  0
  3 21  1  0
  4  5  1  0
  4 22  1  0
  4 23  1  0
  5  6  1  0
  5 24  1  0
  5 25  1  0
  6 19  1  0
  6 26  1  6
  6  7  1  0
  7  8  1  0
  8  9  1  0
  8 14  2  0
  9 13  1  0
  9 10  2  0
 10 11  1  0
 10 28  1  0
 11 12  2  0
 11 29  1  0
 12 13  1  0
 12 30  1  0
 14 15  1  0
 14 27  1  0
 15 19  1  0
 15 16  2  0
 16 17  1  0
 17 18  2  0
 18 19  1  0
M  CHG  1  14   1
M  END
>  <i_m_ct_stereo_status>  (342) 
1

>  <s_m_source_file>  (342) 
/var/tmp/pbs.5076255.sched01/tmpxmhsyh4a/135ajud44o5.sdf

>  <i_m_source_file_index>  (342) 
9

>  <i_lp_mmshare_version>  (342) 
48012

>  <i_f3d_flags>  (342) 
0

>  <s_epik_input>  (342) 
W0NIMl0xW0NIMl1bQ0gyXUMoPU8pW0NAQEhdKFtDQEBIXTEyKUMoYzNbY0hdW2NIXVtjSF1zMyk9TmM0bjJubm40

>  <s_epik_cmdline>  (342) 
J2VwaWtfcHl0aG9uJywgJy1waHQnLCAnMi4wJywgJy1waCcsICc3LjAnLCAnLXRuJywgJzgnLCAnLW1hJywgJzIwMCcsICctaW1hZScsICc8aW5maWxlLm1hZT4nLCAnLW9tYWUnLCAnPG91dGZpbGUubWFlPic=

>  <r_epik_Ionization_Penalty>  (342) 
1.26602

>  <r_epik_Ionization_Penalty_Charging>  (342) 
0

>  <r_epik_Ionization_Penalty_Neutral>  (342) 
1.26602

>  <r_epik_State_Penalty>  (342) 
1.33704

>  <r_epik_Charging_Adjusted_Penalty>  (342) 
1.33704

>  <i_epik_Tot_Q>  (342) 
1

>  <i_epik_Tot_abs_Q>  (342) 
1

>  <s_epik_Chemistry_Notes>  (342) 
This compound has an imine and may undergo hydrolysis.

>  <s_lp_Force_Field>  (342) 
OPLS3e

>  <r_lp_Energy>  (342) 
30.6194

>  <b_lp_Chiralities_Consistent>  (342) 
1

>  <s_lp_Variant>  (342) 
95:0-2

>  <s_i_glide_gridfile>  (342) 
pfpi4k_grid

>  <i_i_glide_lignum>  (342) 
9

>  <i_i_glide_rotatable_bonds>  (342) 
2

>  <r_i_docking_score>  (342) 
-5.29944

>  <r_i_glide_ligand_efficiency>  (342) 
-0.278918

>  <r_i_glide_ligand_efficiency_sa>  (342) 
-0.744265

>  <r_i_glide_ligand_efficiency_ln>  (342) 
-1.34352

>  <r_i_glide_gscore>  (342) 
-5.29944

>  <r_i_glide_lipo>  (342) 
-1.69246

>  <r_i_glide_hbond>  (342) 
-0.301069

>  <r_i_glide_metal>  (342) 
-0

>  <r_i_glide_rewards>  (342) 
-1.98249

>  <r_i_glide_evdw>  (342) 
-26.6249

>  <r_i_glide_ecoul>  (342) 
-1.53848

>  <r_i_glide_erotb>  (342) 
0.238593

>  <r_i_glide_esite>  (342) 
0

>  <r_i_glide_emodel>  (342) 
-33.5424

>  <r_i_glide_energy>  (342) 
-28.1633

>  <r_i_glide_einternal>  (342) 
4.56392

>  <r_i_glide_intrahb_reward>  (342) 
-0

>  <i_i_glide_confnum>  (342) 
6

>  <i_i_glide_posenum>  (342) 
20

>  <r_i_glide_eff_state_penalty>  (342) 
0

>  <ligand_id>  (342) 
95

>  <original_smiles>  (342) 
O=C1CCCC2C1C(c1cccs1)=Nc1nnnn12

>  <smiles>  (342) 
[H]OC1=C2C(c3sc([H])c([H])c3[H])=[N+]([H])c3nnnn3C2([H])C([H])([H])C([H])([H])C1([H])[H]

$$$$
95:1:1
     RDKit          3D

 31 34  0  0  1  0  0  0  0  0999 V2000
    2.3268   -4.1704   -0.6091 O   0  0  0  0  0  0  0  0  0  0  0  0
    3.3004   -3.8748    0.2606 C   0  0  0  0  0  0  0  0  0  0  0  0
    2.8366   -4.3744    1.6057 C   0  0  0  0  0  0  0  0  0  0  0  0
    3.7640   -3.9362    2.7344 C   0  0  0  0  0  0  0  0  0  0  0  0
    5.2347   -4.1261    2.3323 C   0  0  0  0  0  0  0  0  0  0  0  0
    5.5919   -3.2921    1.0861 C   0  0  2  0  0  0  0  0  0  0  0  0
    4.5158   -3.3233   -0.0246 C   0  0  0  0  0  0  0  0  0  0  0  0
    4.9885   -2.9450   -1.3375 C   0  0  0  0  0  0  0  0  0  0  0  0
    4.1354   -2.3420   -2.3295 C   0  0  0  0  0  0  0  0  0  0  0  0
    3.1914   -2.9797   -3.0831 C   0  0  0  0  0  0  0  0  0  0  0  0
    2.5209   -2.0638   -3.9239 C   0  0  0  0  0  0  0  0  0  0  0  0
    3.0174   -0.7869   -3.8877 C   0  0  0  0  0  0  0  0  0  0  0  0
    4.2830   -0.6504   -2.7178 S   0  0  0  0  0  0  0  0  0  0  0  0
    6.3145   -3.0021   -1.6414 N   0  0  0  0  0  0  0  0  0  0  0  0
    7.2619   -3.4381   -0.7161 C   0  0  0  0  0  0  0  0  0  0  0  0
    8.5449   -3.6836   -0.8888 N   0  0  0  0  0  0  0  0  0  0  0  0
    8.9616   -4.0088    0.3818 N   0  0  0  0  0  0  0  0  0  0  0  0
    7.9885   -3.9469    1.2419 N   0  0  0  0  0  0  0  0  0  0  0  0
    6.8989   -3.5904    0.5433 N   0  0  0  0  0  0  0  0  0  0  0  0
    2.7916   -5.4643    1.5584 H   0  0  0  0  0  0  0  0  0  0  0  0
    1.8234   -4.0120    1.7925 H   0  0  0  0  0  0  0  0  0  0  0  0
    3.5682   -2.8849    2.9649 H   0  0  0  0  0  0  0  0  0  0  0  0
    3.5363   -4.5110    3.6351 H   0  0  0  0  0  0  0  0  0  0  0  0
    5.8563   -3.8236    3.1717 H   0  0  0  0  0  0  0  0  0  0  0  0
    5.4372   -5.1801    2.1418 H   0  0  0  0  0  0  0  0  0  0  0  0
    5.6262   -2.2485    1.3980 H   0  0  0  0  0  0  0  0  0  0  0  0
    6.6607   -2.8979   -2.5867 H   0  0  0  0  0  0  0  0  0  0  0  0
    2.8966   -4.0248   -3.0933 H   0  0  0  0  0  0  0  0  0  0  0  0
    1.6850   -2.3844   -4.5165 H   0  0  0  0  0  0  0  0  0  0  0  0
    2.6885    0.0903   -4.4201 H   0  0  0  0  0  0  0  0  0  0  0  0
    2.6603   -3.9864   -1.4659 H   0  0  0  0  0  0  0  0  0  0  0  0
  1  2  1  0
  1 31  1  0
  2  3  1  0
  2  7  2  0
  3  4  1  0
  3 20  1  0
  3 21  1  0
  4  5  1  0
  4 22  1  0
  4 23  1  0
  5  6  1  0
  5 24  1  0
  5 25  1  0
  6 19  1  0
  6 26  1  1
  6  7  1  0
  7  8  1  0
  8  9  1  0
  8 14  2  0
  9 13  1  0
  9 10  2  0
 10 11  1  0
 10 28  1  0
 11 12  2  0
 11 29  1  0
 12 13  1  0
 12 30  1  0
 14 15  1  0
 14 27  1  0
 15 19  1  0
 15 16  2  0
 16 17  1  0
 17 18  2  0
 18 19  1  0
M  CHG  1  14   1
M  END
>  <i_m_ct_stereo_status>  (343) 
1

>  <s_m_source_file>  (343) 
/var/tmp/pbs.5076255.sched01/tmpxmhsyh4a/135ajud44o5.sdf

>  <i_m_source_file_index>  (343) 
9

>  <i_lp_mmshare_version>  (343) 
48012

>  <i_f3d_flags>  (343) 
0

>  <s_epik_input>  (343) 
W0NIMl0xW0NIMl1bQ0gyXUMoPU8pW0NAQEhdKFtDQEBIXTEyKUMoYzNbY0hdW2NIXVtjSF1zMyk9TmM0bjJubm40

>  <s_epik_cmdline>  (343) 
J2VwaWtfcHl0aG9uJywgJy1waHQnLCAnMi4wJywgJy1waCcsICc3LjAnLCAnLXRuJywgJzgnLCAnLW1hJywgJzIwMCcsICctaW1hZScsICc8aW5maWxlLm1hZT4nLCAnLW9tYWUnLCAnPG91dGZpbGUubWFlPic=

>  <r_epik_Ionization_Penalty>  (343) 
1.26602

>  <r_epik_Ionization_Penalty_Charging>  (343) 
0

>  <r_epik_Ionization_Penalty_Neutral>  (343) 
1.26602

>  <r_epik_State_Penalty>  (343) 
1.33704

>  <r_epik_Charging_Adjusted_Penalty>  (343) 
1.33704

>  <i_epik_Tot_Q>  (343) 
1

>  <i_epik_Tot_abs_Q>  (343) 
1

>  <s_epik_Chemistry_Notes>  (343) 
This compound has an imine and may undergo hydrolysis.

>  <s_lp_Force_Field>  (343) 
OPLS3e

>  <r_lp_Energy>  (343) 
30.6194

>  <b_lp_Chiralities_Consistent>  (343) 
1

>  <s_lp_Variant>  (343) 
95:0-2

>  <s_i_glide_gridfile>  (343) 
pfpi4k_grid

>  <i_i_glide_lignum>  (343) 
9

>  <i_i_glide_rotatable_bonds>  (343) 
2

>  <r_i_docking_score>  (343) 
-4.00099

>  <r_i_glide_ligand_efficiency>  (343) 
-0.210579

>  <r_i_glide_ligand_efficiency_sa>  (343) 
-0.561908

>  <r_i_glide_ligand_efficiency_ln>  (343) 
-1.01434

>  <r_i_glide_gscore>  (343) 
-4.00099

>  <r_i_glide_lipo>  (343) 
-0.638026

>  <r_i_glide_hbond>  (343) 
-0.000875284

>  <r_i_glide_metal>  (343) 
-0

>  <r_i_glide_rewards>  (343) 
-1.92837

>  <r_i_glide_evdw>  (343) 
-19.5426

>  <r_i_glide_ecoul>  (343) 
-4.38948

>  <r_i_glide_erotb>  (343) 
0.238593

>  <r_i_glide_esite>  (343) 
-0.0367621

>  <r_i_glide_emodel>  (343) 
-25.9228

>  <r_i_glide_energy>  (343) 
-23.9321

>  <r_i_glide_einternal>  (343) 
7.41323

>  <r_i_glide_intrahb_reward>  (343) 
-0

>  <i_i_glide_confnum>  (343) 
6

>  <i_i_glide_posenum>  (343) 
10

>  <r_i_glide_eff_state_penalty>  (343) 
0

>  <ligand_id>  (343) 
95

>  <original_smiles>  (343) 
O=C1CCCC2C1C(c1cccs1)=Nc1nnnn12

>  <smiles>  (343) 
[H]OC1=C2C(c3sc([H])c([H])c3[H])=[N+]([H])c3nnnn3C2([H])C([H])([H])C([H])([H])C1([H])[H]

$$$$
95:1:2
     RDKit          3D

 31 34  0  0  1  0  0  0  0  0999 V2000
    0.4149    0.7873    1.7142 O   0  0  0  0  0  0  0  0  0  0  0  0
    0.2125    0.6143    3.0303 C   0  0  0  0  0  0  0  0  0  0  0  0
   -0.7663    1.6688    3.5213 C   0  0  0  0  0  0  0  0  0  0  0  0
   -0.9288    1.6377    5.0453 C   0  0  0  0  0  0  0  0  0  0  0  0
   -1.0602    0.1914    5.5544 C   0  0  0  0  0  0  0  0  0  0  0  0
    0.1887   -0.6459    5.2007 C   0  0  2  0  0  0  0  0  0  0  0  0
    0.7179   -0.4112    3.7731 C   0  0  0  0  0  0  0  0  0  0  0  0
    1.5422   -1.4634    3.2164 C   0  0  0  0  0  0  0  0  0  0  0  0
    2.5531   -1.1781    2.2291 C   0  0  0  0  0  0  0  0  0  0  0  0
    3.0051   -2.0769    1.2962 C   0  0  0  0  0  0  0  0  0  0  0  0
    4.0725   -1.5392    0.5195 C   0  0  0  0  0  0  0  0  0  0  0  0
    4.4103   -0.2604    0.8818 C   0  0  0  0  0  0  0  0  0  0  0  0
    3.4261    0.3218    2.1883 S   0  0  0  0  0  0  0  0  0  0  0  0
    1.4666   -2.7187    3.7277 N   0  0  0  0  0  0  0  0  0  0  0  0
    0.6214   -3.0401    4.7856 C   0  0  0  0  0  0  0  0  0  0  0  0
    0.3324   -4.2225    5.2931 N   0  0  0  0  0  0  0  0  0  0  0  0
   -0.4727   -3.8985    6.3776 N   0  0  0  0  0  0  0  0  0  0  0  0
   -0.6375   -2.6098    6.4912 N   0  0  0  0  0  0  0  0  0  0  0  0
    0.0274   -2.0604    5.4543 N   0  0  0  0  0  0  0  0  0  0  0  0
   -1.7346    1.4923    3.0472 H   0  0  0  0  0  0  0  0  0  0  0  0
   -0.4318    2.6582    3.2000 H   0  0  0  0  0  0  0  0  0  0  0  0
   -0.0592    2.1128    5.5058 H   0  0  0  0  0  0  0  0  0  0  0  0
   -1.7994    2.2250    5.3409 H   0  0  0  0  0  0  0  0  0  0  0  0
   -1.1921    0.2045    6.6374 H   0  0  0  0  0  0  0  0  0  0  0  0
   -1.9511   -0.2683    5.1245 H   0  0  0  0  0  0  0  0  0  0  0  0
    0.9982   -0.3114    5.8503 H   0  0  0  0  0  0  0  0  0  0  0  0
    1.9845   -3.4944    3.3378 H   0  0  0  0  0  0  0  0  0  0  0  0
    2.6384   -3.0827    1.1643 H   0  0  0  0  0  0  0  0  0  0  0  0
    4.5436   -2.1086   -0.2689 H   0  0  0  0  0  0  0  0  0  0  0  0
    5.1618    0.3913    0.4674 H   0  0  0  0  0  0  0  0  0  0  0  0
   -0.0813    1.5397    1.4221 H   0  0  0  0  0  0  0  0  0  0  0  0
  1  2  1  0
  1 31  1  0
  2  3  1  0
  2  7  2  0
  3  4  1  0
  3 20  1  0
  3 21  1  0
  4  5  1  0
  4 22  1  0
  4 23  1  0
  5  6  1  0
  5 24  1  0
  5 25  1  0
  6 19  1  0
  6 26  1  1
  6  7  1  0
  7  8  1  0
  8  9  1  0
  8 14  2  0
  9 13  1  0
  9 10  2  0
 10 11  1  0
 10 28  1  0
 11 12  2  0
 11 29  1  0
 12 13  1  0
 12 30  1  0
 14 15  1  0
 14 27  1  0
 15 19  1  0
 15 16  2  0
 16 17  1  0
 17 18  2  0
 18 19  1  0
M  CHG  1  14   1
M  END
>  <i_m_ct_stereo_status>  (344) 
1

>  <s_m_source_file>  (344) 
/var/tmp/pbs.5076255.sched01/tmpxmhsyh4a/135ajud44o5.sdf

>  <i_m_source_file_index>  (344) 
9

>  <i_lp_mmshare_version>  (344) 
48012

>  <i_f3d_flags>  (344) 
0

>  <s_epik_input>  (344) 
W0NIMl0xW0NIMl1bQ0gyXUMoPU8pW0NAQEhdKFtDQEBIXTEyKUMoYzNbY0hdW2NIXVtjSF1zMyk9TmM0bjJubm40

>  <s_epik_cmdline>  (344) 
J2VwaWtfcHl0aG9uJywgJy1waHQnLCAnMi4wJywgJy1waCcsICc3LjAnLCAnLXRuJywgJzgnLCAnLW1hJywgJzIwMCcsICctaW1hZScsICc8aW5maWxlLm1hZT4nLCAnLW9tYWUnLCAnPG91dGZpbGUubWFlPic=

>  <r_epik_Ionization_Penalty>  (344) 
1.26602

>  <r_epik_Ionization_Penalty_Charging>  (344) 
0

>  <r_epik_Ionization_Penalty_Neutral>  (344) 
1.26602

>  <r_epik_State_Penalty>  (344) 
1.33704

>  <r_epik_Charging_Adjusted_Penalty>  (344) 
1.33704

>  <i_epik_Tot_Q>  (344) 
1

>  <i_epik_Tot_abs_Q>  (344) 
1

>  <s_epik_Chemistry_Notes>  (344) 
This compound has an imine and may undergo hydrolysis.

>  <s_lp_Force_Field>  (344) 
OPLS3e

>  <r_lp_Energy>  (344) 
30.6194

>  <b_lp_Chiralities_Consistent>  (344) 
1

>  <s_lp_Variant>  (344) 
95:0-2

>  <s_i_glide_gridfile>  (344) 
pfpi4k_grid

>  <i_i_glide_lignum>  (344) 
9

>  <i_i_glide_rotatable_bonds>  (344) 
2

>  <r_i_docking_score>  (344) 
-2.93395

>  <r_i_glide_ligand_efficiency>  (344) 
-0.154419

>  <r_i_glide_ligand_efficiency_sa>  (344) 
-0.412051

>  <r_i_glide_ligand_efficiency_ln>  (344) 
-0.74382

>  <r_i_glide_gscore>  (344) 
-2.93395

>  <r_i_glide_lipo>  (344) 
-0.172306

>  <r_i_glide_hbond>  (344) 
0

>  <r_i_glide_metal>  (344) 
-0

>  <r_i_glide_rewards>  (344) 
-1.55579

>  <r_i_glide_evdw>  (344) 
-19.6639

>  <r_i_glide_ecoul>  (344) 
-2.48593

>  <r_i_glide_erotb>  (344) 
0.238593

>  <r_i_glide_esite>  (344) 
-0.0883653

>  <r_i_glide_emodel>  (344) 
-25.3599

>  <r_i_glide_energy>  (344) 
-22.1498

>  <r_i_glide_einternal>  (344) 
2.44825

>  <r_i_glide_intrahb_reward>  (344) 
-0

>  <i_i_glide_confnum>  (344) 
2

>  <i_i_glide_posenum>  (344) 
24

>  <r_i_glide_eff_state_penalty>  (344) 
0

>  <ligand_id>  (344) 
95

>  <original_smiles>  (344) 
O=C1CCCC2C1C(c1cccs1)=Nc1nnnn12

>  <smiles>  (344) 
[H]OC1=C2C(c3sc([H])c([H])c3[H])=[N+]([H])c3nnnn3C2([H])C([H])([H])C([H])([H])C1([H])[H]

$$$$
96:0:0
     RDKit          3D

 51 54  0  0  1  0  0  0  0  0999 V2000
    2.2340   -8.4223    7.3426 C   0  0  0  0  0  0  0  0  0  0  0  0
    2.1158   -9.2391    6.0550 C   0  0  0  0  0  0  0  0  0  0  0  0
    3.4261   -9.2922    5.2293 C   0  0  2  0  0  0  0  0  0  0  0  0
    3.8594   -8.1826    4.2360 C   0  0  2  0  0  0  0  0  0  0  0  0
    4.5758   -7.0174    4.9279 C   0  0  0  0  0  0  0  0  0  0  0  0
    3.4605   -6.0170    5.0887 C   0  0  0  0  0  0  0  0  0  0  0  0
    3.5966   -4.8838    6.0740 C   0  0  0  0  0  0  0  0  0  0  0  0
    2.4361   -6.2980    4.2712 C   0  0  0  0  0  0  0  0  0  0  0  0
    2.8211   -7.4500    3.3764 C   0  0  2  0  0  0  0  0  0  0  0  0
    1.7589   -8.3308    2.6334 C   0  0  2  0  0  0  0  0  0  0  0  0
    2.2075   -8.4608    1.3043 O   0  0  0  0  0  0  0  0  0  0  0  0
    0.3064   -7.8020    2.6194 C   0  0  0  0  0  0  0  0  0  0  0  0
   -0.0388   -6.7148    2.1492 O   0  0  0  0  0  0  0  0  0  0  0  0
   -0.6715   -8.8123    3.2405 C   0  0  1  0  0  0  0  0  0  0  0  0
   -1.8816   -9.0845    2.3380 C   0  0  0  0  0  0  0  0  0  0  0  0
    0.2437  -10.0078    3.4261 C   0  0  0  0  0  0  0  0  0  0  0  0
    1.5354   -9.7247    3.1644 C   0  0  0  0  0  0  0  0  0  0  0  0
    2.5848  -10.6159    3.2450 O   0  0  0  0  0  0  0  0  0  0  0  0
    3.7043  -10.3430    4.1260 C   0  0  2  0  0  0  0  0  0  0  0  0
    4.2642  -11.7459    4.5143 C   0  0  0  0  0  0  0  0  0  0  0  0
    5.0407  -11.7667    5.8510 C   0  0  0  0  0  0  0  0  0  0  0  0
    5.1091  -12.3844    3.3880 C   0  0  0  0  0  0  0  0  0  0  0  0
    4.6646   -9.2771    3.5162 C   0  0  2  0  0  0  0  0  0  0  0  0
    6.4599   -9.2758    3.8610 Cl  0  0  0  0  0  0  0  0  0  0  0  0
    1.2678   -8.3692    7.8395 H   0  0  0  0  0  0  0  0  0  0  0  0
    2.5387   -7.4023    7.1395 H   0  0  0  0  0  0  0  0  0  0  0  0
    2.9504   -8.8570    8.0342 H   0  0  0  0  0  0  0  0  0  0  0  0
    1.7915  -10.2535    6.2976 H   0  0  0  0  0  0  0  0  0  0  0  0
    1.2934   -8.7811    5.5076 H   0  0  0  0  0  0  0  0  0  0  0  0
    4.2461   -9.3578    5.9464 H   0  0  0  0  0  0  0  0  0  0  0  0
    5.0002   -7.2898    5.8937 H   0  0  0  0  0  0  0  0  0  0  0  0
    5.3719   -6.6053    4.3111 H   0  0  0  0  0  0  0  0  0  0  0  0
    3.7660   -5.2750    7.0819 H   0  0  0  0  0  0  0  0  0  0  0  0
    2.6975   -4.2662    6.0822 H   0  0  0  0  0  0  0  0  0  0  0  0
    4.4546   -4.2600    5.8060 H   0  0  0  0  0  0  0  0  0  0  0  0
    1.5266   -5.7356    4.1936 H   0  0  0  0  0  0  0  0  0  0  0  0
    3.3696   -6.9274    2.5810 H   0  0  0  0  0  0  0  0  0  0  0  0
    1.6101   -9.0525    0.8624 H   0  0  0  0  0  0  0  0  0  0  0  0
   -1.0076   -8.4620    4.2212 H   0  0  0  0  0  0  0  0  0  0  0  0
   -1.5757   -9.4247    1.3538 H   0  0  0  0  0  0  0  0  0  0  0  0
   -2.4933   -8.1962    2.2017 H   0  0  0  0  0  0  0  0  0  0  0  0
   -2.5238   -9.8525    2.7638 H   0  0  0  0  0  0  0  0  0  0  0  0
   -0.1290  -10.9568    3.7768 H   0  0  0  0  0  0  0  0  0  0  0  0
    3.4107  -12.4103    4.6688 H   0  0  0  0  0  0  0  0  0  0  0  0
    5.9117  -11.1115    5.8194 H   0  0  0  0  0  0  0  0  0  0  0  0
    5.3930  -12.7673    6.0914 H   0  0  0  0  0  0  0  0  0  0  0  0
    4.4056  -11.4382    6.6770 H   0  0  0  0  0  0  0  0  0  0  0  0
    5.9620  -11.7665    3.0985 H   0  0  0  0  0  0  0  0  0  0  0  0
    4.5138  -12.5511    2.4927 H   0  0  0  0  0  0  0  0  0  0  0  0
    5.5129  -13.3489    3.6977 H   0  0  0  0  0  0  0  0  0  0  0  0
    4.5834   -9.2416    2.4300 H   0  0  0  0  0  0  0  0  0  0  0  0
  1  2  1  0
  1 25  1  0
  1 26  1  0
  1 27  1  0
  2  3  1  0
  2 28  1  0
  2 29  1  0
  3 19  1  0
  3  4  1  0
  3 30  1  1
  4  9  1  0
  4 23  1  0
  4  5  1  1
  5  6  1  0
  5 31  1  0
  5 32  1  0
  6  7  1  0
  6  8  2  0
  7 33  1  0
  7 34  1  0
  7 35  1  0
  8  9  1  0
  8 36  1  0
  9 10  1  0
  9 37  1  6
 10 17  1  0
 10 11  1  6
 10 12  1  0
 11 38  1  0
 12 13  2  0
 12 14  1  0
 14 15  1  0
 14 16  1  0
 14 39  1  1
 15 40  1  0
 15 41  1  0
 15 42  1  0
 16 17  2  0
 16 43  1  0
 17 18  1  0
 18 19  1  0
 19 20  1  1
 19 23  1  0
 20 21  1  0
 20 22  1  0
 20 44  1  0
 21 45  1  0
 21 46  1  0
 21 47  1  0
 22 48  1  0
 22 49  1  0
 22 50  1  0
 23 24  1  0
 23 51  1  6
M  END
>  <i_m_ct_stereo_status>  (345) 
1

>  <s_m_source_file>  (345) 
/var/tmp/pbs.5076255.sched01/tmpxmhsyh4a/135ajud44o5.sdf

>  <i_m_source_file_index>  (345) 
10

>  <i_lp_mmshare_version>  (345) 
48012

>  <i_f3d_flags>  (345) 
0

>  <s_epik_input>  (345) 
W0NIM11bQ0gyXVtDQEhdMVtDQEBdKFtDQEBIXTJDbCkoW0NIXShbQ0gzXSlbQ0gzXSlPQyg9W0NIXVtDQEBIXShDMz1PKVtDSDNdKVtDQF0zKFtPSF0pW0NASF0oW0NAQF0xMjQpW0NIXT1DKFtDSDJdNClbQ0gzXQ==

>  <s_epik_cmdline>  (345) 
J2VwaWtfcHl0aG9uJywgJy1waHQnLCAnMi4wJywgJy1waCcsICc3LjAnLCAnLXRuJywgJzgnLCAnLW1hJywgJzIwMCcsICctaW1hZScsICc8aW5maWxlLm1hZT4nLCAnLW9tYWUnLCAnPG91dGZpbGUubWFlPic=

>  <r_lp_tautomer_probability>  (345) 
1

>  <r_epik_Ionization_Penalty>  (345) 
2.72577e-06

>  <r_epik_Ionization_Penalty_Charging>  (345) 
0

>  <r_epik_Ionization_Penalty_Neutral>  (345) 
2.72577e-06

>  <r_epik_State_Penalty>  (345) 
-0

>  <r_epik_Charging_Adjusted_Penalty>  (345) 
0

>  <i_epik_Tot_Q>  (345) 
0

>  <i_epik_Tot_abs_Q>  (345) 
0

>  <s_lp_Force_Field>  (345) 
OPLS3e

>  <r_lp_Energy>  (345) 
37.7434

>  <b_lp_Chiralities_Consistent>  (345) 
1

>  <s_lp_Variant>  (345) 
96:0-1

>  <s_i_glide_gridfile>  (345) 
pfpi4k_grid

>  <i_i_glide_lignum>  (345) 
10

>  <i_i_glide_rotatable_bonds>  (345) 
3

>  <r_i_docking_score>  (345) 
-3.20224

>  <r_i_glide_ligand_efficiency>  (345) 
-0.133427

>  <r_i_glide_ligand_efficiency_sa>  (345) 
-0.38487

>  <r_i_glide_ligand_efficiency_ln>  (345) 
-0.766444

>  <r_i_glide_gscore>  (345) 
-3.20224

>  <r_i_glide_lipo>  (345) 
-0.352802

>  <r_i_glide_hbond>  (345) 
-0.13127

>  <r_i_glide_metal>  (345) 
-0

>  <r_i_glide_rewards>  (345) 
-1.01673

>  <r_i_glide_evdw>  (345) 
-18.3359

>  <r_i_glide_ecoul>  (345) 
-4.9331

>  <r_i_glide_erotb>  (345) 
0

>  <r_i_glide_esite>  (345) 
-0.0446811

>  <r_i_glide_emodel>  (345) 
-23.582

>  <r_i_glide_energy>  (345) 
-23.269

>  <r_i_glide_einternal>  (345) 
8.85051

>  <r_i_glide_intrahb_reward>  (345) 
-0

>  <i_i_glide_confnum>  (345) 
1

>  <i_i_glide_posenum>  (345) 
34

>  <r_i_glide_eff_state_penalty>  (345) 
0

>  <ligand_id>  (345) 
96

>  <original_smiles>  (345) 
CCC1C23CC(C)=CC2C2(O)C(=O)C(C)C=C2OC1(C(C)C)C3Cl

>  <smiles>  (345) 
[H]OC12C(=O)C([H])(C([H])([H])[H])C([H])=C1OC1(C([H])(C([H])([H])[H])C([H])([H])[H])C([H])(Cl)C3(C([H])([H])C(C([H])([H])[H])=C([H])C23[H])C1([H])C([H])([H])C([H])([H])[H]

$$$$
96:0:1
     RDKit          3D

 51 54  0  0  1  0  0  0  0  0999 V2000
    1.6435   -9.7696    6.7894 C   0  0  0  0  0  0  0  0  0  0  0  0
    2.1198   -8.4654    6.1244 C   0  0  0  0  0  0  0  0  0  0  0  0
    3.3852   -8.6170    5.2339 C   0  0  2  0  0  0  0  0  0  0  0  0
    3.7619   -7.6261    4.1161 C   0  0  2  0  0  0  0  0  0  0  0  0
    4.4310   -6.3485    4.6327 C   0  0  0  0  0  0  0  0  0  0  0  0
    3.2603   -5.4015    4.7200 C   0  0  0  0  0  0  0  0  0  0  0  0
    3.3561   -4.1377    5.5350 C   0  0  0  0  0  0  0  0  0  0  0  0
    2.2358   -5.8253    3.9683 C   0  0  0  0  0  0  0  0  0  0  0  0
    2.6641   -7.0566    3.2015 C   0  0  2  0  0  0  0  0  0  0  0  0
    1.6287   -8.0765    2.6183 C   0  0  2  0  0  0  0  0  0  0  0  0
    2.0499   -8.3469    1.3039 O   0  0  0  0  0  0  0  0  0  0  0  0
    0.1535   -7.6342    2.6183 C   0  0  0  0  0  0  0  0  0  0  0  0
   -0.2756   -6.6286    2.0532 O   0  0  0  0  0  0  0  0  0  0  0  0
   -0.7357   -8.6107    3.3879 C   0  0  1  0  0  0  0  0  0  0  0  0
   -1.9634   -9.0763    2.5743 C   0  0  0  0  0  0  0  0  0  0  0  0
    0.2543   -9.7151    3.6714 C   0  0  0  0  0  0  0  0  0  0  0  0
    1.5141   -9.3893    3.3122 C   0  0  0  0  0  0  0  0  0  0  0  0
    2.6114  -10.1953    3.4085 O   0  0  0  0  0  0  0  0  0  0  0  0
    3.6938   -9.8103    4.2880 C   0  0  2  0  0  0  0  0  0  0  0  0
    4.3932  -11.1141    4.8200 C   0  0  0  0  0  0  0  0  0  0  0  0
    3.4634  -12.3403    4.9164 C   0  0  0  0  0  0  0  0  0  0  0  0
    5.1529  -10.9369    6.1577 C   0  0  0  0  0  0  0  0  0  0  0  0
    4.5962   -8.7896    3.5354 C   0  0  2  0  0  0  0  0  0  0  0  0
    6.4264   -8.7517    3.7722 Cl  0  0  0  0  0  0  0  0  0  0  0  0
    0.7481   -9.6163    7.3865 H   0  0  0  0  0  0  0  0  0  0  0  0
    2.3859  -10.2199    7.4410 H   0  0  0  0  0  0  0  0  0  0  0  0
    1.3730  -10.5006    6.0352 H   0  0  0  0  0  0  0  0  0  0  0  0
    1.2736   -8.0417    5.5802 H   0  0  0  0  0  0  0  0  0  0  0  0
    2.3447   -7.7251    6.8889 H   0  0  0  0  0  0  0  0  0  0  0  0
    4.2201   -8.4878    5.9097 H   0  0  0  0  0  0  0  0  0  0  0  0
    4.9104   -6.4536    5.6070 H   0  0  0  0  0  0  0  0  0  0  0  0
    5.1635   -5.9630    3.9282 H   0  0  0  0  0  0  0  0  0  0  0  0
    3.5851   -4.3794    6.5718 H   0  0  0  0  0  0  0  0  0  0  0  0
    2.4257   -3.5762    5.4931 H   0  0  0  0  0  0  0  0  0  0  0  0
    4.1616   -3.5185    5.1463 H   0  0  0  0  0  0  0  0  0  0  0  0
    1.2940   -5.3241    3.8541 H   0  0  0  0  0  0  0  0  0  0  0  0
    3.1548   -6.6007    2.3277 H   0  0  0  0  0  0  0  0  0  0  0  0
    1.4847   -9.0498    0.9710 H   0  0  0  0  0  0  0  0  0  0  0  0
   -1.0750   -8.1667    4.3394 H   0  0  0  0  0  0  0  0  0  0  0  0
   -1.6617   -9.5356    1.6425 H   0  0  0  0  0  0  0  0  0  0  0  0
   -2.5944   -8.2263    2.3386 H   0  0  0  0  0  0  0  0  0  0  0  0
   -2.5579   -9.8000    3.1288 H   0  0  0  0  0  0  0  0  0  0  0  0
   -0.0434  -10.6325    4.1283 H   0  0  0  0  0  0  0  0  0  0  0  0
    5.1277  -11.3876    4.0719 H   0  0  0  0  0  0  0  0  0  0  0  0
    2.6825  -12.2231    5.6709 H   0  0  0  0  0  0  0  0  0  0  0  0
    4.0212  -13.2332    5.1991 H   0  0  0  0  0  0  0  0  0  0  0  0
    2.9817  -12.5652    3.9613 H   0  0  0  0  0  0  0  0  0  0  0  0
    4.4961  -10.6263    6.9657 H   0  0  0  0  0  0  0  0  0  0  0  0
    5.9416  -10.1934    6.0968 H   0  0  0  0  0  0  0  0  0  0  0  0
    5.6109  -11.8658    6.4898 H   0  0  0  0  0  0  0  0  0  0  0  0
    4.4737   -8.8754    2.4645 H   0  0  0  0  0  0  0  0  0  0  0  0
  1  2  1  0
  1 25  1  0
  1 26  1  0
  1 27  1  0
  2  3  1  0
  2 28  1  0
  2 29  1  0
  3 19  1  0
  3  4  1  0
  3 30  1  1
  4  9  1  0
  4 23  1  0
  4  5  1  1
  5  6  1  0
  5 31  1  0
  5 32  1  0
  6  7  1  0
  6  8  2  0
  7 33  1  0
  7 34  1  0
  7 35  1  0
  8  9  1  0
  8 36  1  0
  9 10  1  0
  9 37  1  6
 10 17  1  0
 10 11  1  6
 10 12  1  0
 11 38  1  0
 12 13  2  0
 12 14  1  0
 14 15  1  0
 14 16  1  0
 14 39  1  1
 15 40  1  0
 15 41  1  0
 15 42  1  0
 16 17  2  0
 16 43  1  0
 17 18  1  0
 18 19  1  0
 19 20  1  1
 19 23  1  0
 20 21  1  0
 20 22  1  0
 20 44  1  0
 21 45  1  0
 21 46  1  0
 21 47  1  0
 22 48  1  0
 22 49  1  0
 22 50  1  0
 23 24  1  0
 23 51  1  6
M  END
>  <i_m_ct_stereo_status>  (346) 
1

>  <s_m_source_file>  (346) 
/var/tmp/pbs.5076255.sched01/tmpxmhsyh4a/135ajud44o5.sdf

>  <i_m_source_file_index>  (346) 
10

>  <i_lp_mmshare_version>  (346) 
48012

>  <i_f3d_flags>  (346) 
0

>  <s_epik_input>  (346) 
W0NIM11bQ0gyXVtDQEhdMVtDQEBdKFtDQEBIXTJDbCkoW0NIXShbQ0gzXSlbQ0gzXSlPQyg9W0NIXVtDQEBIXShDMz1PKVtDSDNdKVtDQF0zKFtPSF0pW0NASF0oW0NAQF0xMjQpW0NIXT1DKFtDSDJdNClbQ0gzXQ==

>  <s_epik_cmdline>  (346) 
J2VwaWtfcHl0aG9uJywgJy1waHQnLCAnMi4wJywgJy1waCcsICc3LjAnLCAnLXRuJywgJzgnLCAnLW1hJywgJzIwMCcsICctaW1hZScsICc8aW5maWxlLm1hZT4nLCAnLW9tYWUnLCAnPG91dGZpbGUubWFlPic=

>  <r_lp_tautomer_probability>  (346) 
1

>  <r_epik_Ionization_Penalty>  (346) 
2.72577e-06

>  <r_epik_Ionization_Penalty_Charging>  (346) 
0

>  <r_epik_Ionization_Penalty_Neutral>  (346) 
2.72577e-06

>  <r_epik_State_Penalty>  (346) 
-0

>  <r_epik_Charging_Adjusted_Penalty>  (346) 
0

>  <i_epik_Tot_Q>  (346) 
0

>  <i_epik_Tot_abs_Q>  (346) 
0

>  <s_lp_Force_Field>  (346) 
OPLS3e

>  <r_lp_Energy>  (346) 
37.7434

>  <b_lp_Chiralities_Consistent>  (346) 
1

>  <s_lp_Variant>  (346) 
96:0-1

>  <s_i_glide_gridfile>  (346) 
pfpi4k_grid

>  <i_i_glide_lignum>  (346) 
10

>  <i_i_glide_rotatable_bonds>  (346) 
3

>  <r_i_docking_score>  (346) 
-3.18926

>  <r_i_glide_ligand_efficiency>  (346) 
-0.132886

>  <r_i_glide_ligand_efficiency_sa>  (346) 
-0.38331

>  <r_i_glide_ligand_efficiency_ln>  (346) 
-0.763337

>  <r_i_glide_gscore>  (346) 
-3.18926

>  <r_i_glide_lipo>  (346) 
-0.175406

>  <r_i_glide_hbond>  (346) 
-0.177991

>  <r_i_glide_metal>  (346) 
-0

>  <r_i_glide_rewards>  (346) 
-1.01673

>  <r_i_glide_evdw>  (346) 
-17.469

>  <r_i_glide_ecoul>  (346) 
-5.96523

>  <r_i_glide_erotb>  (346) 
0

>  <r_i_glide_esite>  (346) 
-0.050901

>  <r_i_glide_emodel>  (346) 
-23.8478

>  <r_i_glide_energy>  (346) 
-23.4342

>  <r_i_glide_einternal>  (346) 
8.80548

>  <r_i_glide_intrahb_reward>  (346) 
-0

>  <i_i_glide_confnum>  (346) 
2

>  <i_i_glide_posenum>  (346) 
32

>  <r_i_glide_eff_state_penalty>  (346) 
0

>  <ligand_id>  (346) 
96

>  <original_smiles>  (346) 
CCC1C23CC(C)=CC2C2(O)C(=O)C(C)C=C2OC1(C(C)C)C3Cl

>  <smiles>  (346) 
[H]OC12C(=O)C([H])(C([H])([H])[H])C([H])=C1OC1(C([H])(C([H])([H])[H])C([H])([H])[H])C([H])(Cl)C3(C([H])([H])C(C([H])([H])[H])=C([H])C23[H])C1([H])C([H])([H])C([H])([H])[H]

$$$$
96:0:2
     RDKit          3D

 51 54  0  0  1  0  0  0  0  0999 V2000
    2.0863   -9.6994    6.8555 C   0  0  0  0  0  0  0  0  0  0  0  0
    2.6756   -8.5320    6.0377 C   0  0  0  0  0  0  0  0  0  0  0  0
    3.7658   -8.9238    4.9937 C   0  0  2  0  0  0  0  0  0  0  0  0
    4.1169   -7.9822    3.8152 C   0  0  2  0  0  0  0  0  0  0  0  0
    5.0489   -6.8207    4.1961 C   0  0  0  0  0  0  0  0  0  0  0  0
    4.0729   -5.6886    4.4348 C   0  0  0  0  0  0  0  0  0  0  0  0
    4.5065   -4.4534    5.2043 C   0  0  0  0  0  0  0  0  0  0  0  0
    2.8951   -5.9437    3.8700 C   0  0  0  0  0  0  0  0  0  0  0  0
    2.9827   -7.2357    3.0759 C   0  0  2  0  0  0  0  0  0  0  0  0
    1.7164   -8.0571    2.6571 C   0  0  2  0  0  0  0  0  0  0  0  0
    1.8509   -8.3514    1.2794 O   0  0  0  0  0  0  0  0  0  0  0  0
    0.3528   -7.3830    2.8660 C   0  0  0  0  0  0  0  0  0  0  0  0
   -0.0028   -6.3322    2.2923 O   0  0  0  0  0  0  0  0  0  0  0  0
   -0.5688   -8.1766    3.7788 C   0  0  1  0  0  0  0  0  0  0  0  0
   -1.9627   -8.4315    3.1676 C   0  0  0  0  0  0  0  0  0  0  0  0
    0.2670   -9.4397    3.9243 C   0  0  0  0  0  0  0  0  0  0  0  0
    1.4513   -9.3464    3.4043 C   0  0  0  0  0  0  0  0  0  0  0  0
    2.4191  -10.3370    3.3839 O   0  0  0  0  0  0  0  0  0  0  0  0
    3.7021  -10.1127    3.9931 C   0  0  2  0  0  0  0  0  0  0  0  0
    4.2565  -11.5044    4.4229 C   0  0  0  0  0  0  0  0  0  0  0  0
    4.4158  -12.4587    3.2321 C   0  0  0  0  0  0  0  0  0  0  0  0
    3.4690  -12.1869    5.5722 C   0  0  0  0  0  0  0  0  0  0  0  0
    4.6448   -9.2445    3.1081 C   0  0  2  0  0  0  0  0  0  0  0  0
    6.4669   -9.5154    3.1476 Cl  0  0  0  0  0  0  0  0  0  0  0  0
    1.2382   -9.3764    7.4799 H   0  0  0  0  0  0  0  0  0  0  0  0
    2.8563  -10.1793    7.4439 H   0  0  0  0  0  0  0  0  0  0  0  0
    1.6807  -10.4491    6.1822 H   0  0  0  0  0  0  0  0  0  0  0  0
    1.8467   -7.9917    5.5566 H   0  0  0  0  0  0  0  0  0  0  0  0
    3.0951   -7.8078    6.7366 H   0  0  0  0  0  0  0  0  0  0  0  0
    4.6872   -9.0781    5.5441 H   0  0  0  0  0  0  0  0  0  0  0  0
    5.6496   -7.0251    5.0854 H   0  0  0  0  0  0  0  0  0  0  0  0
    5.7214   -6.5550    3.3809 H   0  0  0  0  0  0  0  0  0  0  0  0
    4.8430   -4.7309    6.2021 H   0  0  0  0  0  0  0  0  0  0  0  0
    3.6828   -3.7463    5.2955 H   0  0  0  0  0  0  0  0  0  0  0  0
    5.3283   -3.9674    4.6923 H   0  0  0  0  0  0  0  0  0  0  0  0
    2.0341   -5.2909    3.8890 H   0  0  0  0  0  0  0  0  0  0  0  0
    3.3992   -6.8488    2.1332 H   0  0  0  0  0  0  0  0  0  0  0  0
    1.1592   -8.9538    1.0363 H   0  0  0  0  0  0  0  0  0  0  0  0
   -0.6671   -7.6803    4.7486 H   0  0  0  0  0  0  0  0  0  0  0  0
   -1.8911   -8.9185    2.1958 H   0  0  0  0  0  0  0  0  0  0  0  0
   -2.5078   -7.4913    3.0290 H   0  0  0  0  0  0  0  0  0  0  0  0
   -2.5635   -9.0726    3.8152 H   0  0  0  0  0  0  0  0  0  0  0  0
   -0.1211  -10.2836    4.4684 H   0  0  0  0  0  0  0  0  0  0  0  0
    5.2480  -11.3546    4.8354 H   0  0  0  0  0  0  0  0  0  0  0  0
    3.4380  -12.6832    2.8005 H   0  0  0  0  0  0  0  0  0  0  0  0
    4.8577  -13.3925    3.5734 H   0  0  0  0  0  0  0  0  0  0  0  0
    5.0563  -12.0347    2.4585 H   0  0  0  0  0  0  0  0  0  0  0  0
    2.4107  -12.3011    5.2537 H   0  0  0  0  0  0  0  0  0  0  0  0
    3.5873  -11.6509    6.4593 H   0  0  0  0  0  0  0  0  0  0  0  0
    3.8449  -13.2294    5.7103 H   0  0  0  0  0  0  0  0  0  0  0  0
    4.3720   -9.2827    2.0592 H   0  0  0  0  0  0  0  0  0  0  0  0
  1  2  1  0
  1 25  1  0
  1 26  1  0
  1 27  1  0
  2  3  1  0
  2 28  1  0
  2 29  1  0
  3 19  1  0
  3  4  1  0
  3 30  1  1
  4  9  1  0
  4 23  1  0
  4  5  1  1
  5  6  1  0
  5 31  1  0
  5 32  1  0
  6  7  1  0
  6  8  2  0
  7 33  1  0
  7 34  1  0
  7 35  1  0
  8  9  1  0
  8 36  1  0
  9 10  1  0
  9 37  1  6
 10 17  1  0
 10 11  1  6
 10 12  1  0
 11 38  1  0
 12 13  2  0
 12 14  1  0
 14 15  1  0
 14 16  1  0
 14 39  1  1
 15 40  1  0
 15 41  1  0
 15 42  1  0
 16 17  2  0
 16 43  1  0
 17 18  1  0
 18 19  1  0
 19 20  1  1
 19 23  1  0
 20 21  1  0
 20 22  1  0
 20 44  1  0
 21 45  1  0
 21 46  1  0
 21 47  1  0
 22 48  1  0
 22 49  1  0
 22 50  1  0
 23 24  1  0
 23 51  1  6
M  END
>  <i_m_ct_stereo_status>  (347) 
1

>  <s_m_source_file>  (347) 
/var/tmp/pbs.5076255.sched01/tmpxmhsyh4a/135ajud44o5.sdf

>  <i_m_source_file_index>  (347) 
10

>  <i_lp_mmshare_version>  (347) 
48012

>  <i_f3d_flags>  (347) 
0

>  <s_epik_input>  (347) 
W0NIM11bQ0gyXVtDQEhdMVtDQEBdKFtDQEBIXTJDbCkoW0NIXShbQ0gzXSlbQ0gzXSlPQyg9W0NIXVtDQEBIXShDMz1PKVtDSDNdKVtDQF0zKFtPSF0pW0NASF0oW0NAQF0xMjQpW0NIXT1DKFtDSDJdNClbQ0gzXQ==

>  <s_epik_cmdline>  (347) 
J2VwaWtfcHl0aG9uJywgJy1waHQnLCAnMi4wJywgJy1waCcsICc3LjAnLCAnLXRuJywgJzgnLCAnLW1hJywgJzIwMCcsICctaW1hZScsICc8aW5maWxlLm1hZT4nLCAnLW9tYWUnLCAnPG91dGZpbGUubWFlPic=

>  <r_lp_tautomer_probability>  (347) 
1

>  <r_epik_Ionization_Penalty>  (347) 
2.72577e-06

>  <r_epik_Ionization_Penalty_Charging>  (347) 
0

>  <r_epik_Ionization_Penalty_Neutral>  (347) 
2.72577e-06

>  <r_epik_State_Penalty>  (347) 
-0

>  <r_epik_Charging_Adjusted_Penalty>  (347) 
0

>  <i_epik_Tot_Q>  (347) 
0

>  <i_epik_Tot_abs_Q>  (347) 
0

>  <s_lp_Force_Field>  (347) 
OPLS3e

>  <r_lp_Energy>  (347) 
37.7434

>  <b_lp_Chiralities_Consistent>  (347) 
1

>  <s_lp_Variant>  (347) 
96:0-1

>  <s_i_glide_gridfile>  (347) 
pfpi4k_grid

>  <i_i_glide_lignum>  (347) 
10

>  <i_i_glide_rotatable_bonds>  (347) 
3

>  <r_i_docking_score>  (347) 
-3.14491

>  <r_i_glide_ligand_efficiency>  (347) 
-0.131038

>  <r_i_glide_ligand_efficiency_sa>  (347) 
-0.377978

>  <r_i_glide_ligand_efficiency_ln>  (347) 
-0.752721

>  <r_i_glide_gscore>  (347) 
-3.14491

>  <r_i_glide_lipo>  (347) 
-0.0111873

>  <r_i_glide_hbond>  (347) 
-0.200326

>  <r_i_glide_metal>  (347) 
-0

>  <r_i_glide_rewards>  (347) 
-1.01673

>  <r_i_glide_evdw>  (347) 
-17.6834

>  <r_i_glide_ecoul>  (347) 
-6.58561

>  <r_i_glide_erotb>  (347) 
0

>  <r_i_glide_esite>  (347) 
-0.0446524

>  <r_i_glide_emodel>  (347) 
-28.1092

>  <r_i_glide_energy>  (347) 
-24.269

>  <r_i_glide_einternal>  (347) 
1.80426

>  <r_i_glide_intrahb_reward>  (347) 
-0

>  <i_i_glide_confnum>  (347) 
2

>  <i_i_glide_posenum>  (347) 
1

>  <r_i_glide_eff_state_penalty>  (347) 
0

>  <ligand_id>  (347) 
96

>  <original_smiles>  (347) 
CCC1C23CC(C)=CC2C2(O)C(=O)C(C)C=C2OC1(C(C)C)C3Cl

>  <smiles>  (347) 
[H]OC12C(=O)C([H])(C([H])([H])[H])C([H])=C1OC1(C([H])(C([H])([H])[H])C([H])([H])[H])C([H])(Cl)C3(C([H])([H])C(C([H])([H])[H])=C([H])C23[H])C1([H])C([H])([H])C([H])([H])[H]

$$$$
97:0:0
     RDKit          3D

 38 41  0  0  1  0  0  0  0  0999 V2000
    1.7589    0.7521    4.2771 O   0  0  0  0  0  0  0  0  0  0  0  0
    0.6756    0.4429    4.7722 C   0  0  0  0  0  0  0  0  0  0  0  0
   -0.1221    1.4228    5.2644 N   0  0  0  0  0  0  0  0  0  0  0  0
   -1.2965    1.2409    5.9009 C   0  0  0  0  0  0  0  0  0  0  0  0
   -2.1710    2.5267    6.4888 S   0  0  0  0  0  0  0  0  0  0  0  0
   -1.7942   -0.0072    6.0789 N   0  0  0  0  0  0  0  0  0  0  0  0
   -1.1525   -1.0968    5.5665 C   0  0  0  0  0  0  0  0  0  0  0  0
   -1.6798   -2.2030    5.6761 O   0  0  0  0  0  0  0  0  0  0  0  0
    0.1850   -0.9430    4.9365 C   0  0  0  0  0  0  0  0  0  0  0  0
    1.0087   -1.9727    4.5784 C   0  0  0  0  0  0  0  0  0  0  0  0
    0.8696   -3.3930    4.7934 C   0  0  0  0  0  0  0  0  0  0  0  0
    1.0275   -4.3469    3.8279 C   0  0  0  0  0  0  0  0  0  0  0  0
    0.7682   -5.5818    4.3801 N   0  0  0  0  0  0  0  0  0  0  0  0
    0.7763   -6.8499    3.7430 C   0  0  0  0  0  0  0  0  0  0  0  0
    1.7131   -7.1248    2.7241 C   0  0  0  0  0  0  0  0  0  0  0  0
    1.7318   -8.3862    2.0984 C   0  0  0  0  0  0  0  0  0  0  0  0
    0.8057   -9.3744    2.4858 C   0  0  0  0  0  0  0  0  0  0  0  0
   -0.1489   -9.0956    3.4814 C   0  0  0  0  0  0  0  0  0  0  0  0
   -0.1618   -7.8402    4.1162 C   0  0  0  0  0  0  0  0  0  0  0  0
    0.4714   -5.4549    5.6917 N   0  0  0  0  0  0  0  0  0  0  0  0
    0.5785   -4.1612    5.9772 C   0  0  0  0  0  0  0  0  0  0  0  0
    0.3670   -3.7202    7.3691 C   0  0  0  0  0  0  0  0  0  0  0  0
   -0.2897   -4.5307    8.3299 C   0  0  0  0  0  0  0  0  0  0  0  0
   -0.5686   -4.0860    9.5752 N   0  0  0  0  0  0  0  0  0  0  0  0
   -0.1860   -2.8503    9.8796 C   0  0  0  0  0  0  0  0  0  0  0  0
    0.4226   -1.9995    9.0644 N   0  0  0  0  0  0  0  0  0  0  0  0
    0.7366   -2.4376    7.8318 C   0  0  0  0  0  0  0  0  0  0  0  0
    0.2128    2.3696    5.1521 H   0  0  0  0  0  0  0  0  0  0  0  0
    1.9654   -1.6909    4.1571 H   0  0  0  0  0  0  0  0  0  0  0  0
    1.2807   -4.2334    2.7852 H   0  0  0  0  0  0  0  0  0  0  0  0
    2.4425   -6.3819    2.4337 H   0  0  0  0  0  0  0  0  0  0  0  0
    2.4532   -8.6069    1.3255 H   0  0  0  0  0  0  0  0  0  0  0  0
    0.8099  -10.3386    2.0044 H   0  0  0  0  0  0  0  0  0  0  0  0
   -0.8654   -9.8485    3.7624 H   0  0  0  0  0  0  0  0  0  0  0  0
   -0.8881   -7.6411    4.8864 H   0  0  0  0  0  0  0  0  0  0  0  0
   -0.6390   -5.5311    8.0977 H   0  0  0  0  0  0  0  0  0  0  0  0
   -0.4017   -2.4702   10.8617 H   0  0  0  0  0  0  0  0  0  0  0  0
    1.2477   -1.7119    7.2133 H   0  0  0  0  0  0  0  0  0  0  0  0
  1  2  2  0
  2  9  1  0
  2  3  1  0
  3  4  1  0
  3 28  1  0
  4  5  2  0
  4  6  1  0
  6  7  1  0
  7  8  2  0
  7  9  1  0
  9 10  2  3
 10 11  1  0
 10 29  1  0
 11 21  1  0
 11 12  2  0
 12 13  1  0
 12 30  1  0
 13 14  1  0
 13 20  1  0
 14 19  1  0
 14 15  2  0
 15 16  1  0
 15 31  1  0
 16 17  2  0
 16 32  1  0
 17 18  1  0
 17 33  1  0
 18 19  2  0
 18 34  1  0
 19 35  1  0
 20 21  2  0
 21 22  1  0
 22 27  1  0
 22 23  2  0
 23 24  1  0
 23 36  1  0
 24 25  2  0
 25 26  1  0
 25 37  1  0
 26 27  2  0
 27 38  1  0
M  CHG  1   6  -1
M  END
>  <i_m_ct_stereo_status>  (348) 
1

>  <s_m_source_file>  (348) 
/var/tmp/pbs.5076255.sched01/tmpxmhsyh4a/135ajud44o5.sdf

>  <i_m_source_file_index>  (348) 
11

>  <i_lp_mmshare_version>  (348) 
48012

>  <i_f3d_flags>  (348) 
0

>  <s_epik_input>  (348) 
Tz1DMVtOSF1DKD1TKVtOSF1DKD1PKUMxPVtDSF1jMltjSF1uKC1jM1tjSF1bY0hdW2NIXVtjSF1bY0hdMyluYzItYzRbY0hdbltjSF1uW2NIXTQ=

>  <s_epik_cmdline>  (348) 
J2VwaWtfcHl0aG9uJywgJy1waHQnLCAnMi4wJywgJy1waCcsICc3LjAnLCAnLXRuJywgJzgnLCAnLW1hJywgJzIwMCcsICctaW1hZScsICc8aW5maWxlLm1hZT4nLCAnLW9tYWUnLCAnPG91dGZpbGUubWFlPic=

>  <r_lp_tautomer_probability>  (348) 
1

>  <r_epik_Ionization_Penalty>  (348) 
0.203162

>  <r_epik_Ionization_Penalty_Charging>  (348) 
0.203161

>  <r_epik_Ionization_Penalty_Neutral>  (348) 
8.09059e-07

>  <r_epik_State_Penalty>  (348) 
0.515042

>  <r_epik_Charging_Adjusted_Penalty>  (348) 
0.718203

>  <i_epik_Tot_Q>  (348) 
-1

>  <i_epik_Tot_abs_Q>  (348) 
1

>  <s_lp_Force_Field>  (348) 
OPLS3e

>  <r_lp_Energy>  (348) 
51.4867

>  <b_lp_Chiralities_Consistent>  (348) 
1

>  <s_lp_Variant>  (348) 
97:0-1

>  <s_i_glide_gridfile>  (348) 
pfpi4k_grid

>  <i_i_glide_lignum>  (348) 
11

>  <i_i_glide_rotatable_bonds>  (348) 
3

>  <r_i_docking_score>  (348) 
-3.09036

>  <r_i_glide_ligand_efficiency>  (348) 
-0.114458

>  <r_i_glide_ligand_efficiency_sa>  (348) 
-0.343374

>  <r_i_glide_ligand_efficiency_ln>  (348) 
-0.719386

>  <r_i_glide_gscore>  (348) 
-3.09036

>  <r_i_glide_lipo>  (348) 
-0.0326853

>  <r_i_glide_hbond>  (348) 
-0.241264

>  <r_i_glide_metal>  (348) 
-0

>  <r_i_glide_rewards>  (348) 
-0.969607

>  <r_i_glide_evdw>  (348) 
-25.4788

>  <r_i_glide_ecoul>  (348) 
-5.47538

>  <r_i_glide_erotb>  (348) 
0.411875

>  <r_i_glide_esite>  (348) 
-0.163434

>  <r_i_glide_emodel>  (348) 
-36.9566

>  <r_i_glide_energy>  (348) 
-30.9542

>  <r_i_glide_einternal>  (348) 
4.54243

>  <r_i_glide_intrahb_reward>  (348) 
-0

>  <i_i_glide_confnum>  (348) 
1

>  <i_i_glide_posenum>  (348) 
8

>  <r_i_glide_eff_state_penalty>  (348) 
0

>  <ligand_id>  (348) 
97

>  <original_smiles>  (348) 
O=C1NC(=S)NC(=O)C1=Cc1cn(-c2ccccc2)nc1-c1cncnc1

>  <smiles>  (348) 
[H]C(=C1C(=O)[N-]C(=S)N([H])C1=O)c1c(-c2c([H])nc([H])nc2[H])nn(-c2c([H])c([H])c([H])c([H])c2[H])c1[H]

$$$$
97:0:1
     RDKit          3D

 38 41  0  0  1  0  0  0  0  0999 V2000
    0.6042   -1.0652    4.6221 O   0  0  0  0  0  0  0  0  0  0  0  0
    1.3925   -1.6892    3.9038 C   0  0  0  0  0  0  0  0  0  0  0  0
    2.1076   -1.0116    2.9838 N   0  0  0  0  0  0  0  0  0  0  0  0
    3.0066   -1.5723    2.1331 C   0  0  0  0  0  0  0  0  0  0  0  0
    3.8551   -0.6520    1.0467 S   0  0  0  0  0  0  0  0  0  0  0  0
    3.2551   -2.8980    2.1702 N   0  0  0  0  0  0  0  0  0  0  0  0
    2.6596   -3.7138    3.0790 C   0  0  0  0  0  0  0  0  0  0  0  0
    3.0074   -4.8876    3.1665 O   0  0  0  0  0  0  0  0  0  0  0  0
    1.6029   -3.1572    3.9651 C   0  0  0  0  0  0  0  0  0  0  0  0
    0.8287   -3.8693    4.8329 C   0  0  0  0  0  0  0  0  0  0  0  0
    0.6807   -5.2855    5.1055 C   0  0  0  0  0  0  0  0  0  0  0  0
    0.8686   -6.3471    4.2595 C   0  0  0  0  0  0  0  0  0  0  0  0
    0.6781   -7.5106    4.9612 N   0  0  0  0  0  0  0  0  0  0  0  0
    0.7997   -8.8294    4.4656 C   0  0  0  0  0  0  0  0  0  0  0  0
    0.3459   -9.1273    3.1620 C   0  0  0  0  0  0  0  0  0  0  0  0
    0.4441  -10.4370    2.6683 C   0  0  0  0  0  0  0  0  0  0  0  0
    1.0165  -11.4488    3.4536 C   0  0  0  0  0  0  0  0  0  0  0  0
    1.5010  -11.1508    4.7386 C   0  0  0  0  0  0  0  0  0  0  0  0
    1.3916   -9.8434    5.2507 C   0  0  0  0  0  0  0  0  0  0  0  0
    0.3586   -7.2488    6.2486 N   0  0  0  0  0  0  0  0  0  0  0  0
    0.3290   -5.9220    6.3455 C   0  0  0  0  0  0  0  0  0  0  0  0
   -0.0349   -5.3195    7.6429 C   0  0  0  0  0  0  0  0  0  0  0  0
    0.2184   -5.9783    8.8681 C   0  0  0  0  0  0  0  0  0  0  0  0
   -0.1359   -5.4451   10.0564 N   0  0  0  0  0  0  0  0  0  0  0  0
   -0.6976   -4.2380   10.0346 C   0  0  0  0  0  0  0  0  0  0  0  0
   -0.9807   -3.5186    8.9540 N   0  0  0  0  0  0  0  0  0  0  0  0
   -0.6733   -4.0625    7.7609 C   0  0  0  0  0  0  0  0  0  0  0  0
    1.9700   -0.0172    2.9234 H   0  0  0  0  0  0  0  0  0  0  0  0
    0.1424   -3.2503    5.3805 H   0  0  0  0  0  0  0  0  0  0  0  0
    1.1423   -6.3908    3.2182 H   0  0  0  0  0  0  0  0  0  0  0  0
   -0.0963   -8.3640    2.5409 H   0  0  0  0  0  0  0  0  0  0  0  0
    0.0649  -10.6757    1.6842 H   0  0  0  0  0  0  0  0  0  0  0  0
    1.0814  -12.4527    3.0667 H   0  0  0  0  0  0  0  0  0  0  0  0
    1.9448  -11.9290    5.3431 H   0  0  0  0  0  0  0  0  0  0  0  0
    1.7625   -9.6205    6.2397 H   0  0  0  0  0  0  0  0  0  0  0  0
    0.6801   -6.9561    8.9056 H   0  0  0  0  0  0  0  0  0  0  0  0
   -0.9695   -3.7843   10.9726 H   0  0  0  0  0  0  0  0  0  0  0  0
   -1.0047   -3.4747    6.9174 H   0  0  0  0  0  0  0  0  0  0  0  0
  1  2  2  0
  2  9  1  0
  2  3  1  0
  3  4  1  0
  3 28  1  0
  4  5  2  0
  4  6  1  0
  6  7  1  0
  7  8  2  0
  7  9  1  0
  9 10  2  3
 10 11  1  0
 10 29  1  0
 11 21  1  0
 11 12  2  0
 12 13  1  0
 12 30  1  0
 13 14  1  0
 13 20  1  0
 14 19  1  0
 14 15  2  0
 15 16  1  0
 15 31  1  0
 16 17  2  0
 16 32  1  0
 17 18  1  0
 17 33  1  0
 18 19  2  0
 18 34  1  0
 19 35  1  0
 20 21  2  0
 21 22  1  0
 22 27  1  0
 22 23  2  0
 23 24  1  0
 23 36  1  0
 24 25  2  0
 25 26  1  0
 25 37  1  0
 26 27  2  0
 27 38  1  0
M  CHG  1   6  -1
M  END
>  <i_m_ct_stereo_status>  (349) 
1

>  <s_m_source_file>  (349) 
/var/tmp/pbs.5076255.sched01/tmpxmhsyh4a/135ajud44o5.sdf

>  <i_m_source_file_index>  (349) 
11

>  <i_lp_mmshare_version>  (349) 
48012

>  <i_f3d_flags>  (349) 
0

>  <s_epik_input>  (349) 
Tz1DMVtOSF1DKD1TKVtOSF1DKD1PKUMxPVtDSF1jMltjSF1uKC1jM1tjSF1bY0hdW2NIXVtjSF1bY0hdMyluYzItYzRbY0hdbltjSF1uW2NIXTQ=

>  <s_epik_cmdline>  (349) 
J2VwaWtfcHl0aG9uJywgJy1waHQnLCAnMi4wJywgJy1waCcsICc3LjAnLCAnLXRuJywgJzgnLCAnLW1hJywgJzIwMCcsICctaW1hZScsICc8aW5maWxlLm1hZT4nLCAnLW9tYWUnLCAnPG91dGZpbGUubWFlPic=

>  <r_lp_tautomer_probability>  (349) 
1

>  <r_epik_Ionization_Penalty>  (349) 
0.203162

>  <r_epik_Ionization_Penalty_Charging>  (349) 
0.203161

>  <r_epik_Ionization_Penalty_Neutral>  (349) 
8.09059e-07

>  <r_epik_State_Penalty>  (349) 
0.515042

>  <r_epik_Charging_Adjusted_Penalty>  (349) 
0.718203

>  <i_epik_Tot_Q>  (349) 
-1

>  <i_epik_Tot_abs_Q>  (349) 
1

>  <s_lp_Force_Field>  (349) 
OPLS3e

>  <r_lp_Energy>  (349) 
51.4867

>  <b_lp_Chiralities_Consistent>  (349) 
1

>  <s_lp_Variant>  (349) 
97:0-1

>  <s_i_glide_gridfile>  (349) 
pfpi4k_grid

>  <i_i_glide_lignum>  (349) 
11

>  <i_i_glide_rotatable_bonds>  (349) 
3

>  <r_i_docking_score>  (349) 
-3.03174

>  <r_i_glide_ligand_efficiency>  (349) 
-0.112287

>  <r_i_glide_ligand_efficiency_sa>  (349) 
-0.33686

>  <r_i_glide_ligand_efficiency_ln>  (349) 
-0.70574

>  <r_i_glide_gscore>  (349) 
-3.03174

>  <r_i_glide_lipo>  (349) 
-0.389203

>  <r_i_glide_hbond>  (349) 
-0.197053

>  <r_i_glide_metal>  (349) 
-0

>  <r_i_glide_rewards>  (349) 
-0.860445

>  <r_i_glide_evdw>  (349) 
-25.1913

>  <r_i_glide_ecoul>  (349) 
-4.52674

>  <r_i_glide_erotb>  (349) 
0.411875

>  <r_i_glide_esite>  (349) 
-0.0583413

>  <r_i_glide_emodel>  (349) 
-36.4986

>  <r_i_glide_energy>  (349) 
-29.718

>  <r_i_glide_einternal>  (349) 
2.56397

>  <r_i_glide_intrahb_reward>  (349) 
-0

>  <i_i_glide_confnum>  (349) 
3

>  <i_i_glide_posenum>  (349) 
7

>  <r_i_glide_eff_state_penalty>  (349) 
0

>  <ligand_id>  (349) 
97

>  <original_smiles>  (349) 
O=C1NC(=S)NC(=O)C1=Cc1cn(-c2ccccc2)nc1-c1cncnc1

>  <smiles>  (349) 
[H]C(=C1C(=O)[N-]C(=S)N([H])C1=O)c1c(-c2c([H])nc([H])nc2[H])nn(-c2c([H])c([H])c([H])c([H])c2[H])c1[H]

$$$$
97:0:2
     RDKit          3D

 38 41  0  0  1  0  0  0  0  0999 V2000
   -1.3594   -0.8730    5.8302 O   0  0  0  0  0  0  0  0  0  0  0  0
   -0.4621   -1.1792    5.0379 C   0  0  0  0  0  0  0  0  0  0  0  0
    0.0203   -0.2422    4.1975 N   0  0  0  0  0  0  0  0  0  0  0  0
    1.0033   -0.4389    3.2965 C   0  0  0  0  0  0  0  0  0  0  0  0
    1.5157    0.7905    2.3148 S   0  0  0  0  0  0  0  0  0  0  0  0
    1.6063   -1.6469    3.1825 N   0  0  0  0  0  0  0  0  0  0  0  0
    1.2608   -2.6888    3.9780 C   0  0  0  0  0  0  0  0  0  0  0  0
    1.8835   -3.7454    3.8938 O   0  0  0  0  0  0  0  0  0  0  0  0
    0.1320   -2.5334    4.9280 C   0  0  0  0  0  0  0  0  0  0  0  0
   -0.3855   -3.5145    5.7182 C   0  0  0  0  0  0  0  0  0  0  0  0
   -0.1069   -4.9265    5.8290 C   0  0  0  0  0  0  0  0  0  0  0  0
    0.1972   -5.8093    4.8381 C   0  0  0  0  0  0  0  0  0  0  0  0
    0.4082   -7.0527    5.3876 N   0  0  0  0  0  0  0  0  0  0  0  0
    0.7525   -8.2587    4.7188 C   0  0  0  0  0  0  0  0  0  0  0  0
    1.0943   -8.2466    3.3409 C   0  0  0  0  0  0  0  0  0  0  0  0
    1.4228   -9.4417    2.6739 C   0  0  0  0  0  0  0  0  0  0  0  0
    1.4200  -10.6614    3.3751 C   0  0  0  0  0  0  0  0  0  0  0  0
    1.0886  -10.6840    4.7417 C   0  0  0  0  0  0  0  0  0  0  0  0
    0.7576   -9.4914    5.4127 C   0  0  0  0  0  0  0  0  0  0  0  0
    0.2393   -6.9939    6.7321 N   0  0  0  0  0  0  0  0  0  0  0  0
   -0.0707   -5.7346    7.0157 C   0  0  0  0  0  0  0  0  0  0  0  0
   -0.3237   -5.3564    8.4146 C   0  0  0  0  0  0  0  0  0  0  0  0
    0.2429   -6.0675    9.4989 C   0  0  0  0  0  0  0  0  0  0  0  0
   -0.0190   -5.7368   10.7798 N   0  0  0  0  0  0  0  0  0  0  0  0
   -0.7829   -4.6655   10.9946 C   0  0  0  0  0  0  0  0  0  0  0  0
   -1.3647   -3.9173   10.0648 N   0  0  0  0  0  0  0  0  0  0  0  0
   -1.1516   -4.2694    8.7863 C   0  0  0  0  0  0  0  0  0  0  0  0
   -0.3800    0.6852    4.2497 H   0  0  0  0  0  0  0  0  0  0  0  0
   -1.2337   -3.1876    6.2788 H   0  0  0  0  0  0  0  0  0  0  0  0
    0.2796   -5.6409    3.7764 H   0  0  0  0  0  0  0  0  0  0  0  0
    1.1169   -7.3299    2.7730 H   0  0  0  0  0  0  0  0  0  0  0  0
    1.6771   -9.4210    1.6244 H   0  0  0  0  0  0  0  0  0  0  0  0
    1.6755  -11.5832    2.8756 H   0  0  0  0  0  0  0  0  0  0  0  0
    1.0856  -11.6185    5.2810 H   0  0  0  0  0  0  0  0  0  0  0  0
    0.5023   -9.5361    6.4624 H   0  0  0  0  0  0  0  0  0  0  0  0
    0.8742   -6.9349    9.3459 H   0  0  0  0  0  0  0  0  0  0  0  0
   -0.9868   -4.3850   12.0115 H   0  0  0  0  0  0  0  0  0  0  0  0
   -1.7107   -3.6702    8.0902 H   0  0  0  0  0  0  0  0  0  0  0  0
  1  2  2  0
  2  9  1  0
  2  3  1  0
  3  4  1  0
  3 28  1  0
  4  5  2  0
  4  6  1  0
  6  7  1  0
  7  8  2  0
  7  9  1  0
  9 10  2  3
 10 11  1  0
 10 29  1  0
 11 21  1  0
 11 12  2  0
 12 13  1  0
 12 30  1  0
 13 14  1  0
 13 20  1  0
 14 19  1  0
 14 15  2  0
 15 16  1  0
 15 31  1  0
 16 17  2  0
 16 32  1  0
 17 18  1  0
 17 33  1  0
 18 19  2  0
 18 34  1  0
 19 35  1  0
 20 21  2  0
 21 22  1  0
 22 27  1  0
 22 23  2  0
 23 24  1  0
 23 36  1  0
 24 25  2  0
 25 26  1  0
 25 37  1  0
 26 27  2  0
 27 38  1  0
M  CHG  1   6  -1
M  END
>  <i_m_ct_stereo_status>  (350) 
1

>  <s_m_source_file>  (350) 
/var/tmp/pbs.5076255.sched01/tmpxmhsyh4a/135ajud44o5.sdf

>  <i_m_source_file_index>  (350) 
11

>  <i_lp_mmshare_version>  (350) 
48012

>  <i_f3d_flags>  (350) 
0

>  <s_epik_input>  (350) 
Tz1DMVtOSF1DKD1TKVtOSF1DKD1PKUMxPVtDSF1jMltjSF1uKC1jM1tjSF1bY0hdW2NIXVtjSF1bY0hdMyluYzItYzRbY0hdbltjSF1uW2NIXTQ=

>  <s_epik_cmdline>  (350) 
J2VwaWtfcHl0aG9uJywgJy1waHQnLCAnMi4wJywgJy1waCcsICc3LjAnLCAnLXRuJywgJzgnLCAnLW1hJywgJzIwMCcsICctaW1hZScsICc8aW5maWxlLm1hZT4nLCAnLW9tYWUnLCAnPG91dGZpbGUubWFlPic=

>  <r_lp_tautomer_probability>  (350) 
1

>  <r_epik_Ionization_Penalty>  (350) 
0.203162

>  <r_epik_Ionization_Penalty_Charging>  (350) 
0.203161

>  <r_epik_Ionization_Penalty_Neutral>  (350) 
8.09059e-07

>  <r_epik_State_Penalty>  (350) 
0.515042

>  <r_epik_Charging_Adjusted_Penalty>  (350) 
0.718203

>  <i_epik_Tot_Q>  (350) 
-1

>  <i_epik_Tot_abs_Q>  (350) 
1

>  <s_lp_Force_Field>  (350) 
OPLS3e

>  <r_lp_Energy>  (350) 
51.4867

>  <b_lp_Chiralities_Consistent>  (350) 
1

>  <s_lp_Variant>  (350) 
97:0-1

>  <s_i_glide_gridfile>  (350) 
pfpi4k_grid

>  <i_i_glide_lignum>  (350) 
11

>  <i_i_glide_rotatable_bonds>  (350) 
3

>  <r_i_docking_score>  (350) 
-2.46153

>  <r_i_glide_ligand_efficiency>  (350) 
-0.0911676

>  <r_i_glide_ligand_efficiency_sa>  (350) 
-0.273503

>  <r_i_glide_ligand_efficiency_ln>  (350) 
-0.573002

>  <r_i_glide_gscore>  (350) 
-2.46153

>  <r_i_glide_lipo>  (350) 
-0.264473

>  <r_i_glide_hbond>  (350) 
-0.0347826

>  <r_i_glide_metal>  (350) 
-0

>  <r_i_glide_rewards>  (350) 
-0.887704

>  <r_i_glide_evdw>  (350) 
-29.1334

>  <r_i_glide_ecoul>  (350) 
-0.816007

>  <r_i_glide_erotb>  (350) 
0.411875

>  <r_i_glide_esite>  (350) 
-0.107368

>  <r_i_glide_emodel>  (350) 
-35.2803

>  <r_i_glide_energy>  (350) 
-29.9494

>  <r_i_glide_einternal>  (350) 
2.30183

>  <r_i_glide_intrahb_reward>  (350) 
-0

>  <i_i_glide_confnum>  (350) 
3

>  <i_i_glide_posenum>  (350) 
27

>  <r_i_glide_eff_state_penalty>  (350) 
0

>  <ligand_id>  (350) 
97

>  <original_smiles>  (350) 
O=C1NC(=S)NC(=O)C1=Cc1cn(-c2ccccc2)nc1-c1cncnc1

>  <smiles>  (350) 
[H]C(=C1C(=O)[N-]C(=S)N([H])C1=O)c1c(-c2c([H])nc([H])nc2[H])nn(-c2c([H])c([H])c([H])c([H])c2[H])c1[H]

$$$$
97:1:0
     RDKit          3D

 39 42  0  0  1  0  0  0  0  0999 V2000
    1.3508   -3.4387    3.3076 O   0  0  0  0  0  0  0  0  0  0  0  0
    1.2521   -2.2124    3.3143 C   0  0  0  0  0  0  0  0  0  0  0  0
    0.4950   -1.6551    4.2763 N   0  0  0  0  0  0  0  0  0  0  0  0
    0.1233   -0.3504    4.4046 C   0  0  0  0  0  0  0  0  0  0  0  0
   -0.8949    0.1575    5.6156 S   0  0  0  0  0  0  0  0  0  0  0  0
    0.6306    0.4811    3.4510 N   0  0  0  0  0  0  0  0  0  0  0  0
    1.4606    0.1459    2.4427 C   0  0  0  0  0  0  0  0  0  0  0  0
    1.8589    1.0339    1.6875 O   0  0  0  0  0  0  0  0  0  0  0  0
    1.8620   -1.2789    2.3423 C   0  0  0  0  0  0  0  0  0  0  0  0
    2.7436   -1.6339    1.3684 C   0  0  0  0  0  0  0  0  0  0  0  0
    3.4205   -2.8780    1.0409 C   0  0  0  0  0  0  0  0  0  0  0  0
    3.6834   -3.9541    1.8481 C   0  0  0  0  0  0  0  0  0  0  0  0
    4.2890   -4.9325    1.0996 N   0  0  0  0  0  0  0  0  0  0  0  0
    4.6902   -6.2145    1.5448 C   0  0  0  0  0  0  0  0  0  0  0  0
    5.1381   -6.3881    2.8749 C   0  0  0  0  0  0  0  0  0  0  0  0
    5.5522   -7.6545    3.3267 C   0  0  0  0  0  0  0  0  0  0  0  0
    5.5034   -8.7577    2.4562 C   0  0  0  0  0  0  0  0  0  0  0  0
    5.0252   -8.6008    1.1429 C   0  0  0  0  0  0  0  0  0  0  0  0
    4.6147   -7.3316    0.6867 C   0  0  0  0  0  0  0  0  0  0  0  0
    4.4566   -4.5201   -0.1767 N   0  0  0  0  0  0  0  0  0  0  0  0
    3.9705   -3.2808   -0.2228 C   0  0  0  0  0  0  0  0  0  0  0  0
    4.0626   -2.5277   -1.4951 C   0  0  0  0  0  0  0  0  0  0  0  0
    4.0612   -3.1799   -2.7521 C   0  0  0  0  0  0  0  0  0  0  0  0
    4.1395   -2.5136   -3.9217 N   0  0  0  0  0  0  0  0  0  0  0  0
    4.1784   -1.1887   -3.8451 C   0  0  0  0  0  0  0  0  0  0  0  0
    4.2220   -0.4628   -2.7337 N   0  0  0  0  0  0  0  0  0  0  0  0
    4.1668   -1.1234   -1.5631 C   0  0  0  0  0  0  0  0  0  0  0  0
    0.1139   -2.3016    4.9461 H   0  0  0  0  0  0  0  0  0  0  0  0
    0.3758    1.4600    3.4897 H   0  0  0  0  0  0  0  0  0  0  0  0
    3.0259   -0.8092    0.7426 H   0  0  0  0  0  0  0  0  0  0  0  0
    3.4898   -4.1367    2.8934 H   0  0  0  0  0  0  0  0  0  0  0  0
    5.1810   -5.5529    3.5566 H   0  0  0  0  0  0  0  0  0  0  0  0
    5.9170   -7.7786    4.3345 H   0  0  0  0  0  0  0  0  0  0  0  0
    5.8256   -9.7306    2.7926 H   0  0  0  0  0  0  0  0  0  0  0  0
    4.9773   -9.4532    0.4846 H   0  0  0  0  0  0  0  0  0  0  0  0
    4.2544   -7.2045   -0.3232 H   0  0  0  0  0  0  0  0  0  0  0  0
    4.0254   -4.2504   -2.8294 H   0  0  0  0  0  0  0  0  0  0  0  0
    4.2681   -0.6329   -4.7614 H   0  0  0  0  0  0  0  0  0  0  0  0
    4.2650   -0.4932   -0.6876 H   0  0  0  0  0  0  0  0  0  0  0  0
  1  2  2  0
  2  9  1  0
  2  3  1  0
  3  4  1  0
  3 28  1  0
  4  5  2  0
  4  6  1  0
  6  7  1  0
  6 29  1  0
  7  8  2  0
  7  9  1  0
  9 10  2  3
 10 11  1  0
 10 30  1  0
 11 21  1  0
 11 12  2  0
 12 13  1  0
 12 31  1  0
 13 14  1  0
 13 20  1  0
 14 19  1  0
 14 15  2  0
 15 16  1  0
 15 32  1  0
 16 17  2  0
 16 33  1  0
 17 18  1  0
 17 34  1  0
 18 19  2  0
 18 35  1  0
 19 36  1  0
 20 21  2  0
 21 22  1  0
 22 27  1  0
 22 23  2  0
 23 24  1  0
 23 37  1  0
 24 25  2  0
 25 26  1  0
 25 38  1  0
 26 27  2  0
 27 39  1  0
M  END
>  <i_m_ct_stereo_status>  (351) 
1

>  <s_m_source_file>  (351) 
/var/tmp/pbs.5076255.sched01/tmpxmhsyh4a/135ajud44o5.sdf

>  <i_m_source_file_index>  (351) 
12

>  <i_lp_mmshare_version>  (351) 
48012

>  <i_f3d_flags>  (351) 
0

>  <s_epik_input>  (351) 
Tz1DMVtOSF1DKD1TKVtOSF1DKD1PKUMxPVtDSF1jMltjSF1uKC1jM1tjSF1bY0hdW2NIXVtjSF1bY0hdMyluYzItYzRbY0hdbltjSF1uW2NIXTQ=

>  <s_epik_cmdline>  (351) 
J2VwaWtfcHl0aG9uJywgJy1waHQnLCAnMi4wJywgJy1waCcsICc3LjAnLCAnLXRuJywgJzgnLCAnLW1hJywgJzIwMCcsICctaW1hZScsICc8aW5maWxlLm1hZT4nLCAnLW9tYWUnLCAnPG91dGZpbGUubWFlPic=

>  <r_lp_tautomer_probability>  (351) 
1

>  <r_epik_Ionization_Penalty>  (351) 
0.732835

>  <r_epik_Ionization_Penalty_Charging>  (351) 
0

>  <r_epik_Ionization_Penalty_Neutral>  (351) 
0.732835

>  <r_epik_State_Penalty>  (351) 
1.08024

>  <r_epik_Charging_Adjusted_Penalty>  (351) 
1.08024

>  <i_epik_Tot_Q>  (351) 
0

>  <i_epik_Tot_abs_Q>  (351) 
0

>  <s_lp_Force_Field>  (351) 
OPLS3e

>  <r_lp_Energy>  (351) 
51.6247

>  <b_lp_Chiralities_Consistent>  (351) 
1

>  <s_lp_Variant>  (351) 
97:0-2

>  <s_i_glide_gridfile>  (351) 
pfpi4k_grid

>  <i_i_glide_lignum>  (351) 
12

>  <i_i_glide_rotatable_bonds>  (351) 
3

>  <r_i_docking_score>  (351) 
-3.54654

>  <r_i_glide_ligand_efficiency>  (351) 
-0.131353

>  <r_i_glide_ligand_efficiency_sa>  (351) 
-0.39406

>  <r_i_glide_ligand_efficiency_ln>  (351) 
-0.825575

>  <r_i_glide_gscore>  (351) 
-3.54654

>  <r_i_glide_lipo>  (351) 
-0.192103

>  <r_i_glide_hbond>  (351) 
-0.172615

>  <r_i_glide_metal>  (351) 
-0

>  <r_i_glide_rewards>  (351) 
-1.13339

>  <r_i_glide_evdw>  (351) 
-34.9114

>  <r_i_glide_ecoul>  (351) 
-4.11598

>  <r_i_glide_erotb>  (351) 
0.409903

>  <r_i_glide_esite>  (351) 
-0.0953685

>  <r_i_glide_emodel>  (351) 
-46.2211

>  <r_i_glide_energy>  (351) 
-39.0274

>  <r_i_glide_einternal>  (351) 
1.61796

>  <r_i_glide_intrahb_reward>  (351) 
-0

>  <i_i_glide_confnum>  (351) 
3

>  <i_i_glide_posenum>  (351) 
21

>  <r_i_glide_eff_state_penalty>  (351) 
0

>  <ligand_id>  (351) 
97

>  <original_smiles>  (351) 
O=C1NC(=S)NC(=O)C1=Cc1cn(-c2ccccc2)nc1-c1cncnc1

>  <smiles>  (351) 
[H]C(=C1C(=O)N([H])C(=S)N([H])C1=O)c1c(-c2c([H])nc([H])nc2[H])nn(-c2c([H])c([H])c([H])c([H])c2[H])c1[H]

$$$$
97:1:1
     RDKit          3D

 39 42  0  0  1  0  0  0  0  0999 V2000
    2.0816   -4.1246   -1.0181 O   0  0  0  0  0  0  0  0  0  0  0  0
    2.9763   -3.3065   -1.2127 C   0  0  0  0  0  0  0  0  0  0  0  0
    2.8959   -2.5245   -2.3012 N   0  0  0  0  0  0  0  0  0  0  0  0
    3.7069   -1.4917   -2.6515 C   0  0  0  0  0  0  0  0  0  0  0  0
    3.4324   -0.5635   -3.9963 S   0  0  0  0  0  0  0  0  0  0  0  0
    4.7575   -1.2841   -1.8123 N   0  0  0  0  0  0  0  0  0  0  0  0
    5.0624   -1.9843   -0.7066 C   0  0  0  0  0  0  0  0  0  0  0  0
    6.1023   -1.6984   -0.1020 O   0  0  0  0  0  0  0  0  0  0  0  0
    4.1267   -3.0567   -0.3040 C   0  0  0  0  0  0  0  0  0  0  0  0
    4.3689   -3.7287    0.8538 C   0  0  0  0  0  0  0  0  0  0  0  0
    3.6594   -4.8115    1.5075 C   0  0  0  0  0  0  0  0  0  0  0  0
    2.3204   -4.9308    1.7293 C   0  0  0  0  0  0  0  0  0  0  0  0
    2.0749   -6.1075    2.3820 N   0  0  0  0  0  0  0  0  0  0  0  0
    0.8281   -6.6237    2.7992 C   0  0  0  0  0  0  0  0  0  0  0  0
    0.1269   -7.5250    1.9734 C   0  0  0  0  0  0  0  0  0  0  0  0
   -1.1157   -8.0449    2.3945 C   0  0  0  0  0  0  0  0  0  0  0  0
   -1.6537   -7.6528    3.6310 C   0  0  0  0  0  0  0  0  0  0  0  0
   -0.9708   -6.7346    4.4480 C   0  0  0  0  0  0  0  0  0  0  0  0
    0.2743   -6.2175    4.0309 C   0  0  0  0  0  0  0  0  0  0  0  0
    3.2272   -6.7683    2.6114 N   0  0  0  0  0  0  0  0  0  0  0  0
    4.1914   -6.0069    2.1051 C   0  0  0  0  0  0  0  0  0  0  0  0
    5.5944   -6.4556    2.2133 C   0  0  0  0  0  0  0  0  0  0  0  0
    5.9207   -7.7951    2.5362 C   0  0  0  0  0  0  0  0  0  0  0  0
    7.1954   -8.2194    2.6493 N   0  0  0  0  0  0  0  0  0  0  0  0
    8.1507   -7.3173    2.4339 C   0  0  0  0  0  0  0  0  0  0  0  0
    7.9748   -6.0419    2.1149 N   0  0  0  0  0  0  0  0  0  0  0  0
    6.7114   -5.5977    2.0031 C   0  0  0  0  0  0  0  0  0  0  0  0
    2.0751   -2.6646   -2.8676 H   0  0  0  0  0  0  0  0  0  0  0  0
    5.3849   -0.5255   -2.0355 H   0  0  0  0  0  0  0  0  0  0  0  0
    5.1711   -3.3175    1.4368 H   0  0  0  0  0  0  0  0  0  0  0  0
    1.5274   -4.2541    1.4759 H   0  0  0  0  0  0  0  0  0  0  0  0
    0.5454   -7.8375    1.0283 H   0  0  0  0  0  0  0  0  0  0  0  0
   -1.6421   -8.7531    1.7730 H   0  0  0  0  0  0  0  0  0  0  0  0
   -2.5871   -8.0749    3.9565 H   0  0  0  0  0  0  0  0  0  0  0  0
   -1.3885   -6.4287    5.3934 H   0  0  0  0  0  0  0  0  0  0  0  0
    0.8057   -5.5152    4.6548 H   0  0  0  0  0  0  0  0  0  0  0  0
    5.1643   -8.5522    2.7190 H   0  0  0  0  0  0  0  0  0  0  0  0
    9.1656   -7.6255    2.5636 H   0  0  0  0  0  0  0  0  0  0  0  0
    6.6501   -4.5431    1.7689 H   0  0  0  0  0  0  0  0  0  0  0  0
  1  2  2  0
  2  9  1  0
  2  3  1  0
  3  4  1  0
  3 28  1  0
  4  5  2  0
  4  6  1  0
  6  7  1  0
  6 29  1  0
  7  8  2  0
  7  9  1  0
  9 10  2  3
 10 11  1  0
 10 30  1  0
 11 21  1  0
 11 12  2  0
 12 13  1  0
 12 31  1  0
 13 14  1  0
 13 20  1  0
 14 19  1  0
 14 15  2  0
 15 16  1  0
 15 32  1  0
 16 17  2  0
 16 33  1  0
 17 18  1  0
 17 34  1  0
 18 19  2  0
 18 35  1  0
 19 36  1  0
 20 21  2  0
 21 22  1  0
 22 27  1  0
 22 23  2  0
 23 24  1  0
 23 37  1  0
 24 25  2  0
 25 26  1  0
 25 38  1  0
 26 27  2  0
 27 39  1  0
M  END
>  <i_m_ct_stereo_status>  (352) 
1

>  <s_m_source_file>  (352) 
/var/tmp/pbs.5076255.sched01/tmpxmhsyh4a/135ajud44o5.sdf

>  <i_m_source_file_index>  (352) 
12

>  <i_lp_mmshare_version>  (352) 
48012

>  <i_f3d_flags>  (352) 
0

>  <s_epik_input>  (352) 
Tz1DMVtOSF1DKD1TKVtOSF1DKD1PKUMxPVtDSF1jMltjSF1uKC1jM1tjSF1bY0hdW2NIXVtjSF1bY0hdMyluYzItYzRbY0hdbltjSF1uW2NIXTQ=

>  <s_epik_cmdline>  (352) 
J2VwaWtfcHl0aG9uJywgJy1waHQnLCAnMi4wJywgJy1waCcsICc3LjAnLCAnLXRuJywgJzgnLCAnLW1hJywgJzIwMCcsICctaW1hZScsICc8aW5maWxlLm1hZT4nLCAnLW9tYWUnLCAnPG91dGZpbGUubWFlPic=

>  <r_lp_tautomer_probability>  (352) 
1

>  <r_epik_Ionization_Penalty>  (352) 
0.732835

>  <r_epik_Ionization_Penalty_Charging>  (352) 
0

>  <r_epik_Ionization_Penalty_Neutral>  (352) 
0.732835

>  <r_epik_State_Penalty>  (352) 
1.08024

>  <r_epik_Charging_Adjusted_Penalty>  (352) 
1.08024

>  <i_epik_Tot_Q>  (352) 
0

>  <i_epik_Tot_abs_Q>  (352) 
0

>  <s_lp_Force_Field>  (352) 
OPLS3e

>  <r_lp_Energy>  (352) 
51.6247

>  <b_lp_Chiralities_Consistent>  (352) 
1

>  <s_lp_Variant>  (352) 
97:0-2

>  <s_i_glide_gridfile>  (352) 
pfpi4k_grid

>  <i_i_glide_lignum>  (352) 
12

>  <i_i_glide_rotatable_bonds>  (352) 
3

>  <r_i_docking_score>  (352) 
-3.4651

>  <r_i_glide_ligand_efficiency>  (352) 
-0.128337

>  <r_i_glide_ligand_efficiency_sa>  (352) 
-0.385012

>  <r_i_glide_ligand_efficiency_ln>  (352) 
-0.806619

>  <r_i_glide_gscore>  (352) 
-3.4651

>  <r_i_glide_lipo>  (352) 
-0.155316

>  <r_i_glide_hbond>  (352) 
0

>  <r_i_glide_metal>  (352) 
-0

>  <r_i_glide_rewards>  (352) 
-1.29144

>  <r_i_glide_evdw>  (352) 
-35.3379

>  <r_i_glide_ecoul>  (352) 
-2.93827

>  <r_i_glide_erotb>  (352) 
0.409903

>  <r_i_glide_esite>  (352) 
-0.220619

>  <r_i_glide_emodel>  (352) 
-43.1145

>  <r_i_glide_energy>  (352) 
-38.2761

>  <r_i_glide_einternal>  (352) 
6.09939

>  <r_i_glide_intrahb_reward>  (352) 
-0

>  <i_i_glide_confnum>  (352) 
3

>  <i_i_glide_posenum>  (352) 
20

>  <r_i_glide_eff_state_penalty>  (352) 
0

>  <ligand_id>  (352) 
97

>  <original_smiles>  (352) 
O=C1NC(=S)NC(=O)C1=Cc1cn(-c2ccccc2)nc1-c1cncnc1

>  <smiles>  (352) 
[H]C(=C1C(=O)N([H])C(=S)N([H])C1=O)c1c(-c2c([H])nc([H])nc2[H])nn(-c2c([H])c([H])c([H])c([H])c2[H])c1[H]

$$$$
97:1:2
     RDKit          3D

 39 42  0  0  1  0  0  0  0  0999 V2000
    0.9038   -3.0447    3.3744 O   0  0  0  0  0  0  0  0  0  0  0  0
    0.9809   -1.8296    3.3765 C   0  0  0  0  0  0  0  0  0  0  0  0
    0.3371   -1.1914    4.3639 N   0  0  0  0  0  0  0  0  0  0  0  0
    0.1320    0.1398    4.5210 C   0  0  0  0  0  0  0  0  0  0  0  0
   -0.7601    0.7396    5.7878 S   0  0  0  0  0  0  0  0  0  0  0  0
    0.6944    0.9040    3.5459 N   0  0  0  0  0  0  0  0  0  0  0  0
    1.4194    0.4804    2.4931 C   0  0  0  0  0  0  0  0  0  0  0  0
    1.8780    1.3155    1.7106 O   0  0  0  0  0  0  0  0  0  0  0  0
    1.6547   -0.9776    2.3656 C   0  0  0  0  0  0  0  0  0  0  0  0
    2.4331   -1.4346    1.3476 C   0  0  0  0  0  0  0  0  0  0  0  0
    2.9345   -2.7526    0.9954 C   0  0  0  0  0  0  0  0  0  0  0  0
    3.0430   -3.8761    1.7498 C   0  0  0  0  0  0  0  0  0  0  0  0
    3.4642   -4.9161    0.9687 N   0  0  0  0  0  0  0  0  0  0  0  0
    3.6588   -6.2585    1.3709 C   0  0  0  0  0  0  0  0  0  0  0  0
    3.0225   -6.7667    2.5360 C   0  0  0  0  0  0  0  0  0  0  0  0
    3.2425   -8.0955    2.9500 C   0  0  0  0  0  0  0  0  0  0  0  0
    4.0947   -8.9294    2.2035 C   0  0  0  0  0  0  0  0  0  0  0  0
    4.7331   -8.4297    1.0522 C   0  0  0  0  0  0  0  0  0  0  0  0
    4.5164   -7.0991    0.6377 C   0  0  0  0  0  0  0  0  0  0  0  0
    3.7135   -4.4773   -0.2873 N   0  0  0  0  0  0  0  0  0  0  0  0
    3.4082   -3.1914   -0.2904 C   0  0  0  0  0  0  0  0  0  0  0  0
    3.6053   -2.4296   -1.5152 C   0  0  0  0  0  0  0  0  0  0  0  0
    3.1933   -2.9112   -2.7823 C   0  0  0  0  0  0  0  0  0  0  0  0
    3.3950   -2.2132   -3.9193 N   0  0  0  0  0  0  0  0  0  0  0  0
    3.9599   -1.0161   -3.7872 C   0  0  0  0  0  0  0  0  0  0  0  0
    4.4133   -0.4676   -2.6632 N   0  0  0  0  0  0  0  0  0  0  0  0
    4.2201   -1.1618   -1.5268 C   0  0  0  0  0  0  0  0  0  0  0  0
   -0.0974   -1.8010    5.0461 H   0  0  0  0  0  0  0  0  0  0  0  0
    0.5662    1.9093    3.6053 H   0  0  0  0  0  0  0  0  0  0  0  0
    2.7815   -0.6537    0.6931 H   0  0  0  0  0  0  0  0  0  0  0  0
    2.8519   -4.0581    2.7951 H   0  0  0  0  0  0  0  0  0  0  0  0
    2.3587   -6.1592    3.1326 H   0  0  0  0  0  0  0  0  0  0  0  0
    2.7557   -8.4786    3.8365 H   0  0  0  0  0  0  0  0  0  0  0  0
    4.2617   -9.9547    2.5064 H   0  0  0  0  0  0  0  0  0  0  0  0
    5.3899   -9.0688    0.4824 H   0  0  0  0  0  0  0  0  0  0  0  0
    5.0108   -6.7168   -0.2435 H   0  0  0  0  0  0  0  0  0  0  0  0
    2.6946   -3.8551   -2.8847 H   0  0  0  0  0  0  0  0  0  0  0  0
    4.1274   -0.4559   -4.6864 H   0  0  0  0  0  0  0  0  0  0  0  0
    4.5930   -0.7025   -0.6181 H   0  0  0  0  0  0  0  0  0  0  0  0
  1  2  2  0
  2  9  1  0
  2  3  1  0
  3  4  1  0
  3 28  1  0
  4  5  2  0
  4  6  1  0
  6  7  1  0
  6 29  1  0
  7  8  2  0
  7  9  1  0
  9 10  2  3
 10 11  1  0
 10 30  1  0
 11 21  1  0
 11 12  2  0
 12 13  1  0
 12 31  1  0
 13 14  1  0
 13 20  1  0
 14 19  1  0
 14 15  2  0
 15 16  1  0
 15 32  1  0
 16 17  2  0
 16 33  1  0
 17 18  1  0
 17 34  1  0
 18 19  2  0
 18 35  1  0
 19 36  1  0
 20 21  2  0
 21 22  1  0
 22 27  1  0
 22 23  2  0
 23 24  1  0
 23 37  1  0
 24 25  2  0
 25 26  1  0
 25 38  1  0
 26 27  2  0
 27 39  1  0
M  END
>  <i_m_ct_stereo_status>  (353) 
1

>  <s_m_source_file>  (353) 
/var/tmp/pbs.5076255.sched01/tmpxmhsyh4a/135ajud44o5.sdf

>  <i_m_source_file_index>  (353) 
12

>  <i_lp_mmshare_version>  (353) 
48012

>  <i_f3d_flags>  (353) 
0

>  <s_epik_input>  (353) 
Tz1DMVtOSF1DKD1TKVtOSF1DKD1PKUMxPVtDSF1jMltjSF1uKC1jM1tjSF1bY0hdW2NIXVtjSF1bY0hdMyluYzItYzRbY0hdbltjSF1uW2NIXTQ=

>  <s_epik_cmdline>  (353) 
J2VwaWtfcHl0aG9uJywgJy1waHQnLCAnMi4wJywgJy1waCcsICc3LjAnLCAnLXRuJywgJzgnLCAnLW1hJywgJzIwMCcsICctaW1hZScsICc8aW5maWxlLm1hZT4nLCAnLW9tYWUnLCAnPG91dGZpbGUubWFlPic=

>  <r_lp_tautomer_probability>  (353) 
1

>  <r_epik_Ionization_Penalty>  (353) 
0.732835

>  <r_epik_Ionization_Penalty_Charging>  (353) 
0

>  <r_epik_Ionization_Penalty_Neutral>  (353) 
0.732835

>  <r_epik_State_Penalty>  (353) 
1.08024

>  <r_epik_Charging_Adjusted_Penalty>  (353) 
1.08024

>  <i_epik_Tot_Q>  (353) 
0

>  <i_epik_Tot_abs_Q>  (353) 
0

>  <s_lp_Force_Field>  (353) 
OPLS3e

>  <r_lp_Energy>  (353) 
51.6247

>  <b_lp_Chiralities_Consistent>  (353) 
1

>  <s_lp_Variant>  (353) 
97:0-2

>  <s_i_glide_gridfile>  (353) 
pfpi4k_grid

>  <i_i_glide_lignum>  (353) 
12

>  <i_i_glide_rotatable_bonds>  (353) 
3

>  <r_i_docking_score>  (353) 
-3.06179

>  <r_i_glide_ligand_efficiency>  (353) 
-0.113399

>  <r_i_glide_ligand_efficiency_sa>  (353) 
-0.340198

>  <r_i_glide_ligand_efficiency_ln>  (353) 
-0.712733

>  <r_i_glide_gscore>  (353) 
-3.06179

>  <r_i_glide_lipo>  (353) 
-0.179908

>  <r_i_glide_hbond>  (353) 
-0.0514972

>  <r_i_glide_metal>  (353) 
-0

>  <r_i_glide_rewards>  (353) 
-1.12868

>  <r_i_glide_evdw>  (353) 
-34.8065

>  <r_i_glide_ecoul>  (353) 
-1.84159

>  <r_i_glide_erotb>  (353) 
0.409903

>  <r_i_glide_esite>  (353) 
-0.095041

>  <r_i_glide_emodel>  (353) 
-43.0138

>  <r_i_glide_energy>  (353) 
-36.6481

>  <r_i_glide_einternal>  (353) 
1.40224

>  <r_i_glide_intrahb_reward>  (353) 
-0

>  <i_i_glide_confnum>  (353) 
3

>  <i_i_glide_posenum>  (353) 
28

>  <r_i_glide_eff_state_penalty>  (353) 
0

>  <ligand_id>  (353) 
97

>  <original_smiles>  (353) 
O=C1NC(=S)NC(=O)C1=Cc1cn(-c2ccccc2)nc1-c1cncnc1

>  <smiles>  (353) 
[H]C(=C1C(=O)N([H])C(=S)N([H])C1=O)c1c(-c2c([H])nc([H])nc2[H])nn(-c2c([H])c([H])c([H])c([H])c2[H])c1[H]

$$$$
99:0:0
     RDKit          3D

 33 35  0  0  1  0  0  0  0  0999 V2000
    2.6975   -1.8191    4.5240 C   0  0  0  0  0  0  0  0  0  0  0  0
    2.9240   -2.4210    3.2150 N   0  0  0  0  0  0  0  0  0  0  0  0
    2.5030   -3.7339    2.9173 C   0  0  0  0  0  0  0  0  0  0  0  0
    2.0089   -4.5666    3.7695 N   0  0  0  0  0  0  0  0  0  0  0  0
    1.7530   -5.7473    3.0942 C   0  0  0  0  0  0  0  0  0  0  0  0
    1.2154   -6.8273    3.7001 C   0  0  0  0  0  0  0  0  0  0  0  0
    0.9258   -6.7874    5.0934 C   0  0  0  0  0  0  0  0  0  0  0  0
    0.6613   -6.8159    6.2228 N   0  0  0  0  0  0  0  0  0  0  0  0
    0.9144   -8.0071    2.9742 C   0  0  0  0  0  0  0  0  0  0  0  0
    0.6504   -9.0195    2.4859 N   0  0  0  0  0  0  0  0  0  0  0  0
    2.1269   -5.5999    1.6208 C   0  0  1  0  0  0  0  0  0  0  0  0
    3.2284   -6.5854    1.1915 C   0  0  0  0  0  0  0  0  0  0  0  0
    1.0489   -5.8608    0.8977 O   0  0  0  0  0  0  0  0  0  0  0  0
    2.6041   -4.1943    1.6054 N   0  0  0  0  0  0  0  0  0  0  0  0
    3.0290   -3.4680    0.4524 C   0  0  0  0  0  0  0  0  0  0  0  0
    2.7393   -3.8415   -0.8758 C   0  0  0  0  0  0  0  0  0  0  0  0
    3.1359   -3.0322   -1.9660 C   0  0  0  0  0  0  0  0  0  0  0  0
    3.8133   -1.8127   -1.7609 C   0  0  0  0  0  0  0  0  0  0  0  0
    4.1288   -1.4231   -0.4502 C   0  0  0  0  0  0  0  0  0  0  0  0
    3.7565   -2.2583    0.6239 C   0  0  0  0  0  0  0  0  0  0  0  0
    4.2105   -1.7734    2.2695 S   0  0  0  0  0  0  0  0  0  0  0  0
    4.1579   -0.3061    2.3600 O   0  0  0  0  0  0  0  0  0  0  0  0
    5.4370   -2.4953    2.6375 O   0  0  0  0  0  0  0  0  0  0  0  0
    1.7063   -2.0845    4.9037 H   0  0  0  0  0  0  0  0  0  0  0  0
    2.7328   -0.7295    4.4496 H   0  0  0  0  0  0  0  0  0  0  0  0
    3.4674   -2.1402    5.2289 H   0  0  0  0  0  0  0  0  0  0  0  0
    4.1077   -6.4639    1.8141 H   0  0  0  0  0  0  0  0  0  0  0  0
    3.5167   -6.4315    0.1556 H   0  0  0  0  0  0  0  0  0  0  0  0
    2.8981   -7.6206    1.2779 H   0  0  0  0  0  0  0  0  0  0  0  0
    2.1933   -4.7549   -1.0766 H   0  0  0  0  0  0  0  0  0  0  0  0
    2.8935   -3.3427   -2.9713 H   0  0  0  0  0  0  0  0  0  0  0  0
    4.0675   -1.1696   -2.5951 H   0  0  0  0  0  0  0  0  0  0  0  0
    4.6311   -0.4810   -0.2657 H   0  0  0  0  0  0  0  0  0  0  0  0
  1  2  1  0
  1 24  1  0
  1 25  1  0
  1 26  1  0
  2 21  1  0
  2  3  1  0
  3 14  1  0
  3  4  2  0
  4  5  1  0
  5  6  2  3
  5 11  1  0
  6  7  1  0
  6  9  1  0
  7  8  3  0
  9 10  3  0
 11 12  1  0
 11 13  1  6
 11 14  1  0
 12 27  1  0
 12 28  1  0
 12 29  1  0
 14 15  1  0
 15 20  2  0
 15 16  1  0
 16 17  2  0
 16 30  1  0
 17 18  1  0
 17 31  1  0
 18 19  2  0
 18 32  1  0
 19 20  1  0
 19 33  1  0
 20 21  1  0
 21 22  2  0
 21 23  2  0
M  CHG  1  13  -1
M  END
>  <i_m_ct_stereo_status>  (354) 
1

>  <s_m_source_file>  (354) 
/var/tmp/pbs.5076255.sched01/tmpxmhsyh4a/135ajud44o5.sdf

>  <i_m_source_file_index>  (354) 
14

>  <i_lp_mmshare_version>  (354) 
48012

>  <i_f3d_flags>  (354) 
0

>  <s_epik_input>  (354) 
W2NIXTFbY0hdW2NIXVtjSF1jKFMoPU8pKD1PKU4yW0NIM10pYzFOKEMyPTMpW0NAXShbQ0gzXSkoW09IXSlDKE4zKT1DKEMjTilDI04=

>  <s_epik_cmdline>  (354) 
J2VwaWtfcHl0aG9uJywgJy1waHQnLCAnMi4wJywgJy1waCcsICc3LjAnLCAnLXRuJywgJzgnLCAnLW1hJywgJzIwMCcsICctaW1hZScsICc8aW5maWxlLm1hZT4nLCAnLW9tYWUnLCAnPG91dGZpbGUubWFlPic=

>  <r_epik_Ionization_Penalty>  (354) 
0.266491

>  <r_epik_Ionization_Penalty_Charging>  (354) 
0.266332

>  <r_epik_Ionization_Penalty_Neutral>  (354) 
0.000158698

>  <r_epik_State_Penalty>  (354) 
0.25828

>  <r_epik_Charging_Adjusted_Penalty>  (354) 
0.524611

>  <i_epik_Tot_Q>  (354) 
-1

>  <i_epik_Tot_abs_Q>  (354) 
1

>  <s_epik_Chemistry_Notes>  (354) 
This compound has an imine and may undergo hydrolysis.

>  <s_lp_Force_Field>  (354) 
OPLS3e

>  <r_lp_Energy>  (354) 
20.0825

>  <b_lp_Chiralities_Consistent>  (354) 
1

>  <s_lp_Variant>  (354) 
99:0-1

>  <s_i_glide_gridfile>  (354) 
pfpi4k_grid

>  <i_i_glide_lignum>  (354) 
14

>  <i_i_glide_rotatable_bonds>  (354) 
2

>  <r_i_docking_score>  (354) 
-2.76055

>  <r_i_glide_ligand_efficiency>  (354) 
-0.120024

>  <r_i_glide_ligand_efficiency_sa>  (354) 
-0.341332

>  <r_i_glide_ligand_efficiency_ln>  (354) 
-0.667526

>  <r_i_glide_gscore>  (354) 
-2.76055

>  <r_i_glide_lipo>  (354) 
-0.0445221

>  <r_i_glide_hbond>  (354) 
-0.2

>  <r_i_glide_metal>  (354) 
-0

>  <r_i_glide_rewards>  (354) 
-1.18149

>  <r_i_glide_evdw>  (354) 
-19.1996

>  <r_i_glide_ecoul>  (354) 
-4.30127

>  <r_i_glide_erotb>  (354) 
0.348429

>  <r_i_glide_esite>  (354) 
-0.0777977

>  <r_i_glide_emodel>  (354) 
-29.1272

>  <r_i_glide_energy>  (354) 
-23.5009

>  <r_i_glide_einternal>  (354) 
-0.133209

>  <r_i_glide_intrahb_reward>  (354) 
-0

>  <i_i_glide_confnum>  (354) 
2

>  <i_i_glide_posenum>  (354) 
1

>  <r_i_glide_eff_state_penalty>  (354) 
0

>  <ligand_id>  (354) 
99

>  <original_smiles>  (354) 
CN1C2=NC(=C(C#N)C#N)C(C)(O)N2c2ccccc2S1(=O)=O

>  <smiles>  (354) 
[H]c1c([H])c([H])c2c(c1[H])N1C(=NC(=C(C#N)C#N)C1([O-])C([H])([H])[H])N(C([H])([H])[H])S2(=O)=O

$$$$
99:0:1
     RDKit          3D

 33 35  0  0  1  0  0  0  0  0999 V2000
    3.9692   -1.4382    3.8543 C   0  0  0  0  0  0  0  0  0  0  0  0
    3.8891   -2.0594    2.5325 N   0  0  0  0  0  0  0  0  0  0  0  0
    3.3768   -3.3568    2.3512 C   0  0  0  0  0  0  0  0  0  0  0  0
    3.0793   -4.1718    3.3034 N   0  0  0  0  0  0  0  0  0  0  0  0
    2.6497   -5.3493    2.7082 C   0  0  0  0  0  0  0  0  0  0  0  0
    2.2364   -6.4147    3.4295 C   0  0  0  0  0  0  0  0  0  0  0  0
    2.2703   -6.3659    4.8489 C   0  0  0  0  0  0  0  0  0  0  0  0
    2.2751   -6.3855    6.0073 N   0  0  0  0  0  0  0  0  0  0  0  0
    1.7536   -7.5855    2.7837 C   0  0  0  0  0  0  0  0  0  0  0  0
    1.3587   -8.5856    2.3563 N   0  0  0  0  0  0  0  0  0  0  0  0
    2.6929   -5.2151    1.1911 C   0  0  1  0  0  0  0  0  0  0  0  0
    3.6564   -6.2298    0.5500 C   0  0  0  0  0  0  0  0  0  0  0  0
    1.4890   -5.4500    0.7093 O   0  0  0  0  0  0  0  0  0  0  0  0
    3.1590   -3.8180    1.0531 N   0  0  0  0  0  0  0  0  0  0  0  0
    3.3320   -3.1072   -0.1730 C   0  0  0  0  0  0  0  0  0  0  0  0
    2.7415   -3.4661   -1.4028 C   0  0  0  0  0  0  0  0  0  0  0  0
    2.9088   -2.6844   -2.5681 C   0  0  0  0  0  0  0  0  0  0  0  0
    3.6427   -1.4817   -2.5305 C   0  0  0  0  0  0  0  0  0  0  0  0
    4.2543   -1.1069   -1.3232 C   0  0  0  0  0  0  0  0  0  0  0  0
    4.1157   -1.9233   -0.1832 C   0  0  0  0  0  0  0  0  0  0  0  0
    4.9381   -1.4446    1.3118 S   0  0  0  0  0  0  0  0  0  0  0  0
    4.9263    0.0206    1.3903 O   0  0  0  0  0  0  0  0  0  0  0  0
    6.2111   -2.1860    1.3950 O   0  0  0  0  0  0  0  0  0  0  0  0
    3.0833   -1.6800    4.4445 H   0  0  0  0  0  0  0  0  0  0  0  0
    4.0076   -0.3498    3.7590 H   0  0  0  0  0  0  0  0  0  0  0  0
    4.8715   -1.7718    4.3710 H   0  0  0  0  0  0  0  0  0  0  0  0
    4.6567   -6.1253    0.9592 H   0  0  0  0  0  0  0  0  0  0  0  0
    3.7255   -6.0863   -0.5231 H   0  0  0  0  0  0  0  0  0  0  0  0
    3.3332   -7.2564    0.7186 H   0  0  0  0  0  0  0  0  0  0  0  0
    2.1572   -4.3719   -1.4674 H   0  0  0  0  0  0  0  0  0  0  0  0
    2.4462   -3.0022   -3.4885 H   0  0  0  0  0  0  0  0  0  0  0  0
    3.7210   -0.8503   -3.4058 H   0  0  0  0  0  0  0  0  0  0  0  0
    4.8075   -0.1825   -1.2622 H   0  0  0  0  0  0  0  0  0  0  0  0
  1  2  1  0
  1 24  1  0
  1 25  1  0
  1 26  1  0
  2 21  1  0
  2  3  1  0
  3 14  1  0
  3  4  2  0
  4  5  1  0
  5  6  2  3
  5 11  1  0
  6  7  1  0
  6  9  1  0
  7  8  3  0
  9 10  3  0
 11 12  1  0
 11 13  1  6
 11 14  1  0
 12 27  1  0
 12 28  1  0
 12 29  1  0
 14 15  1  0
 15 20  2  0
 15 16  1  0
 16 17  2  0
 16 30  1  0
 17 18  1  0
 17 31  1  0
 18 19  2  0
 18 32  1  0
 19 20  1  0
 19 33  1  0
 20 21  1  0
 21 22  2  0
 21 23  2  0
M  CHG  1  13  -1
M  END
>  <i_m_ct_stereo_status>  (355) 
1

>  <s_m_source_file>  (355) 
/var/tmp/pbs.5076255.sched01/tmpxmhsyh4a/135ajud44o5.sdf

>  <i_m_source_file_index>  (355) 
14

>  <i_lp_mmshare_version>  (355) 
48012

>  <i_f3d_flags>  (355) 
0

>  <s_epik_input>  (355) 
W2NIXTFbY0hdW2NIXVtjSF1jKFMoPU8pKD1PKU4yW0NIM10pYzFOKEMyPTMpW0NAXShbQ0gzXSkoW09IXSlDKE4zKT1DKEMjTilDI04=

>  <s_epik_cmdline>  (355) 
J2VwaWtfcHl0aG9uJywgJy1waHQnLCAnMi4wJywgJy1waCcsICc3LjAnLCAnLXRuJywgJzgnLCAnLW1hJywgJzIwMCcsICctaW1hZScsICc8aW5maWxlLm1hZT4nLCAnLW9tYWUnLCAnPG91dGZpbGUubWFlPic=

>  <r_epik_Ionization_Penalty>  (355) 
0.266491

>  <r_epik_Ionization_Penalty_Charging>  (355) 
0.266332

>  <r_epik_Ionization_Penalty_Neutral>  (355) 
0.000158698

>  <r_epik_State_Penalty>  (355) 
0.25828

>  <r_epik_Charging_Adjusted_Penalty>  (355) 
0.524611

>  <i_epik_Tot_Q>  (355) 
-1

>  <i_epik_Tot_abs_Q>  (355) 
1

>  <s_epik_Chemistry_Notes>  (355) 
This compound has an imine and may undergo hydrolysis.

>  <s_lp_Force_Field>  (355) 
OPLS3e

>  <r_lp_Energy>  (355) 
20.0825

>  <b_lp_Chiralities_Consistent>  (355) 
1

>  <s_lp_Variant>  (355) 
99:0-1

>  <s_i_glide_gridfile>  (355) 
pfpi4k_grid

>  <i_i_glide_lignum>  (355) 
14

>  <i_i_glide_rotatable_bonds>  (355) 
2

>  <r_i_docking_score>  (355) 
-2.75953

>  <r_i_glide_ligand_efficiency>  (355) 
-0.11998

>  <r_i_glide_ligand_efficiency_sa>  (355) 
-0.341206

>  <r_i_glide_ligand_efficiency_ln>  (355) 
-0.66728

>  <r_i_glide_gscore>  (355) 
-2.75953

>  <r_i_glide_lipo>  (355) 
-0.12904

>  <r_i_glide_hbond>  (355) 
-0.149953

>  <r_i_glide_metal>  (355) 
-0

>  <r_i_glide_rewards>  (355) 
-1.25663

>  <r_i_glide_evdw>  (355) 
-19.5709

>  <r_i_glide_ecoul>  (355) 
-3.69623

>  <r_i_glide_erotb>  (355) 
0.348429

>  <r_i_glide_esite>  (355) 
-0.0393544

>  <r_i_glide_emodel>  (355) 
-29.0006

>  <r_i_glide_energy>  (355) 
-23.2672

>  <r_i_glide_einternal>  (355) 
-0.131906

>  <r_i_glide_intrahb_reward>  (355) 
-0

>  <i_i_glide_confnum>  (355) 
2

>  <i_i_glide_posenum>  (355) 
32

>  <r_i_glide_eff_state_penalty>  (355) 
0

>  <ligand_id>  (355) 
99

>  <original_smiles>  (355) 
CN1C2=NC(=C(C#N)C#N)C(C)(O)N2c2ccccc2S1(=O)=O

>  <smiles>  (355) 
[H]c1c([H])c([H])c2c(c1[H])N1C(=NC(=C(C#N)C#N)C1([O-])C([H])([H])[H])N(C([H])([H])[H])S2(=O)=O

$$$$
99:0:2
     RDKit          3D

 33 35  0  0  1  0  0  0  0  0999 V2000
    3.0121   -0.2391    2.5998 C   0  0  0  0  0  0  0  0  0  0  0  0
    1.8546    0.3201    3.2984 N   0  0  0  0  0  0  0  0  0  0  0  0
    1.0410   -0.4705    4.1256 C   0  0  0  0  0  0  0  0  0  0  0  0
    1.1408   -1.7473    4.2670 N   0  0  0  0  0  0  0  0  0  0  0  0
    0.1637   -2.1329    5.1701 C   0  0  0  0  0  0  0  0  0  0  0  0
    0.0105   -3.4159    5.5699 C   0  0  0  0  0  0  0  0  0  0  0  0
    0.8331   -4.4376    5.0188 C   0  0  0  0  0  0  0  0  0  0  0  0
    1.4514   -5.3146    4.5830 N   0  0  0  0  0  0  0  0  0  0  0  0
   -0.9719   -3.7738    6.5319 C   0  0  0  0  0  0  0  0  0  0  0  0
   -1.7767   -4.1453    7.2771 N   0  0  0  0  0  0  0  0  0  0  0  0
   -0.6362   -0.9073    5.6076 C   0  0  1  0  0  0  0  0  0  0  0  0
   -2.1217   -1.0130    5.2455 C   0  0  0  0  0  0  0  0  0  0  0  0
   -0.5641   -0.7686    6.9092 O   0  0  0  0  0  0  0  0  0  0  0  0
    0.0438    0.1630    4.8663 N   0  0  0  0  0  0  0  0  0  0  0  0
   -0.2366    1.5542    4.9896 C   0  0  0  0  0  0  0  0  0  0  0  0
   -0.9735    2.1481    6.0447 C   0  0  0  0  0  0  0  0  0  0  0  0
   -1.1300    3.5502    6.1197 C   0  0  0  0  0  0  0  0  0  0  0  0
   -0.5525    4.3963    5.1524 C   0  0  0  0  0  0  0  0  0  0  0  0
    0.1544    3.8317    4.0825 C   0  0  0  0  0  0  0  0  0  0  0  0
    0.2868    2.4342    4.0067 C   0  0  0  0  0  0  0  0  0  0  0  0
    1.1368    1.7310    2.6212 S   0  0  0  0  0  0  0  0  0  0  0  0
    2.2196    2.6466    2.2317 O   0  0  0  0  0  0  0  0  0  0  0  0
    0.1164    1.2905    1.6603 O   0  0  0  0  0  0  0  0  0  0  0  0
    3.5511   -0.9341    3.2493 H   0  0  0  0  0  0  0  0  0  0  0  0
    3.7064    0.5597    2.3261 H   0  0  0  0  0  0  0  0  0  0  0  0
    2.6948   -0.7486    1.6851 H   0  0  0  0  0  0  0  0  0  0  0  0
   -2.2347   -1.1141    4.1735 H   0  0  0  0  0  0  0  0  0  0  0  0
   -2.6583   -0.1246    5.5554 H   0  0  0  0  0  0  0  0  0  0  0  0
   -2.6005   -1.8611    5.7289 H   0  0  0  0  0  0  0  0  0  0  0  0
   -1.4090    1.5361    6.8218 H   0  0  0  0  0  0  0  0  0  0  0  0
   -1.6828    3.9801    6.9373 H   0  0  0  0  0  0  0  0  0  0  0  0
   -0.6403    5.4678    5.2272 H   0  0  0  0  0  0  0  0  0  0  0  0
    0.5981    4.4597    3.3197 H   0  0  0  0  0  0  0  0  0  0  0  0
  1  2  1  0
  1 24  1  0
  1 25  1  0
  1 26  1  0
  2 21  1  0
  2  3  1  0
  3 14  1  0
  3  4  2  0
  4  5  1  0
  5  6  2  3
  5 11  1  0
  6  7  1  0
  6  9  1  0
  7  8  3  0
  9 10  3  0
 11 12  1  0
 11 13  1  1
 11 14  1  0
 12 27  1  0
 12 28  1  0
 12 29  1  0
 14 15  1  0
 15 20  2  0
 15 16  1  0
 16 17  2  0
 16 30  1  0
 17 18  1  0
 17 31  1  0
 18 19  2  0
 18 32  1  0
 19 20  1  0
 19 33  1  0
 20 21  1  0
 21 22  2  0
 21 23  2  0
M  CHG  1  13  -1
M  END
>  <i_m_ct_stereo_status>  (356) 
1

>  <s_m_source_file>  (356) 
/var/tmp/pbs.5076255.sched01/tmpxmhsyh4a/135ajud44o5.sdf

>  <i_m_source_file_index>  (356) 
14

>  <i_lp_mmshare_version>  (356) 
48012

>  <i_f3d_flags>  (356) 
0

>  <s_epik_input>  (356) 
W2NIXTFbY0hdW2NIXVtjSF1jKFMoPU8pKD1PKU4yW0NIM10pYzFOKEMyPTMpW0NAXShbQ0gzXSkoW09IXSlDKE4zKT1DKEMjTilDI04=

>  <s_epik_cmdline>  (356) 
J2VwaWtfcHl0aG9uJywgJy1waHQnLCAnMi4wJywgJy1waCcsICc3LjAnLCAnLXRuJywgJzgnLCAnLW1hJywgJzIwMCcsICctaW1hZScsICc8aW5maWxlLm1hZT4nLCAnLW9tYWUnLCAnPG91dGZpbGUubWFlPic=

>  <r_epik_Ionization_Penalty>  (356) 
0.266491

>  <r_epik_Ionization_Penalty_Charging>  (356) 
0.266332

>  <r_epik_Ionization_Penalty_Neutral>  (356) 
0.000158698

>  <r_epik_State_Penalty>  (356) 
0.25828

>  <r_epik_Charging_Adjusted_Penalty>  (356) 
0.524611

>  <i_epik_Tot_Q>  (356) 
-1

>  <i_epik_Tot_abs_Q>  (356) 
1

>  <s_epik_Chemistry_Notes>  (356) 
This compound has an imine and may undergo hydrolysis.

>  <s_lp_Force_Field>  (356) 
OPLS3e

>  <r_lp_Energy>  (356) 
20.0825

>  <b_lp_Chiralities_Consistent>  (356) 
1

>  <s_lp_Variant>  (356) 
99:0-1

>  <s_i_glide_gridfile>  (356) 
pfpi4k_grid

>  <i_i_glide_lignum>  (356) 
14

>  <i_i_glide_rotatable_bonds>  (356) 
2

>  <r_i_docking_score>  (356) 
-2.34416

>  <r_i_glide_ligand_efficiency>  (356) 
-0.10192

>  <r_i_glide_ligand_efficiency_sa>  (356) 
-0.289847

>  <r_i_glide_ligand_efficiency_ln>  (356) 
-0.56684

>  <r_i_glide_gscore>  (356) 
-2.34416

>  <r_i_glide_lipo>  (356) 
-0.000935313

>  <r_i_glide_hbond>  (356) 
-0.0350092

>  <r_i_glide_metal>  (356) 
-0

>  <r_i_glide_rewards>  (356) 
-1.1705

>  <r_i_glide_evdw>  (356) 
-22.4289

>  <r_i_glide_ecoul>  (356) 
-0.621713

>  <r_i_glide_erotb>  (356) 
0.348429

>  <r_i_glide_esite>  (356) 
-0.271449

>  <r_i_glide_emodel>  (356) 
-28.0111

>  <r_i_glide_energy>  (356) 
-23.0506

>  <r_i_glide_einternal>  (356) 
-0.131827

>  <r_i_glide_intrahb_reward>  (356) 
-0

>  <i_i_glide_confnum>  (356) 
1

>  <i_i_glide_posenum>  (356) 
12

>  <r_i_glide_eff_state_penalty>  (356) 
0

>  <ligand_id>  (356) 
99

>  <original_smiles>  (356) 
CN1C2=NC(=C(C#N)C#N)C(C)(O)N2c2ccccc2S1(=O)=O

>  <smiles>  (356) 
[H]c1c([H])c([H])c2c(c1[H])N1C(=NC(=C(C#N)C#N)C1([O-])C([H])([H])[H])N(C([H])([H])[H])S2(=O)=O

$$$$
99:1:0
     RDKit          3D

 34 36  0  0  1  0  0  0  0  0999 V2000
    0.6145   -4.2940    4.5264 C   0  0  0  0  0  0  0  0  0  0  0  0
    0.7405   -2.8691    4.2120 N   0  0  0  0  0  0  0  0  0  0  0  0
    1.7895   -2.3901    3.4049 C   0  0  0  0  0  0  0  0  0  0  0  0
    2.7719   -3.0883    2.9580 N   0  0  0  0  0  0  0  0  0  0  0  0
    3.5803   -2.2469    2.2149 C   0  0  0  0  0  0  0  0  0  0  0  0
    4.6862   -2.6753    1.5607 C   0  0  0  0  0  0  0  0  0  0  0  0
    5.0967   -4.0350    1.6712 C   0  0  0  0  0  0  0  0  0  0  0  0
    5.5062   -5.1161    1.7251 N   0  0  0  0  0  0  0  0  0  0  0  0
    5.4670   -1.7944    0.7535 C   0  0  0  0  0  0  0  0  0  0  0  0
    6.1639   -1.1493    0.0884 N   0  0  0  0  0  0  0  0  0  0  0  0
    2.9774   -0.8428    2.2287 C   0  0  1  0  0  0  0  0  0  0  0  0
    3.9357    0.1685    2.8879 C   0  0  0  0  0  0  0  0  0  0  0  0
    2.7995   -0.4191    0.8845 O   0  0  0  0  0  0  0  0  0  0  0  0
    1.7641   -1.0516    3.0273 N   0  0  0  0  0  0  0  0  0  0  0  0
    0.7643   -0.0696    3.2556 C   0  0  0  0  0  0  0  0  0  0  0  0
    0.6199    1.1257    2.5065 C   0  0  0  0  0  0  0  0  0  0  0  0
   -0.4658    1.9966    2.7579 C   0  0  0  0  0  0  0  0  0  0  0  0
   -1.4303    1.7043    3.7425 C   0  0  0  0  0  0  0  0  0  0  0  0
   -1.2932    0.5387    4.5112 C   0  0  0  0  0  0  0  0  0  0  0  0
   -0.1929   -0.3099    4.2763 C   0  0  0  0  0  0  0  0  0  0  0  0
   -0.0062   -1.7513    5.2996 S   0  0  0  0  0  0  0  0  0  0  0  0
   -1.3464   -2.2480    5.6505 O   0  0  0  0  0  0  0  0  0  0  0  0
    0.9671   -1.4365    6.3575 O   0  0  0  0  0  0  0  0  0  0  0  0
    0.8492   -4.9001    3.6498 H   0  0  0  0  0  0  0  0  0  0  0  0
   -0.4102   -4.5185    4.8247 H   0  0  0  0  0  0  0  0  0  0  0  0
    1.2763   -4.5500    5.3545 H   0  0  0  0  0  0  0  0  0  0  0  0
    4.1842   -0.1318    3.9043 H   0  0  0  0  0  0  0  0  0  0  0  0
    3.5023    1.1705    2.9223 H   0  0  0  0  0  0  0  0  0  0  0  0
    4.8739    0.2489    2.3356 H   0  0  0  0  0  0  0  0  0  0  0  0
    1.9385   -0.6562    0.5425 H   0  0  0  0  0  0  0  0  0  0  0  0
    1.3197    1.3995    1.7294 H   0  0  0  0  0  0  0  0  0  0  0  0
   -0.5818    2.8990    2.1794 H   0  0  0  0  0  0  0  0  0  0  0  0
   -2.2755    2.3618    3.9035 H   0  0  0  0  0  0  0  0  0  0  0  0
   -2.0305    0.2928    5.2651 H   0  0  0  0  0  0  0  0  0  0  0  0
  1  2  1  0
  1 24  1  0
  1 25  1  0
  1 26  1  0
  2 21  1  0
  2  3  1  0
  3 14  1  0
  3  4  2  0
  4  5  1  0
  5  6  2  3
  5 11  1  0
  6  7  1  0
  6  9  1  0
  7  8  3  0
  9 10  3  0
 11 12  1  0
 11 13  1  6
 11 14  1  0
 12 27  1  0
 12 28  1  0
 12 29  1  0
 13 30  1  0
 14 15  1  0
 15 20  2  0
 15 16  1  0
 16 17  2  0
 16 31  1  0
 17 18  1  0
 17 32  1  0
 18 19  2  0
 18 33  1  0
 19 20  1  0
 19 34  1  0
 20 21  1  0
 21 22  2  0
 21 23  2  0
M  END
>  <i_m_ct_stereo_status>  (357) 
1

>  <s_m_source_file>  (357) 
/var/tmp/pbs.5076255.sched01/tmpxmhsyh4a/135ajud44o5.sdf

>  <i_m_source_file_index>  (357) 
15

>  <i_lp_mmshare_version>  (357) 
48012

>  <i_f3d_flags>  (357) 
0

>  <s_epik_input>  (357) 
W2NIXTFbY0hdW2NIXVtjSF1jKFMoPU8pKD1PKU4yW0NIM10pYzFOKEMyPTMpW0NAXShbQ0gzXSkoW09IXSlDKE4zKT1DKEMjTilDI04=

>  <s_epik_cmdline>  (357) 
J2VwaWtfcHl0aG9uJywgJy1waHQnLCAnMi4wJywgJy1waCcsICc3LjAnLCAnLXRuJywgJzgnLCAnLW1hJywgJzIwMCcsICctaW1hZScsICc8aW5maWxlLm1hZT4nLCAnLW9tYWUnLCAnPG91dGZpbGUubWFlPic=

>  <r_epik_Ionization_Penalty>  (357) 
0.601928

>  <r_epik_Ionization_Penalty_Charging>  (357) 
0

>  <r_epik_Ionization_Penalty_Neutral>  (357) 
0.601928

>  <r_epik_State_Penalty>  (357) 
0.616387

>  <r_epik_Charging_Adjusted_Penalty>  (357) 
0.616387

>  <i_epik_Tot_Q>  (357) 
0

>  <i_epik_Tot_abs_Q>  (357) 
0

>  <s_epik_Chemistry_Notes>  (357) 
This compound has an imine and may undergo hydrolysis.

>  <s_lp_Force_Field>  (357) 
OPLS3e

>  <r_lp_Energy>  (357) 
22.781

>  <b_lp_Chiralities_Consistent>  (357) 
1

>  <s_lp_Variant>  (357) 
99:0-2

>  <s_i_glide_gridfile>  (357) 
pfpi4k_grid

>  <i_i_glide_lignum>  (357) 
15

>  <i_i_glide_rotatable_bonds>  (357) 
3

>  <r_i_docking_score>  (357) 
-3.29278

>  <r_i_glide_ligand_efficiency>  (357) 
-0.143164

>  <r_i_glide_ligand_efficiency_sa>  (357) 
-0.40714

>  <r_i_glide_ligand_efficiency_ln>  (357) 
-0.796224

>  <r_i_glide_gscore>  (357) 
-3.29278

>  <r_i_glide_lipo>  (357) 
-0.0505994

>  <r_i_glide_hbond>  (357) 
-0.160143

>  <r_i_glide_metal>  (357) 
-0

>  <r_i_glide_rewards>  (357) 
-1.35774

>  <r_i_glide_evdw>  (357) 
-21.1201

>  <r_i_glide_ecoul>  (357) 
-6.20319

>  <r_i_glide_erotb>  (357) 
0.346547

>  <r_i_glide_esite>  (357) 
-0.0843591

>  <r_i_glide_emodel>  (357) 
-33.4244

>  <r_i_glide_energy>  (357) 
-27.3233

>  <r_i_glide_einternal>  (357) 
0.324168

>  <r_i_glide_intrahb_reward>  (357) 
-0

>  <i_i_glide_confnum>  (357) 
2

>  <i_i_glide_posenum>  (357) 
27

>  <r_i_glide_eff_state_penalty>  (357) 
0

>  <ligand_id>  (357) 
99

>  <original_smiles>  (357) 
CN1C2=NC(=C(C#N)C#N)C(C)(O)N2c2ccccc2S1(=O)=O

>  <smiles>  (357) 
[H]OC1(C([H])([H])[H])C(=C(C#N)C#N)N=C2N1c1c([H])c([H])c([H])c([H])c1S(=O)(=O)N2C([H])([H])[H]

$$$$
99:1:1
     RDKit          3D

 34 36  0  0  1  0  0  0  0  0999 V2000
    4.3511   -1.5203    3.5676 C   0  0  0  0  0  0  0  0  0  0  0  0
    4.2908   -2.0787    2.2175 N   0  0  0  0  0  0  0  0  0  0  0  0
    3.8179   -3.3766    1.9689 C   0  0  0  0  0  0  0  0  0  0  0  0
    3.5009   -4.2443    2.8751 N   0  0  0  0  0  0  0  0  0  0  0  0
    3.0859   -5.3866    2.2180 C   0  0  0  0  0  0  0  0  0  0  0  0
    2.6671   -6.4862    2.8906 C   0  0  0  0  0  0  0  0  0  0  0  0
    2.6732   -6.4982    4.3136 C   0  0  0  0  0  0  0  0  0  0  0  0
    2.6493   -6.5800    5.4686 N   0  0  0  0  0  0  0  0  0  0  0  0
    2.2087   -7.6403    2.1958 C   0  0  0  0  0  0  0  0  0  0  0  0
    1.8258   -8.6033    1.6851 N   0  0  0  0  0  0  0  0  0  0  0  0
    3.1731   -5.1677    0.7058 C   0  0  1  0  0  0  0  0  0  0  0  0
    4.1890   -6.1414    0.0766 C   0  0  0  0  0  0  0  0  0  0  0  0
    1.9073   -5.4195    0.1112 O   0  0  0  0  0  0  0  0  0  0  0  0
    3.6460   -3.7786    0.6522 N   0  0  0  0  0  0  0  0  0  0  0  0
    3.7729   -3.0123   -0.5441 C   0  0  0  0  0  0  0  0  0  0  0  0
    3.1874   -3.3461   -1.7861 C   0  0  0  0  0  0  0  0  0  0  0  0
    3.3110   -2.4960   -2.9071 C   0  0  0  0  0  0  0  0  0  0  0  0
    3.9995   -1.2730   -2.8130 C   0  0  0  0  0  0  0  0  0  0  0  0
    4.6090   -0.9314   -1.5929 C   0  0  0  0  0  0  0  0  0  0  0  0
    4.5041   -1.8033   -0.4906 C   0  0  0  0  0  0  0  0  0  0  0  0
    5.3249   -1.3739    1.0272 S   0  0  0  0  0  0  0  0  0  0  0  0
    5.2725    0.0895    1.1865 O   0  0  0  0  0  0  0  0  0  0  0  0
    6.6093   -2.0882    1.0581 O   0  0  0  0  0  0  0  0  0  0  0  0
    3.4739   -1.8203    4.1433 H   0  0  0  0  0  0  0  0  0  0  0  0
    4.3608   -0.4280    3.5234 H   0  0  0  0  0  0  0  0  0  0  0  0
    5.2651   -1.8576    4.0597 H   0  0  0  0  0  0  0  0  0  0  0  0
    5.1774   -6.0326    0.5205 H   0  0  0  0  0  0  0  0  0  0  0  0
    4.3113   -5.9555   -0.9870 H   0  0  0  0  0  0  0  0  0  0  0  0
    3.8867   -7.1846    0.1891 H   0  0  0  0  0  0  0  0  0  0  0  0
    2.0629   -5.7262   -0.7760 H   0  0  0  0  0  0  0  0  0  0  0  0
    2.6215   -4.2425   -1.9122 H   0  0  0  0  0  0  0  0  0  0  0  0
    2.8517   -2.7706   -3.8463 H   0  0  0  0  0  0  0  0  0  0  0  0
    4.0576   -0.5873   -3.6574 H   0  0  0  0  0  0  0  0  0  0  0  0
    5.1206    0.0053   -1.4939 H   0  0  0  0  0  0  0  0  0  0  0  0
  1  2  1  0
  1 24  1  0
  1 25  1  0
  1 26  1  0
  2 21  1  0
  2  3  1  0
  3 14  1  0
  3  4  2  0
  4  5  1  0
  5  6  2  3
  5 11  1  0
  6  7  1  0
  6  9  1  0
  7  8  3  0
  9 10  3  0
 11 12  1  0
 11 13  1  6
 11 14  1  0
 12 27  1  0
 12 28  1  0
 12 29  1  0
 13 30  1  0
 14 15  1  0
 15 20  2  0
 15 16  1  0
 16 17  2  0
 16 31  1  0
 17 18  1  0
 17 32  1  0
 18 19  2  0
 18 33  1  0
 19 20  1  0
 19 34  1  0
 20 21  1  0
 21 22  2  0
 21 23  2  0
M  END
>  <i_m_ct_stereo_status>  (358) 
1

>  <s_m_source_file>  (358) 
/var/tmp/pbs.5076255.sched01/tmpxmhsyh4a/135ajud44o5.sdf

>  <i_m_source_file_index>  (358) 
15

>  <i_lp_mmshare_version>  (358) 
48012

>  <i_f3d_flags>  (358) 
0

>  <s_epik_input>  (358) 
W2NIXTFbY0hdW2NIXVtjSF1jKFMoPU8pKD1PKU4yW0NIM10pYzFOKEMyPTMpW0NAXShbQ0gzXSkoW09IXSlDKE4zKT1DKEMjTilDI04=

>  <s_epik_cmdline>  (358) 
J2VwaWtfcHl0aG9uJywgJy1waHQnLCAnMi4wJywgJy1waCcsICc3LjAnLCAnLXRuJywgJzgnLCAnLW1hJywgJzIwMCcsICctaW1hZScsICc8aW5maWxlLm1hZT4nLCAnLW9tYWUnLCAnPG91dGZpbGUubWFlPic=

>  <r_epik_Ionization_Penalty>  (358) 
0.601928

>  <r_epik_Ionization_Penalty_Charging>  (358) 
0

>  <r_epik_Ionization_Penalty_Neutral>  (358) 
0.601928

>  <r_epik_State_Penalty>  (358) 
0.616387

>  <r_epik_Charging_Adjusted_Penalty>  (358) 
0.616387

>  <i_epik_Tot_Q>  (358) 
0

>  <i_epik_Tot_abs_Q>  (358) 
0

>  <s_epik_Chemistry_Notes>  (358) 
This compound has an imine and may undergo hydrolysis.

>  <s_lp_Force_Field>  (358) 
OPLS3e

>  <r_lp_Energy>  (358) 
22.781

>  <b_lp_Chiralities_Consistent>  (358) 
1

>  <s_lp_Variant>  (358) 
99:0-2

>  <s_i_glide_gridfile>  (358) 
pfpi4k_grid

>  <i_i_glide_lignum>  (358) 
15

>  <i_i_glide_rotatable_bonds>  (358) 
3

>  <r_i_docking_score>  (358) 
-3.23559

>  <r_i_glide_ligand_efficiency>  (358) 
-0.140678

>  <r_i_glide_ligand_efficiency_sa>  (358) 
-0.400069

>  <r_i_glide_ligand_efficiency_ln>  (358) 
-0.782395

>  <r_i_glide_gscore>  (358) 
-3.23559

>  <r_i_glide_lipo>  (358) 
-0.137419

>  <r_i_glide_hbond>  (358) 
-0.368138

>  <r_i_glide_metal>  (358) 
-0

>  <r_i_glide_rewards>  (358) 
-1.31729

>  <r_i_glide_evdw>  (358) 
-20.4202

>  <r_i_glide_ecoul>  (358) 
-4.73664

>  <r_i_glide_erotb>  (358) 
0.346547

>  <r_i_glide_esite>  (358) 
-0.0277768

>  <r_i_glide_emodel>  (358) 
-31.0047

>  <r_i_glide_energy>  (358) 
-25.1569

>  <r_i_glide_einternal>  (358) 
0.785279

>  <r_i_glide_intrahb_reward>  (358) 
-0

>  <i_i_glide_confnum>  (358) 
1

>  <i_i_glide_posenum>  (358) 
10

>  <r_i_glide_eff_state_penalty>  (358) 
0

>  <ligand_id>  (358) 
99

>  <original_smiles>  (358) 
CN1C2=NC(=C(C#N)C#N)C(C)(O)N2c2ccccc2S1(=O)=O

>  <smiles>  (358) 
[H]OC1(C([H])([H])[H])C(=C(C#N)C#N)N=C2N1c1c([H])c([H])c([H])c([H])c1S(=O)(=O)N2C([H])([H])[H]

$$$$
99:1:2
     RDKit          3D

 34 36  0  0  1  0  0  0  0  0999 V2000
   -1.0442   -2.0417    5.3772 C   0  0  0  0  0  0  0  0  0  0  0  0
   -0.4185   -0.7795    5.0043 N   0  0  0  0  0  0  0  0  0  0  0  0
    0.5715   -0.7189    4.0090 C   0  0  0  0  0  0  0  0  0  0  0  0
    1.0895   -1.7320    3.4004 N   0  0  0  0  0  0  0  0  0  0  0  0
    2.0072   -1.2416    2.4881 C   0  0  0  0  0  0  0  0  0  0  0  0
    2.7291   -2.0431    1.6663 C   0  0  0  0  0  0  0  0  0  0  0  0
    2.5831   -3.4559    1.7524 C   0  0  0  0  0  0  0  0  0  0  0  0
    2.4772   -4.6107    1.7694 N   0  0  0  0  0  0  0  0  0  0  0  0
    3.6318   -1.5007    0.7102 C   0  0  0  0  0  0  0  0  0  0  0  0
    4.4005   -1.1250   -0.0700 N   0  0  0  0  0  0  0  0  0  0  0  0
    2.0360    0.2790    2.5778 C   0  0  1  0  0  0  0  0  0  0  0  0
    3.4187    0.7934    3.0265 C   0  0  0  0  0  0  0  0  0  0  0  0
    1.7432    0.8233    1.3005 O   0  0  0  0  0  0  0  0  0  0  0  0
    1.0309    0.5308    3.6162 N   0  0  0  0  0  0  0  0  0  0  0  0
    0.5674    1.8193    4.0053 C   0  0  0  0  0  0  0  0  0  0  0  0
    0.7905    3.0136    3.2823 C   0  0  0  0  0  0  0  0  0  0  0  0
    0.1981    4.2350    3.6860 C   0  0  0  0  0  0  0  0  0  0  0  0
   -0.6146    4.3029    4.8277 C   0  0  0  0  0  0  0  0  0  0  0  0
   -0.8266    3.1355    5.5839 C   0  0  0  0  0  0  0  0  0  0  0  0
   -0.2208    1.9318    5.1757 C   0  0  0  0  0  0  0  0  0  0  0  0
   -0.4453    0.4857    6.1740 S   0  0  0  0  0  0  0  0  0  0  0  0
   -1.7904    0.5378    6.7701 O   0  0  0  0  0  0  0  0  0  0  0  0
    0.7410    0.3226    7.0253 O   0  0  0  0  0  0  0  0  0  0  0  0
   -1.2006   -2.6460    4.4845 H   0  0  0  0  0  0  0  0  0  0  0  0
   -2.0177   -1.8585    5.8405 H   0  0  0  0  0  0  0  0  0  0  0  0
   -0.4097   -2.5903    6.0791 H   0  0  0  0  0  0  0  0  0  0  0  0
    3.7104    0.3699    3.9859 H   0  0  0  0  0  0  0  0  0  0  0  0
    3.4200    1.8748    3.1258 H   0  0  0  0  0  0  0  0  0  0  0  0
    4.2016    0.5385    2.3160 H   0  0  0  0  0  0  0  0  0  0  0  0
    1.4397    0.1528    0.6940 H   0  0  0  0  0  0  0  0  0  0  0  0
    1.3711    3.0175    2.3687 H   0  0  0  0  0  0  0  0  0  0  0  0
    0.3622    5.1237    3.0910 H   0  0  0  0  0  0  0  0  0  0  0  0
   -1.0675    5.2323    5.1295 H   0  0  0  0  0  0  0  0  0  0  0  0
   -1.4446    3.1652    6.4706 H   0  0  0  0  0  0  0  0  0  0  0  0
  1  2  1  0
  1 24  1  0
  1 25  1  0
  1 26  1  0
  2 21  1  0
  2  3  1  0
  3 14  1  0
  3  4  2  0
  4  5  1  0
  5  6  2  3
  5 11  1  0
  6  7  1  0
  6  9  1  0
  7  8  3  0
  9 10  3  0
 11 12  1  0
 11 13  1  6
 11 14  1  0
 12 27  1  0
 12 28  1  0
 12 29  1  0
 13 30  1  0
 14 15  1  0
 15 20  2  0
 15 16  1  0
 16 17  2  0
 16 31  1  0
 17 18  1  0
 17 32  1  0
 18 19  2  0
 18 33  1  0
 19 20  1  0
 19 34  1  0
 20 21  1  0
 21 22  2  0
 21 23  2  0
M  END
>  <i_m_ct_stereo_status>  (359) 
1

>  <s_m_source_file>  (359) 
/var/tmp/pbs.5076255.sched01/tmpxmhsyh4a/135ajud44o5.sdf

>  <i_m_source_file_index>  (359) 
15

>  <i_lp_mmshare_version>  (359) 
48012

>  <i_f3d_flags>  (359) 
0

>  <s_epik_input>  (359) 
W2NIXTFbY0hdW2NIXVtjSF1jKFMoPU8pKD1PKU4yW0NIM10pYzFOKEMyPTMpW0NAXShbQ0gzXSkoW09IXSlDKE4zKT1DKEMjTilDI04=

>  <s_epik_cmdline>  (359) 
J2VwaWtfcHl0aG9uJywgJy1waHQnLCAnMi4wJywgJy1waCcsICc3LjAnLCAnLXRuJywgJzgnLCAnLW1hJywgJzIwMCcsICctaW1hZScsICc8aW5maWxlLm1hZT4nLCAnLW9tYWUnLCAnPG91dGZpbGUubWFlPic=

>  <r_epik_Ionization_Penalty>  (359) 
0.601928

>  <r_epik_Ionization_Penalty_Charging>  (359) 
0

>  <r_epik_Ionization_Penalty_Neutral>  (359) 
0.601928

>  <r_epik_State_Penalty>  (359) 
0.616387

>  <r_epik_Charging_Adjusted_Penalty>  (359) 
0.616387

>  <i_epik_Tot_Q>  (359) 
0

>  <i_epik_Tot_abs_Q>  (359) 
0

>  <s_epik_Chemistry_Notes>  (359) 
This compound has an imine and may undergo hydrolysis.

>  <s_lp_Force_Field>  (359) 
OPLS3e

>  <r_lp_Energy>  (359) 
22.781

>  <b_lp_Chiralities_Consistent>  (359) 
1

>  <s_lp_Variant>  (359) 
99:0-2

>  <s_i_glide_gridfile>  (359) 
pfpi4k_grid

>  <i_i_glide_lignum>  (359) 
15

>  <i_i_glide_rotatable_bonds>  (359) 
3

>  <r_i_docking_score>  (359) 
-3.20592

>  <r_i_glide_ligand_efficiency>  (359) 
-0.139388

>  <r_i_glide_ligand_efficiency_sa>  (359) 
-0.3964

>  <r_i_glide_ligand_efficiency_ln>  (359) 
-0.77522

>  <r_i_glide_gscore>  (359) 
-3.20592

>  <r_i_glide_lipo>  (359) 
0

>  <r_i_glide_hbond>  (359) 
-0.16

>  <r_i_glide_metal>  (359) 
-0

>  <r_i_glide_rewards>  (359) 
-1.16363

>  <r_i_glide_evdw>  (359) 
-18.482

>  <r_i_glide_ecoul>  (359) 
-7.09054

>  <r_i_glide_erotb>  (359) 
0.346547

>  <r_i_glide_esite>  (359) 
-0.241156

>  <r_i_glide_emodel>  (359) 
-31.4917

>  <r_i_glide_energy>  (359) 
-25.5726

>  <r_i_glide_einternal>  (359) 
0.511497

>  <r_i_glide_intrahb_reward>  (359) 
-0

>  <i_i_glide_confnum>  (359) 
2

>  <i_i_glide_posenum>  (359) 
40

>  <r_i_glide_eff_state_penalty>  (359) 
0

>  <ligand_id>  (359) 
99

>  <original_smiles>  (359) 
CN1C2=NC(=C(C#N)C#N)C(C)(O)N2c2ccccc2S1(=O)=O

>  <smiles>  (359) 
[H]OC1(C([H])([H])[H])C(=C(C#N)C#N)N=C2N1c1c([H])c([H])c([H])c([H])c1S(=O)(=O)N2C([H])([H])[H]

$$$$
100:0:0
     RDKit          3D

 32 34  0  0  1  0  0  0  0  0999 V2000
    4.0519   -2.7117   -3.6048 C   0  0  0  0  0  0  0  0  0  0  0  0
    5.3459   -2.8056   -2.7755 C   0  0  0  0  0  0  0  0  0  0  0  0
    5.2754   -3.8475   -1.8080 O   0  0  0  0  0  0  0  0  0  0  0  0
    4.4707   -3.6866   -0.7013 C   0  0  0  0  0  0  0  0  0  0  0  0
    3.8513   -2.5077   -0.4537 N   0  0  0  0  0  0  0  0  0  0  0  0
    3.0459   -2.4119    0.6072 C   0  0  0  0  0  0  0  0  0  0  0  0
    2.7583   -3.3387    1.5287 N   0  0  0  0  0  0  0  0  0  0  0  0
    3.4154   -4.5046    1.2774 C   0  0  0  0  0  0  0  0  0  0  0  0
    4.2819   -4.7542    0.1925 C   0  0  0  0  0  0  0  0  0  0  0  0
    4.7081   -6.1025    0.3474 C   0  0  0  0  0  0  0  0  0  0  0  0
    4.1968   -6.6519    1.4214 N   0  0  0  0  0  0  0  0  0  0  0  0
    3.4094   -5.6955    1.9883 N   0  0  0  0  0  0  0  0  0  0  0  0
    2.6876   -6.0247    3.1998 C   0  0  0  0  0  0  0  0  0  0  0  0
    1.4519   -6.8125    2.9196 C   0  0  0  0  0  0  0  0  0  0  0  0
    1.0420   -8.0711    3.2560 C   0  0  0  0  0  0  0  0  0  0  0  0
   -0.2480   -8.1768    2.6641 C   0  0  0  0  0  0  0  0  0  0  0  0
   -1.1932   -9.3429    2.6851 C   0  0  0  0  0  0  0  0  0  0  0  0
   -0.5881   -7.0618    2.0383 N   0  0  0  0  0  0  0  0  0  0  0  0
    0.4973   -6.1966    2.1788 O   0  0  0  0  0  0  0  0  0  0  0  0
    4.1188   -1.9288   -4.3596 H   0  0  0  0  0  0  0  0  0  0  0  0
    3.1859   -2.4747   -2.9858 H   0  0  0  0  0  0  0  0  0  0  0  0
    3.8370   -3.6590   -4.1017 H   0  0  0  0  0  0  0  0  0  0  0  0
    6.1706   -3.0556   -3.4427 H   0  0  0  0  0  0  0  0  0  0  0  0
    5.6077   -1.8503   -2.3173 H   0  0  0  0  0  0  0  0  0  0  0  0
    2.5646   -1.4553    0.7319 H   0  0  0  0  0  0  0  0  0  0  0  0
    5.3675   -6.6550   -0.2945 H   0  0  0  0  0  0  0  0  0  0  0  0
    3.3549   -6.5791    3.8600 H   0  0  0  0  0  0  0  0  0  0  0  0
    2.4271   -5.0972    3.7099 H   0  0  0  0  0  0  0  0  0  0  0  0
    1.5812   -8.8052    3.8359 H   0  0  0  0  0  0  0  0  0  0  0  0
   -0.7751  -10.1760    3.2514 H   0  0  0  0  0  0  0  0  0  0  0  0
   -1.4005   -9.7093    1.6792 H   0  0  0  0  0  0  0  0  0  0  0  0
   -2.1459   -9.0809    3.1479 H   0  0  0  0  0  0  0  0  0  0  0  0
  1  2  1  0
  1 20  1  0
  1 21  1  0
  1 22  1  0
  2  3  1  0
  2 23  1  0
  2 24  1  0
  3  4  1  0
  4  9  2  0
  4  5  1  0
  5  6  2  0
  6  7  1  0
  6 25  1  0
  7  8  2  0
  8 12  1  0
  8  9  1  0
  9 10  1  0
 10 11  2  0
 10 26  1  0
 11 12  1  0
 12 13  1  0
 13 14  1  0
 13 27  1  0
 13 28  1  0
 14 19  1  0
 14 15  2  0
 15 16  1  0
 15 29  1  0
 16 17  1  0
 16 18  2  0
 17 30  1  0
 17 31  1  0
 17 32  1  0
 18 19  1  0
M  END
>  <i_m_ct_stereo_status>  (360) 
1

>  <s_m_source_file>  (360) 
/var/tmp/pbs.5076255.sched01/tmpxmhsyh4a/135ajud44o5.sdf

>  <i_m_source_file_index>  (360) 
16

>  <i_lp_mmshare_version>  (360) 
48012

>  <i_f3d_flags>  (360) 
0

>  <s_epik_input>  (360) 
W0NIM11bQ0gyXU9jKG5bY0hdbjEpYyhjMTIpW2NIXW5uMltDSDJdYzNbY0hdYyhbQ0gzXSlubzM=

>  <s_epik_cmdline>  (360) 
J2VwaWtfcHl0aG9uJywgJy1waHQnLCAnMi4wJywgJy1waCcsICc3LjAnLCAnLXRuJywgJzgnLCAnLW1hJywgJzIwMCcsICctaW1hZScsICc8aW5maWxlLm1hZT4nLCAnLW9tYWUnLCAnPG91dGZpbGUubWFlPic=

>  <r_lp_tautomer_probability>  (360) 
1

>  <r_epik_Ionization_Penalty>  (360) 
1.63113e-05

>  <r_epik_Ionization_Penalty_Charging>  (360) 
0

>  <r_epik_Ionization_Penalty_Neutral>  (360) 
1.63113e-05

>  <r_epik_State_Penalty>  (360) 
-0

>  <r_epik_Charging_Adjusted_Penalty>  (360) 
0

>  <i_epik_Tot_Q>  (360) 
0

>  <i_epik_Tot_abs_Q>  (360) 
0

>  <s_lp_Force_Field>  (360) 
OPLS3e

>  <r_lp_Energy>  (360) 
10.2874

>  <b_lp_Chiralities_Consistent>  (360) 
1

>  <s_lp_Variant>  (360) 
100:0-1

>  <s_i_glide_gridfile>  (360) 
pfpi4k_grid

>  <i_i_glide_lignum>  (360) 
16

>  <i_i_glide_rotatable_bonds>  (360) 
4

>  <r_i_docking_score>  (360) 
-3.3234

>  <r_i_glide_ligand_efficiency>  (360) 
-0.174916

>  <r_i_glide_ligand_efficiency_sa>  (360) 
-0.466745

>  <r_i_glide_ligand_efficiency_ln>  (360) 
-0.842553

>  <r_i_glide_gscore>  (360) 
-3.3234

>  <r_i_glide_lipo>  (360) 
-0.628632

>  <r_i_glide_hbond>  (360) 
0

>  <r_i_glide_metal>  (360) 
-0

>  <r_i_glide_rewards>  (360) 
-1.65912

>  <r_i_glide_evdw>  (360) 
-23.6721

>  <r_i_glide_ecoul>  (360) 
-2.68537

>  <r_i_glide_erotb>  (360) 
0.789099

>  <r_i_glide_esite>  (360) 
-0.238334

>  <r_i_glide_emodel>  (360) 
-32.7545

>  <r_i_glide_energy>  (360) 
-26.3575

>  <r_i_glide_einternal>  (360) 
0.217498

>  <r_i_glide_intrahb_reward>  (360) 
-0

>  <i_i_glide_confnum>  (360) 
6

>  <i_i_glide_posenum>  (360) 
13

>  <r_i_glide_eff_state_penalty>  (360) 
0

>  <ligand_id>  (360) 
100

>  <original_smiles>  (360) 
CCOc1ncnc2c1cnn2Cc1cc(C)no1

>  <smiles>  (360) 
[H]c1nc(OC([H])([H])C([H])([H])[H])c2c([H])nn(C([H])([H])c3onc(C([H])([H])[H])c3[H])c2n1

$$$$
100:0:1
     RDKit          3D

 32 34  0  0  1  0  0  0  0  0999 V2000
   -0.5835   -9.7429    2.8789 C   0  0  0  0  0  0  0  0  0  0  0  0
   -0.2659   -8.2980    2.4814 C   0  0  0  0  0  0  0  0  0  0  0  0
    1.1080   -8.2327    2.1204 O   0  0  0  0  0  0  0  0  0  0  0  0
    1.7533   -7.0154    2.1002 C   0  0  0  0  0  0  0  0  0  0  0  0
    1.1277   -5.8800    2.5050 N   0  0  0  0  0  0  0  0  0  0  0  0
    1.8289   -4.7399    2.5302 C   0  0  0  0  0  0  0  0  0  0  0  0
    3.0850   -4.5132    2.1430 N   0  0  0  0  0  0  0  0  0  0  0  0
    3.6804   -5.6583    1.7053 C   0  0  0  0  0  0  0  0  0  0  0  0
    3.0896   -6.9410    1.6656 C   0  0  0  0  0  0  0  0  0  0  0  0
    4.1035   -7.8122    1.1634 C   0  0  0  0  0  0  0  0  0  0  0  0
    5.2018   -7.1529    0.8825 N   0  0  0  0  0  0  0  0  0  0  0  0
    4.9590   -5.8517    1.2041 N   0  0  0  0  0  0  0  0  0  0  0  0
    6.0201   -4.8751    1.0210 C   0  0  0  0  0  0  0  0  0  0  0  0
    5.7784   -3.9386   -0.1207 C   0  0  0  0  0  0  0  0  0  0  0  0
    4.7507   -3.7704   -1.0047 C   0  0  0  0  0  0  0  0  0  0  0  0
    5.1826   -2.6999   -1.8334 C   0  0  0  0  0  0  0  0  0  0  0  0
    4.4576   -2.0645   -2.9827 C   0  0  0  0  0  0  0  0  0  0  0  0
    6.3814   -2.2625   -1.4842 N   0  0  0  0  0  0  0  0  0  0  0  0
    6.7660   -3.0451   -0.3887 O   0  0  0  0  0  0  0  0  0  0  0  0
   -1.6330   -9.8526    3.1513 H   0  0  0  0  0  0  0  0  0  0  0  0
    0.0124  -10.0517    3.7401 H   0  0  0  0  0  0  0  0  0  0  0  0
   -0.3719  -10.4427    2.0713 H   0  0  0  0  0  0  0  0  0  0  0  0
   -0.8708   -8.0007    1.6246 H   0  0  0  0  0  0  0  0  0  0  0  0
   -0.5190   -7.6482    3.3195 H   0  0  0  0  0  0  0  0  0  0  0  0
    1.2880   -3.8746    2.8858 H   0  0  0  0  0  0  0  0  0  0  0  0
    4.0445   -8.8737    0.9803 H   0  0  0  0  0  0  0  0  0  0  0  0
    6.1197   -4.3114    1.9484 H   0  0  0  0  0  0  0  0  0  0  0  0
    6.9653   -5.3989    0.8703 H   0  0  0  0  0  0  0  0  0  0  0  0
    3.8278   -4.3317   -1.0512 H   0  0  0  0  0  0  0  0  0  0  0  0
    3.4862   -2.5368   -3.1366 H   0  0  0  0  0  0  0  0  0  0  0  0
    5.0152   -2.1638   -3.9117 H   0  0  0  0  0  0  0  0  0  0  0  0
    4.2809   -1.0019   -2.8071 H   0  0  0  0  0  0  0  0  0  0  0  0
  1  2  1  0
  1 20  1  0
  1 21  1  0
  1 22  1  0
  2  3  1  0
  2 23  1  0
  2 24  1  0
  3  4  1  0
  4  9  2  0
  4  5  1  0
  5  6  2  0
  6  7  1  0
  6 25  1  0
  7  8  2  0
  8 12  1  0
  8  9  1  0
  9 10  1  0
 10 11  2  0
 10 26  1  0
 11 12  1  0
 12 13  1  0
 13 14  1  0
 13 27  1  0
 13 28  1  0
 14 19  1  0
 14 15  2  0
 15 16  1  0
 15 29  1  0
 16 17  1  0
 16 18  2  0
 17 30  1  0
 17 31  1  0
 17 32  1  0
 18 19  1  0
M  END
>  <i_m_ct_stereo_status>  (361) 
1

>  <s_m_source_file>  (361) 
/var/tmp/pbs.5076255.sched01/tmpxmhsyh4a/135ajud44o5.sdf

>  <i_m_source_file_index>  (361) 
16

>  <i_lp_mmshare_version>  (361) 
48012

>  <i_f3d_flags>  (361) 
0

>  <s_epik_input>  (361) 
W0NIM11bQ0gyXU9jKG5bY0hdbjEpYyhjMTIpW2NIXW5uMltDSDJdYzNbY0hdYyhbQ0gzXSlubzM=

>  <s_epik_cmdline>  (361) 
J2VwaWtfcHl0aG9uJywgJy1waHQnLCAnMi4wJywgJy1waCcsICc3LjAnLCAnLXRuJywgJzgnLCAnLW1hJywgJzIwMCcsICctaW1hZScsICc8aW5maWxlLm1hZT4nLCAnLW9tYWUnLCAnPG91dGZpbGUubWFlPic=

>  <r_lp_tautomer_probability>  (361) 
1

>  <r_epik_Ionization_Penalty>  (361) 
1.63113e-05

>  <r_epik_Ionization_Penalty_Charging>  (361) 
0

>  <r_epik_Ionization_Penalty_Neutral>  (361) 
1.63113e-05

>  <r_epik_State_Penalty>  (361) 
-0

>  <r_epik_Charging_Adjusted_Penalty>  (361) 
0

>  <i_epik_Tot_Q>  (361) 
0

>  <i_epik_Tot_abs_Q>  (361) 
0

>  <s_lp_Force_Field>  (361) 
OPLS3e

>  <r_lp_Energy>  (361) 
10.2874

>  <b_lp_Chiralities_Consistent>  (361) 
1

>  <s_lp_Variant>  (361) 
100:0-1

>  <s_i_glide_gridfile>  (361) 
pfpi4k_grid

>  <i_i_glide_lignum>  (361) 
16

>  <i_i_glide_rotatable_bonds>  (361) 
4

>  <r_i_docking_score>  (361) 
-3.0504

>  <r_i_glide_ligand_efficiency>  (361) 
-0.160548

>  <r_i_glide_ligand_efficiency_sa>  (361) 
-0.428405

>  <r_i_glide_ligand_efficiency_ln>  (361) 
-0.773343

>  <r_i_glide_gscore>  (361) 
-3.0504

>  <r_i_glide_lipo>  (361) 
-0.335764

>  <r_i_glide_hbond>  (361) 
0

>  <r_i_glide_metal>  (361) 
-0

>  <r_i_glide_rewards>  (361) 
-1.76761

>  <r_i_glide_evdw>  (361) 
-22.6643

>  <r_i_glide_ecoul>  (361) 
-3.52877

>  <r_i_glide_erotb>  (361) 
0.789099

>  <r_i_glide_esite>  (361) 
-0.0736051

>  <r_i_glide_emodel>  (361) 
-31.4483

>  <r_i_glide_energy>  (361) 
-26.193

>  <r_i_glide_einternal>  (361) 
1.34629

>  <r_i_glide_intrahb_reward>  (361) 
-0

>  <i_i_glide_confnum>  (361) 
5

>  <i_i_glide_posenum>  (361) 
4

>  <r_i_glide_eff_state_penalty>  (361) 
0

>  <ligand_id>  (361) 
100

>  <original_smiles>  (361) 
CCOc1ncnc2c1cnn2Cc1cc(C)no1

>  <smiles>  (361) 
[H]c1nc(OC([H])([H])C([H])([H])[H])c2c([H])nn(C([H])([H])c3onc(C([H])([H])[H])c3[H])c2n1

$$$$
100:0:2
     RDKit          3D

 32 34  0  0  1  0  0  0  0  0999 V2000
    4.3078   -0.8366   -2.4148 C   0  0  0  0  0  0  0  0  0  0  0  0
    4.0245   -1.0621   -0.9245 C   0  0  0  0  0  0  0  0  0  0  0  0
    4.1756   -2.4530   -0.6640 O   0  0  0  0  0  0  0  0  0  0  0  0
    3.6599   -2.9819    0.4991 C   0  0  0  0  0  0  0  0  0  0  0  0
    3.0712   -2.1929    1.4313 N   0  0  0  0  0  0  0  0  0  0  0  0
    2.5642   -2.7578    2.5303 C   0  0  0  0  0  0  0  0  0  0  0  0
    2.5505   -4.0469    2.8833 N   0  0  0  0  0  0  0  0  0  0  0  0
    3.1631   -4.8203    1.9417 C   0  0  0  0  0  0  0  0  0  0  0  0
    3.7386   -4.3667    0.7337 C   0  0  0  0  0  0  0  0  0  0  0  0
    4.2418   -5.5362    0.0876 C   0  0  0  0  0  0  0  0  0  0  0  0
    4.0210   -6.6123    0.8045 N   0  0  0  0  0  0  0  0  0  0  0  0
    3.3531   -6.1944    1.9161 N   0  0  0  0  0  0  0  0  0  0  0  0
    2.9311   -7.1861    2.8889 C   0  0  0  0  0  0  0  0  0  0  0  0
    1.4831   -7.5433    2.7657 C   0  0  0  0  0  0  0  0  0  0  0  0
    0.8013   -8.7211    2.8875 C   0  0  0  0  0  0  0  0  0  0  0  0
   -0.5518   -8.3513    2.6526 C   0  0  0  0  0  0  0  0  0  0  0  0
   -1.7757   -9.2071    2.6480 C   0  0  0  0  0  0  0  0  0  0  0  0
   -0.6738   -7.0554    2.4103 N   0  0  0  0  0  0  0  0  0  0  0  0
    0.6177   -6.5327    2.4868 O   0  0  0  0  0  0  0  0  0  0  0  0
    4.2134    0.2144   -2.6891 H   0  0  0  0  0  0  0  0  0  0  0  0
    3.6061   -1.4023   -3.0304 H   0  0  0  0  0  0  0  0  0  0  0  0
    5.3118   -1.1660   -2.6742 H   0  0  0  0  0  0  0  0  0  0  0  0
    4.7143   -0.4860   -0.3087 H   0  0  0  0  0  0  0  0  0  0  0  0
    3.0158   -0.7133   -0.6975 H   0  0  0  0  0  0  0  0  0  0  0  0
    2.0852   -2.0797    3.2200 H   0  0  0  0  0  0  0  0  0  0  0  0
    4.7355   -5.6101   -0.8673 H   0  0  0  0  0  0  0  0  0  0  0  0
    3.5485   -8.0783    2.7727 H   0  0  0  0  0  0  0  0  0  0  0  0
    3.1332   -6.7918    3.8842 H   0  0  0  0  0  0  0  0  0  0  0  0
    1.2093   -9.6959    3.1112 H   0  0  0  0  0  0  0  0  0  0  0  0
   -1.5110  -10.2419    2.8608 H   0  0  0  0  0  0  0  0  0  0  0  0
   -2.2745   -9.1767    1.6794 H   0  0  0  0  0  0  0  0  0  0  0  0
   -2.4898   -8.8802    3.4058 H   0  0  0  0  0  0  0  0  0  0  0  0
  1  2  1  0
  1 20  1  0
  1 21  1  0
  1 22  1  0
  2  3  1  0
  2 23  1  0
  2 24  1  0
  3  4  1  0
  4  9  2  0
  4  5  1  0
  5  6  2  0
  6  7  1  0
  6 25  1  0
  7  8  2  0
  8 12  1  0
  8  9  1  0
  9 10  1  0
 10 11  2  0
 10 26  1  0
 11 12  1  0
 12 13  1  0
 13 14  1  0
 13 27  1  0
 13 28  1  0
 14 19  1  0
 14 15  2  0
 15 16  1  0
 15 29  1  0
 16 17  1  0
 16 18  2  0
 17 30  1  0
 17 31  1  0
 17 32  1  0
 18 19  1  0
M  END
>  <i_m_ct_stereo_status>  (362) 
1

>  <s_m_source_file>  (362) 
/var/tmp/pbs.5076255.sched01/tmpxmhsyh4a/135ajud44o5.sdf

>  <i_m_source_file_index>  (362) 
16

>  <i_lp_mmshare_version>  (362) 
48012

>  <i_f3d_flags>  (362) 
0

>  <s_epik_input>  (362) 
W0NIM11bQ0gyXU9jKG5bY0hdbjEpYyhjMTIpW2NIXW5uMltDSDJdYzNbY0hdYyhbQ0gzXSlubzM=

>  <s_epik_cmdline>  (362) 
J2VwaWtfcHl0aG9uJywgJy1waHQnLCAnMi4wJywgJy1waCcsICc3LjAnLCAnLXRuJywgJzgnLCAnLW1hJywgJzIwMCcsICctaW1hZScsICc8aW5maWxlLm1hZT4nLCAnLW9tYWUnLCAnPG91dGZpbGUubWFlPic=

>  <r_lp_tautomer_probability>  (362) 
1

>  <r_epik_Ionization_Penalty>  (362) 
1.63113e-05

>  <r_epik_Ionization_Penalty_Charging>  (362) 
0

>  <r_epik_Ionization_Penalty_Neutral>  (362) 
1.63113e-05

>  <r_epik_State_Penalty>  (362) 
-0

>  <r_epik_Charging_Adjusted_Penalty>  (362) 
0

>  <i_epik_Tot_Q>  (362) 
0

>  <i_epik_Tot_abs_Q>  (362) 
0

>  <s_lp_Force_Field>  (362) 
OPLS3e

>  <r_lp_Energy>  (362) 
10.2874

>  <b_lp_Chiralities_Consistent>  (362) 
1

>  <s_lp_Variant>  (362) 
100:0-1

>  <s_i_glide_gridfile>  (362) 
pfpi4k_grid

>  <i_i_glide_lignum>  (362) 
16

>  <i_i_glide_rotatable_bonds>  (362) 
4

>  <r_i_docking_score>  (362) 
-2.81655

>  <r_i_glide_ligand_efficiency>  (362) 
-0.148239

>  <r_i_glide_ligand_efficiency_sa>  (362) 
-0.395562

>  <r_i_glide_ligand_efficiency_ln>  (362) 
-0.714056

>  <r_i_glide_gscore>  (362) 
-2.81655

>  <r_i_glide_lipo>  (362) 
-0.132881

>  <r_i_glide_hbond>  (362) 
0

>  <r_i_glide_metal>  (362) 
-0

>  <r_i_glide_rewards>  (362) 
-1.67381

>  <r_i_glide_evdw>  (362) 
-22.5826

>  <r_i_glide_ecoul>  (362) 
-3.29382

>  <r_i_glide_erotb>  (362) 
0.789099

>  <r_i_glide_esite>  (362) 
-0.175752

>  <r_i_glide_emodel>  (362) 
-30.8619

>  <r_i_glide_energy>  (362) 
-25.8764

>  <r_i_glide_einternal>  (362) 
0.974431

>  <r_i_glide_intrahb_reward>  (362) 
-0

>  <i_i_glide_confnum>  (362) 
6

>  <i_i_glide_posenum>  (362) 
35

>  <r_i_glide_eff_state_penalty>  (362) 
0

>  <ligand_id>  (362) 
100

>  <original_smiles>  (362) 
CCOc1ncnc2c1cnn2Cc1cc(C)no1

>  <smiles>  (362) 
[H]c1nc(OC([H])([H])C([H])([H])[H])c2c([H])nn(C([H])([H])c3onc(C([H])([H])[H])c3[H])c2n1

$$$$
101:0:0
     RDKit          3D

 56 60  0  0  1  0  0  0  0  0999 V2000
    4.5855   -2.5937   -2.8158 C   0  0  0  0  0  0  0  0  0  0  0  0
    4.7973   -2.1764   -1.3518 C   0  0  0  0  0  0  0  0  0  0  0  0
    3.4884   -1.7828   -0.6376 C   0  0  0  0  0  0  0  0  0  0  0  0
    3.6813   -1.3678    0.8337 C   0  0  0  0  0  0  0  0  0  0  0  0
    4.7575   -1.5431    1.4041 O   0  0  0  0  0  0  0  0  0  0  0  0
    2.6189   -0.8232    1.4327 N   0  0  0  0  0  0  0  0  0  0  0  0
    2.5863   -0.4220    2.7343 N   0  0  0  0  0  0  0  0  0  0  0  0
    1.5608    0.1902    3.2063 C   0  0  0  0  0  0  0  0  0  0  0  0
    0.3083    0.4971    2.4176 C   0  0  0  0  0  0  0  0  0  0  0  0
   -0.0971    1.9847    2.4663 C   0  0  0  0  0  0  0  0  0  0  0  0
    0.6668    2.9184    3.4503 C   0  0  2  0  0  0  0  0  0  0  0  0
   -0.1248    4.0929    3.6652 O   0  0  0  0  0  0  0  0  0  0  0  0
    0.5130    5.2334    4.2423 C   0  0  0  0  0  0  0  0  0  0  0  0
    2.0321    3.3164    2.9242 C   0  0  0  0  0  0  0  0  0  0  0  0
    3.0019    3.1540    3.8095 C   0  0  0  0  0  0  0  0  0  0  0  0
    2.5237    2.5395    5.1003 C   0  0  2  0  0  0  0  0  0  0  0  0
    2.8721    1.0631    5.2710 C   0  0  0  0  0  0  0  0  0  0  0  0
    1.5088    0.6776    4.6597 C   0  0  2  0  0  0  0  0  0  0  0  0
    0.5248   -0.1723    5.4952 C   0  0  0  0  0  0  0  0  0  0  0  0
   -0.6412    0.7938    5.7393 C   0  0  1  0  0  0  0  0  0  0  0  0
   -1.6092    0.7946    6.9233 C   0  0  0  0  0  0  0  0  0  0  0  0
   -1.9943    2.2074    6.9837 N   0  0  0  0  0  0  0  0  0  0  0  0
   -3.0970    2.7091    7.7732 C   0  0  0  0  0  0  0  0  0  0  0  0
   -1.0837    3.0139    6.3984 C   0  0  0  0  0  0  0  0  0  0  0  0
   -1.1157    4.2375    6.4052 O   0  0  0  0  0  0  0  0  0  0  0  0
    0.0552    2.0974    5.9158 C   0  0  2  0  0  0  0  0  0  0  0  0
    1.0714    2.1850    4.7689 C   0  0  2  0  0  0  0  0  0  0  0  0
    5.5313   -2.8746   -3.2868 H   0  0  0  0  0  0  0  0  0  0  0  0
    4.1482   -1.7827   -3.4017 H   0  0  0  0  0  0  0  0  0  0  0  0
    3.9181   -3.4548   -2.8878 H   0  0  0  0  0  0  0  0  0  0  0  0
    5.2768   -3.0024   -0.8265 H   0  0  0  0  0  0  0  0  0  0  0  0
    5.4959   -1.3398   -1.3205 H   0  0  0  0  0  0  0  0  0  0  0  0
    3.0167   -0.9751   -1.1942 H   0  0  0  0  0  0  0  0  0  0  0  0
    2.7903   -2.6180   -0.6657 H   0  0  0  0  0  0  0  0  0  0  0  0
    1.7769   -0.6702    0.8758 H   0  0  0  0  0  0  0  0  0  0  0  0
    0.3908    0.1819    1.3809 H   0  0  0  0  0  0  0  0  0  0  0  0
   -0.5075   -0.0906    2.8204 H   0  0  0  0  0  0  0  0  0  0  0  0
    0.0052    2.3397    1.4478 H   0  0  0  0  0  0  0  0  0  0  0  0
   -1.1656    2.0355    2.6727 H   0  0  0  0  0  0  0  0  0  0  0  0
   -0.2538    5.9810    4.4304 H   0  0  0  0  0  0  0  0  0  0  0  0
    1.2749    5.6989    3.6054 H   0  0  0  0  0  0  0  0  0  0  0  0
    0.9856    4.9823    5.1864 H   0  0  0  0  0  0  0  0  0  0  0  0
    2.1705    3.7644    1.9546 H   0  0  0  0  0  0  0  0  0  0  0  0
    4.0346    3.4657    3.6396 H   0  0  0  0  0  0  0  0  0  0  0  0
    2.6326    3.1596    5.9826 H   0  0  0  0  0  0  0  0  0  0  0  0
    3.7865    0.7519    4.7409 H   0  0  0  0  0  0  0  0  0  0  0  0
    2.9455    0.8257    6.3385 H   0  0  0  0  0  0  0  0  0  0  0  0
    0.2079   -1.0831    4.9878 H   0  0  0  0  0  0  0  0  0  0  0  0
    0.9711   -0.4716    6.4466 H   0  0  0  0  0  0  0  0  0  0  0  0
   -1.2353    0.8255    4.8169 H   0  0  0  0  0  0  0  0  0  0  0  0
   -2.4832    0.1727    6.7168 H   0  0  0  0  0  0  0  0  0  0  0  0
   -1.0988    0.5102    7.8561 H   0  0  0  0  0  0  0  0  0  0  0  0
   -3.2140    3.7913    7.6656 H   0  0  0  0  0  0  0  0  0  0  0  0
   -2.9117    2.5224    8.8364 H   0  0  0  0  0  0  0  0  0  0  0  0
   -4.0379    2.2619    7.4426 H   0  0  0  0  0  0  0  0  0  0  0  0
    0.6564    2.0393    6.8134 H   0  0  0  0  0  0  0  0  0  0  0  0
  1  2  1  0
  1 28  1  0
  1 29  1  0
  1 30  1  0
  2  3  1  0
  2 31  1  0
  2 32  1  0
  3  4  1  0
  3 33  1  0
  3 34  1  0
  4  5  2  0
  4  6  1  0
  6  7  1  0
  6 35  1  0
  7  8  2  3
  8 18  1  0
  8  9  1  0
  9 10  1  0
  9 36  1  0
  9 37  1  0
 10 11  1  0
 10 38  1  0
 10 39  1  0
 27 11  1  6
 11 12  1  1
 11 14  1  0
 12 13  1  0
 13 40  1  0
 13 41  1  0
 13 42  1  0
 14 15  2  0
 14 43  1  0
 15 16  1  0
 15 44  1  0
 16 27  1  0
 16 17  1  0
 16 45  1  1
 18 17  1  1
 17 46  1  0
 17 47  1  0
 18 27  1  0
 18 19  1  0
 19 20  1  0
 19 48  1  0
 19 49  1  0
 20 26  1  0
 20 21  1  0
 20 50  1  6
 21 22  1  0
 21 51  1  0
 21 52  1  0
 22 23  1  0
 22 24  1  0
 23 53  1  0
 23 54  1  0
 23 55  1  0
 24 25  2  0
 24 26  1  0
 26 27  1  0
 26 56  1  1
M  END
>  <i_m_ct_stereo_status>  (363) 
1

>  <s_m_source_file>  (363) 
/var/tmp/pbs.5076255.sched01/tmpxmhsyh4a/135ajud44o5.sdf

>  <i_m_source_file_index>  (363) 
17

>  <i_lp_mmshare_version>  (363) 
48012

>  <i_f3d_flags>  (363) 
0

>  <s_epik_input>  (363) 
W0NIM11bQ0gyXVtDSDJdQyg9TylbTkhdL049QzEvW0NIMl1bQ0gyXVtDQF0oT1tDSDNdKShbQ0hdPVtDSF1bQ0BASF0yW0NIMl0zKVtDQF0yKFtDQEBdMTM0KVtDQEBIXTVbQ0BASF0oW0NIMl00KVtDSDJdTihbQ0gzXSlDNT1P

>  <s_epik_cmdline>  (363) 
J2VwaWtfcHl0aG9uJywgJy1waHQnLCAnMi4wJywgJy1waCcsICc3LjAnLCAnLXRuJywgJzgnLCAnLW1hJywgJzIwMCcsICctaW1hZScsICc8aW5maWxlLm1hZT4nLCAnLW9tYWUnLCAnPG91dGZpbGUubWFlPic=

>  <r_lp_tautomer_probability>  (363) 
1

>  <r_epik_Ionization_Penalty>  (363) 
1.16979e-05

>  <r_epik_Ionization_Penalty_Charging>  (363) 
0

>  <r_epik_Ionization_Penalty_Neutral>  (363) 
1.16979e-05

>  <r_epik_State_Penalty>  (363) 
-0

>  <r_epik_Charging_Adjusted_Penalty>  (363) 
0

>  <i_epik_Tot_Q>  (363) 
0

>  <i_epik_Tot_abs_Q>  (363) 
0

>  <s_epik_Chemistry_Notes>  (363) 
This compound has an imine and may undergo hydrolysis.

>  <s_lp_Force_Field>  (363) 
OPLS3e

>  <r_lp_Energy>  (363) 
66.0279

>  <b_lp_Chiralities_Consistent>  (363) 
1

>  <s_lp_Variant>  (363) 
101:0-1

>  <s_i_glide_gridfile>  (363) 
pfpi4k_grid

>  <i_i_glide_lignum>  (363) 
17

>  <i_i_glide_rotatable_bonds>  (363) 
5

>  <r_i_docking_score>  (363) 
-2.64011

>  <r_i_glide_ligand_efficiency>  (363) 
-0.097782

>  <r_i_glide_ligand_efficiency_sa>  (363) 
-0.293346

>  <r_i_glide_ligand_efficiency_ln>  (363) 
-0.614575

>  <r_i_glide_gscore>  (363) 
-2.64011

>  <r_i_glide_lipo>  (363) 
-0.254601

>  <r_i_glide_hbond>  (363) 
-0.16

>  <r_i_glide_metal>  (363) 
-0

>  <r_i_glide_rewards>  (363) 
-0.895245

>  <r_i_glide_evdw>  (363) 
-22.9482

>  <r_i_glide_ecoul>  (363) 
-3.19474

>  <r_i_glide_erotb>  (363) 
0.419665

>  <r_i_glide_esite>  (363) 
-0.123313

>  <r_i_glide_emodel>  (363) 
-28.5288

>  <r_i_glide_energy>  (363) 
-26.1429

>  <r_i_glide_einternal>  (363) 
2.71082

>  <r_i_glide_intrahb_reward>  (363) 
-0

>  <i_i_glide_confnum>  (363) 
1

>  <i_i_glide_posenum>  (363) 
3

>  <r_i_glide_eff_state_penalty>  (363) 
0

>  <ligand_id>  (363) 
101

>  <original_smiles>  (363) 
CCCC(=O)NN=C1CCC2(OC)C=CC3CC14CC1CN(C)C(=O)C1C324

>  <smiles>  (363) 
[H]C1=C([H])C2(OC([H])([H])[H])C([H])([H])C([H])([H])C(=NN([H])C(=O)C([H])([H])C([H])([H])C([H])([H])[H])C34C([H])([H])C1([H])C23C1([H])C(=O)N(C([H])([H])[H])C([H])([H])C1([H])C4([H])[H]

$$$$
101:0:1
     RDKit          3D

 56 60  0  0  1  0  0  0  0  0999 V2000
    7.1384   -2.4208    0.1875 C   0  0  0  0  0  0  0  0  0  0  0  0
    5.7724   -1.9726   -0.3745 C   0  0  0  0  0  0  0  0  0  0  0  0
    5.2054   -0.6684    0.2342 C   0  0  0  0  0  0  0  0  0  0  0  0
    4.8460   -0.7267    1.7295 C   0  0  0  0  0  0  0  0  0  0  0  0
    5.5680   -1.3152    2.5288 O   0  0  0  0  0  0  0  0  0  0  0  0
    3.7374   -0.0774    2.1095 N   0  0  0  0  0  0  0  0  0  0  0  0
    3.3612    0.0262    3.4033 N   0  0  0  0  0  0  0  0  0  0  0  0
    2.3259    0.7309    3.7083 C   0  0  0  0  0  0  0  0  0  0  0  0
    1.4636    1.4362    2.6912 C   0  0  0  0  0  0  0  0  0  0  0  0
    1.2874    2.9391    2.9902 C   0  0  0  0  0  0  0  0  0  0  0  0
    1.7760    3.4621    4.3713 C   0  0  2  0  0  0  0  0  0  0  0  0
    1.0810    4.6619    4.7058 O   0  0  0  0  0  0  0  0  0  0  0  0
    1.2295    5.7845    3.8409 C   0  0  0  0  0  0  0  0  0  0  0  0
    3.2745    3.7321    4.4207 C   0  0  0  0  0  0  0  0  0  0  0  0
    3.8889    3.1867    5.4712 C   0  0  0  0  0  0  0  0  0  0  0  0
    2.9421    2.4035    6.3406 C   0  0  2  0  0  0  0  0  0  0  0  0
    3.0373    0.8834    6.2155 C   0  0  0  0  0  0  0  0  0  0  0  0
    1.8980    0.8926    5.1624 C   0  0  2  0  0  0  0  0  0  0  0  0
    0.5980    0.0955    5.4495 C   0  0  0  0  0  0  0  0  0  0  0  0
   -0.4461    1.2055    5.5870 C   0  0  1  0  0  0  0  0  0  0  0  0
   -1.7134    1.1745    6.4403 C   0  0  0  0  0  0  0  0  0  0  0  0
   -1.8748    2.6042    6.7536 N   0  0  0  0  0  0  0  0  0  0  0  0
   -3.1126    3.1257    7.2997 C   0  0  0  0  0  0  0  0  0  0  0  0
   -0.7264    3.2998    6.6369 C   0  0  0  0  0  0  0  0  0  0  0  0
   -0.5508    4.4961    6.8798 O   0  0  0  0  0  0  0  0  0  0  0  0
    0.3373    2.2838    6.2775 C   0  0  2  0  0  0  0  0  0  0  0  0
    1.6488    2.4006    5.5165 C   0  0  2  0  0  0  0  0  0  0  0  0
    7.5003   -3.3159   -0.3237 H   0  0  0  0  0  0  0  0  0  0  0  0
    7.0906   -2.6748    1.2462 H   0  0  0  0  0  0  0  0  0  0  0  0
    7.8894   -1.6389    0.0721 H   0  0  0  0  0  0  0  0  0  0  0  0
    5.8764   -1.8339   -1.4467 H   0  0  0  0  0  0  0  0  0  0  0  0
    5.0416   -2.7681   -0.2644 H   0  0  0  0  0  0  0  0  0  0  0  0
    5.9337    0.1264    0.1014 H   0  0  0  0  0  0  0  0  0  0  0  0
    4.3279   -0.3680   -0.3415 H   0  0  0  0  0  0  0  0  0  0  0  0
    3.1660    0.4219    1.4424 H   0  0  0  0  0  0  0  0  0  0  0  0
    1.8148    1.3220    1.6729 H   0  0  0  0  0  0  0  0  0  0  0  0
    0.4877    0.9504    2.6898 H   0  0  0  0  0  0  0  0  0  0  0  0
    1.7607    3.5071    2.1896 H   0  0  0  0  0  0  0  0  0  0  0  0
    0.2182    3.1380    2.9072 H   0  0  0  0  0  0  0  0  0  0  0  0
    0.6181    6.5960    4.2302 H   0  0  0  0  0  0  0  0  0  0  0  0
    0.8813    5.5781    2.8281 H   0  0  0  0  0  0  0  0  0  0  0  0
    2.2596    6.1430    3.7955 H   0  0  0  0  0  0  0  0  0  0  0  0
    3.7827    4.3063    3.6625 H   0  0  0  0  0  0  0  0  0  0  0  0
    4.9483    3.2771    5.6843 H   0  0  0  0  0  0  0  0  0  0  0  0
    2.8265    2.8030    7.3518 H   0  0  0  0  0  0  0  0  0  0  0  0
    4.0104    0.5106    5.9119 H   0  0  0  0  0  0  0  0  0  0  0  0
    2.7298    0.4099    7.1563 H   0  0  0  0  0  0  0  0  0  0  0  0
    0.3411   -0.6069    4.6612 H   0  0  0  0  0  0  0  0  0  0  0  0
    0.6813   -0.4736    6.3803 H   0  0  0  0  0  0  0  0  0  0  0  0
   -0.7186    1.5454    4.5867 H   0  0  0  0  0  0  0  0  0  0  0  0
   -2.5648    0.7636    5.8945 H   0  0  0  0  0  0  0  0  0  0  0  0
   -1.5630    0.6101    7.3665 H   0  0  0  0  0  0  0  0  0  0  0  0
   -3.0364    4.2025    7.4572 H   0  0  0  0  0  0  0  0  0  0  0  0
   -3.3188    2.6678    8.2657 H   0  0  0  0  0  0  0  0  0  0  0  0
   -3.9421    2.9398    6.6226 H   0  0  0  0  0  0  0  0  0  0  0  0
    0.6074    1.9104    7.2681 H   0  0  0  0  0  0  0  0  0  0  0  0
  1  2  1  0
  1 28  1  0
  1 29  1  0
  1 30  1  0
  2  3  1  0
  2 31  1  0
  2 32  1  0
  3  4  1  0
  3 33  1  0
  3 34  1  0
  4  5  2  0
  4  6  1  0
  6  7  1  0
  6 35  1  0
  7  8  2  3
  8 18  1  0
  8  9  1  0
  9 10  1  0
  9 36  1  0
  9 37  1  0
 10 11  1  0
 10 38  1  0
 10 39  1  0
 27 11  1  6
 11 12  1  1
 11 14  1  0
 12 13  1  0
 13 40  1  0
 13 41  1  0
 13 42  1  0
 14 15  2  0
 14 43  1  0
 15 16  1  0
 15 44  1  0
 16 27  1  0
 16 17  1  0
 16 45  1  1
 18 17  1  1
 17 46  1  0
 17 47  1  0
 18 27  1  0
 18 19  1  0
 19 20  1  0
 19 48  1  0
 19 49  1  0
 20 26  1  0
 20 21  1  0
 20 50  1  6
 21 22  1  0
 21 51  1  0
 21 52  1  0
 22 23  1  0
 22 24  1  0
 23 53  1  0
 23 54  1  0
 23 55  1  0
 24 25  2  0
 24 26  1  0
 26 27  1  0
 26 56  1  1
M  END
>  <i_m_ct_stereo_status>  (364) 
1

>  <s_m_source_file>  (364) 
/var/tmp/pbs.5076255.sched01/tmpxmhsyh4a/135ajud44o5.sdf

>  <i_m_source_file_index>  (364) 
17

>  <i_lp_mmshare_version>  (364) 
48012

>  <i_f3d_flags>  (364) 
0

>  <s_epik_input>  (364) 
W0NIM11bQ0gyXVtDSDJdQyg9TylbTkhdL049QzEvW0NIMl1bQ0gyXVtDQF0oT1tDSDNdKShbQ0hdPVtDSF1bQ0BASF0yW0NIMl0zKVtDQF0yKFtDQEBdMTM0KVtDQEBIXTVbQ0BASF0oW0NIMl00KVtDSDJdTihbQ0gzXSlDNT1P

>  <s_epik_cmdline>  (364) 
J2VwaWtfcHl0aG9uJywgJy1waHQnLCAnMi4wJywgJy1waCcsICc3LjAnLCAnLXRuJywgJzgnLCAnLW1hJywgJzIwMCcsICctaW1hZScsICc8aW5maWxlLm1hZT4nLCAnLW9tYWUnLCAnPG91dGZpbGUubWFlPic=

>  <r_lp_tautomer_probability>  (364) 
1

>  <r_epik_Ionization_Penalty>  (364) 
1.16979e-05

>  <r_epik_Ionization_Penalty_Charging>  (364) 
0

>  <r_epik_Ionization_Penalty_Neutral>  (364) 
1.16979e-05

>  <r_epik_State_Penalty>  (364) 
-0

>  <r_epik_Charging_Adjusted_Penalty>  (364) 
0

>  <i_epik_Tot_Q>  (364) 
0

>  <i_epik_Tot_abs_Q>  (364) 
0

>  <s_epik_Chemistry_Notes>  (364) 
This compound has an imine and may undergo hydrolysis.

>  <s_lp_Force_Field>  (364) 
OPLS3e

>  <r_lp_Energy>  (364) 
66.0279

>  <b_lp_Chiralities_Consistent>  (364) 
1

>  <s_lp_Variant>  (364) 
101:0-1

>  <s_i_glide_gridfile>  (364) 
pfpi4k_grid

>  <i_i_glide_lignum>  (364) 
17

>  <i_i_glide_rotatable_bonds>  (364) 
5

>  <r_i_docking_score>  (364) 
-2.36583

>  <r_i_glide_ligand_efficiency>  (364) 
-0.0876235

>  <r_i_glide_ligand_efficiency_sa>  (364) 
-0.26287

>  <r_i_glide_ligand_efficiency_ln>  (364) 
-0.550727

>  <r_i_glide_gscore>  (364) 
-2.36583

>  <r_i_glide_lipo>  (364) 
-0.327795

>  <r_i_glide_hbond>  (364) 
0

>  <r_i_glide_metal>  (364) 
-0

>  <r_i_glide_rewards>  (364) 
-1.10654

>  <r_i_glide_evdw>  (364) 
-23.2641

>  <r_i_glide_ecoul>  (364) 
-1.23283

>  <r_i_glide_erotb>  (364) 
0.419665

>  <r_i_glide_esite>  (364) 
-0.00302743

>  <r_i_glide_emodel>  (364) 
-28.0868

>  <r_i_glide_energy>  (364) 
-24.497

>  <r_i_glide_einternal>  (364) 
0.171918

>  <r_i_glide_intrahb_reward>  (364) 
-0

>  <i_i_glide_confnum>  (364) 
2

>  <i_i_glide_posenum>  (364) 
39

>  <r_i_glide_eff_state_penalty>  (364) 
0

>  <ligand_id>  (364) 
101

>  <original_smiles>  (364) 
CCCC(=O)NN=C1CCC2(OC)C=CC3CC14CC1CN(C)C(=O)C1C324

>  <smiles>  (364) 
[H]C1=C([H])C2(OC([H])([H])[H])C([H])([H])C([H])([H])C(=NN([H])C(=O)C([H])([H])C([H])([H])C([H])([H])[H])C34C([H])([H])C1([H])C23C1([H])C(=O)N(C([H])([H])[H])C([H])([H])C1([H])C4([H])[H]

$$$$
101:0:2
     RDKit          3D

 56 60  0  0  1  0  0  0  0  0999 V2000
    5.8680   -1.3532   -0.6031 C   0  0  0  0  0  0  0  0  0  0  0  0
    4.6431   -2.2753   -0.5042 C   0  0  0  0  0  0  0  0  0  0  0  0
    3.3991   -1.5868    0.0856 C   0  0  0  0  0  0  0  0  0  0  0  0
    3.4966   -1.2171    1.5729 C   0  0  0  0  0  0  0  0  0  0  0  0
    4.4982   -1.4845    2.2395 O   0  0  0  0  0  0  0  0  0  0  0  0
    2.4252   -0.6086    2.0982 N   0  0  0  0  0  0  0  0  0  0  0  0
    2.3301   -0.2876    3.4099 N   0  0  0  0  0  0  0  0  0  0  0  0
    1.3308    0.4110    3.8407 C   0  0  0  0  0  0  0  0  0  0  0  0
    0.2285    0.9297    2.9519 C   0  0  0  0  0  0  0  0  0  0  0  0
    0.0443    2.4546    3.0711 C   0  0  0  0  0  0  0  0  0  0  0  0
    0.7942    3.2017    4.2092 C   0  0  2  0  0  0  0  0  0  0  0  0
    0.1326    4.4303    4.5144 O   0  0  0  0  0  0  0  0  0  0  0  0
   -0.0132    5.3885    3.4693 C   0  0  0  0  0  0  0  0  0  0  0  0
    2.2550    3.4984    3.8860 C   0  0  0  0  0  0  0  0  0  0  0  0
    3.1083    3.1218    4.8436 C   0  0  0  0  0  0  0  0  0  0  0  0
    2.4054    2.4671    6.0079 C   0  0  2  0  0  0  0  0  0  0  0  0
    2.5364    0.9469    6.0883 C   0  0  0  0  0  0  0  0  0  0  0  0
    1.2059    0.7832    5.3146 C   0  0  2  0  0  0  0  0  0  0  0  0
    0.0308    0.0274    5.9867 C   0  0  0  0  0  0  0  0  0  0  0  0
   -1.0103    1.1358    6.1846 C   0  0  1  0  0  0  0  0  0  0  0  0
   -2.0725    1.2305    7.2829 C   0  0  0  0  0  0  0  0  0  0  0  0
   -2.2304    2.6844    7.4117 N   0  0  0  0  0  0  0  0  0  0  0  0
   -3.3544    3.2578    8.1352 C   0  0  0  0  0  0  0  0  0  0  0  0
   -1.1581    3.3615    6.9600 C   0  0  0  0  0  0  0  0  0  0  0  0
   -0.9826    4.5773    6.9882 O   0  0  0  0  0  0  0  0  0  0  0  0
   -0.1479    2.3110    6.5300 C   0  0  2  0  0  0  0  0  0  0  0  0
    0.9684    2.3252    5.4952 C   0  0  2  0  0  0  0  0  0  0  0  0
    6.7202   -1.8817   -1.0320 H   0  0  0  0  0  0  0  0  0  0  0  0
    6.1809   -0.9783    0.3724 H   0  0  0  0  0  0  0  0  0  0  0  0
    5.6399   -0.4877   -1.2261 H   0  0  0  0  0  0  0  0  0  0  0  0
    4.4047   -2.6475   -1.5012 H   0  0  0  0  0  0  0  0  0  0  0  0
    4.8852   -3.1629    0.0800 H   0  0  0  0  0  0  0  0  0  0  0  0
    3.1497   -0.7077   -0.5100 H   0  0  0  0  0  0  0  0  0  0  0  0
    2.5564   -2.2668   -0.0240 H   0  0  0  0  0  0  0  0  0  0  0  0
    1.6376   -0.3714    1.5116 H   0  0  0  0  0  0  0  0  0  0  0  0
    0.3712    0.6790    1.9061 H   0  0  0  0  0  0  0  0  0  0  0  0
   -0.7018    0.4364    3.2275 H   0  0  0  0  0  0  0  0  0  0  0  0
    0.3368    2.8808    2.1176 H   0  0  0  0  0  0  0  0  0  0  0  0
   -1.0263    2.6362    3.1798 H   0  0  0  0  0  0  0  0  0  0  0  0
   -0.5260    6.2579    3.8738 H   0  0  0  0  0  0  0  0  0  0  0  0
   -0.6526    5.0180    2.6715 H   0  0  0  0  0  0  0  0  0  0  0  0
    0.9411    5.7282    3.0595 H   0  0  0  0  0  0  0  0  0  0  0  0
    2.5641    3.9632    2.9619 H   0  0  0  0  0  0  0  0  0  0  0  0
    4.1823    3.2606    4.8005 H   0  0  0  0  0  0  0  0  0  0  0  0
    2.4869    3.0120    6.9506 H   0  0  0  0  0  0  0  0  0  0  0  0
    3.4404    0.5461    5.6375 H   0  0  0  0  0  0  0  0  0  0  0  0
    2.4563    0.6217    7.1286 H   0  0  0  0  0  0  0  0  0  0  0  0
   -0.3576   -0.7918    5.3819 H   0  0  0  0  0  0  0  0  0  0  0  0
    0.3299   -0.3940    6.9503 H   0  0  0  0  0  0  0  0  0  0  0  0
   -1.5042    1.3153    5.2251 H   0  0  0  0  0  0  0  0  0  0  0  0
   -3.0012    0.7414    6.9816 H   0  0  0  0  0  0  0  0  0  0  0  0
   -1.7070    0.8312    8.2353 H   0  0  0  0  0  0  0  0  0  0  0  0
   -3.3273    4.3474    8.1115 H   0  0  0  0  0  0  0  0  0  0  0  0
   -3.3191    2.9491    9.1799 H   0  0  0  0  0  0  0  0  0  0  0  0
   -4.2987    2.9321    7.7033 H   0  0  0  0  0  0  0  0  0  0  0  0
    0.3395    2.0930    7.4808 H   0  0  0  0  0  0  0  0  0  0  0  0
  1  2  1  0
  1 28  1  0
  1 29  1  0
  1 30  1  0
  2  3  1  0
  2 31  1  0
  2 32  1  0
  3  4  1  0
  3 33  1  0
  3 34  1  0
  4  5  2  0
  4  6  1  0
  6  7  1  0
  6 35  1  0
  7  8  2  3
  8 18  1  0
  8  9  1  0
  9 10  1  0
  9 36  1  0
  9 37  1  0
 10 11  1  0
 10 38  1  0
 10 39  1  0
 27 11  1  6
 11 12  1  1
 11 14  1  0
 12 13  1  0
 13 40  1  0
 13 41  1  0
 13 42  1  0
 14 15  2  0
 14 43  1  0
 15 16  1  0
 15 44  1  0
 16 27  1  0
 16 17  1  0
 16 45  1  1
 18 17  1  1
 17 46  1  0
 17 47  1  0
 18 27  1  0
 18 19  1  0
 19 20  1  0
 19 48  1  0
 19 49  1  0
 20 26  1  0
 20 21  1  0
 20 50  1  6
 21 22  1  0
 21 51  1  0
 21 52  1  0
 22 23  1  0
 22 24  1  0
 23 53  1  0
 23 54  1  0
 23 55  1  0
 24 25  2  0
 24 26  1  0
 26 27  1  0
 26 56  1  1
M  END
>  <i_m_ct_stereo_status>  (365) 
1

>  <s_m_source_file>  (365) 
/var/tmp/pbs.5076255.sched01/tmpxmhsyh4a/135ajud44o5.sdf

>  <i_m_source_file_index>  (365) 
17

>  <i_lp_mmshare_version>  (365) 
48012

>  <i_f3d_flags>  (365) 
0

>  <s_epik_input>  (365) 
W0NIM11bQ0gyXVtDSDJdQyg9TylbTkhdL049QzEvW0NIMl1bQ0gyXVtDQF0oT1tDSDNdKShbQ0hdPVtDSF1bQ0BASF0yW0NIMl0zKVtDQF0yKFtDQEBdMTM0KVtDQEBIXTVbQ0BASF0oW0NIMl00KVtDSDJdTihbQ0gzXSlDNT1P

>  <s_epik_cmdline>  (365) 
J2VwaWtfcHl0aG9uJywgJy1waHQnLCAnMi4wJywgJy1waCcsICc3LjAnLCAnLXRuJywgJzgnLCAnLW1hJywgJzIwMCcsICctaW1hZScsICc8aW5maWxlLm1hZT4nLCAnLW9tYWUnLCAnPG91dGZpbGUubWFlPic=

>  <r_lp_tautomer_probability>  (365) 
1

>  <r_epik_Ionization_Penalty>  (365) 
1.16979e-05

>  <r_epik_Ionization_Penalty_Charging>  (365) 
0

>  <r_epik_Ionization_Penalty_Neutral>  (365) 
1.16979e-05

>  <r_epik_State_Penalty>  (365) 
-0

>  <r_epik_Charging_Adjusted_Penalty>  (365) 
0

>  <i_epik_Tot_Q>  (365) 
0

>  <i_epik_Tot_abs_Q>  (365) 
0

>  <s_epik_Chemistry_Notes>  (365) 
This compound has an imine and may undergo hydrolysis.

>  <s_lp_Force_Field>  (365) 
OPLS3e

>  <r_lp_Energy>  (365) 
66.0279

>  <b_lp_Chiralities_Consistent>  (365) 
1

>  <s_lp_Variant>  (365) 
101:0-1

>  <s_i_glide_gridfile>  (365) 
pfpi4k_grid

>  <i_i_glide_lignum>  (365) 
17

>  <i_i_glide_rotatable_bonds>  (365) 
5

>  <r_i_docking_score>  (365) 
-2.21067

>  <r_i_glide_ligand_efficiency>  (365) 
-0.0818768

>  <r_i_glide_ligand_efficiency_sa>  (365) 
-0.24563

>  <r_i_glide_ligand_efficiency_ln>  (365) 
-0.514608

>  <r_i_glide_gscore>  (365) 
-2.21067

>  <r_i_glide_lipo>  (365) 
-0.0534482

>  <r_i_glide_hbond>  (365) 
0

>  <r_i_glide_metal>  (365) 
-0

>  <r_i_glide_rewards>  (365) 
-1.02138

>  <r_i_glide_evdw>  (365) 
-21.6452

>  <r_i_glide_ecoul>  (365) 
-2.74151

>  <r_i_glide_erotb>  (365) 
0.419665

>  <r_i_glide_esite>  (365) 
-0.0620247

>  <r_i_glide_emodel>  (365) 
-27.5652

>  <r_i_glide_energy>  (365) 
-24.3867

>  <r_i_glide_einternal>  (365) 
0.507304

>  <r_i_glide_intrahb_reward>  (365) 
-0

>  <i_i_glide_confnum>  (365) 
1

>  <i_i_glide_posenum>  (365) 
25

>  <r_i_glide_eff_state_penalty>  (365) 
0

>  <ligand_id>  (365) 
101

>  <original_smiles>  (365) 
CCCC(=O)NN=C1CCC2(OC)C=CC3CC14CC1CN(C)C(=O)C1C324

>  <smiles>  (365) 
[H]C1=C([H])C2(OC([H])([H])[H])C([H])([H])C([H])([H])C(=NN([H])C(=O)C([H])([H])C([H])([H])C([H])([H])[H])C34C([H])([H])C1([H])C23C1([H])C(=O)N(C([H])([H])[H])C([H])([H])C1([H])C4([H])[H]

$$$$
102:0:0
     RDKit          3D

 23 24  0  0  1  0  0  0  0  0999 V2000
    2.4668   -5.3972    1.4240 C   0  0  0  0  0  0  0  0  0  0  0  0
    2.8739   -4.9818    0.2145 C   0  0  0  0  0  0  0  0  0  0  0  0
    4.3257   -4.7558   -0.1744 C   0  0  0  0  0  0  0  0  0  0  0  0
    4.5861   -3.4191   -0.6772 N   0  0  0  0  0  0  0  0  0  0  0  0
    5.5717   -2.6685   -0.1030 N   0  0  0  0  0  0  0  0  0  0  0  0
    5.6478   -1.5264   -0.7350 N   0  0  0  0  0  0  0  0  0  0  0  0
    4.6954   -1.5343   -1.7467 C   0  0  0  0  0  0  0  0  0  0  0  0
    4.3394   -0.5828   -2.7218 C   0  0  0  0  0  0  0  0  0  0  0  0
    3.3285   -0.8422   -3.6780 C   0  0  0  0  0  0  0  0  0  0  0  0
    2.9698    0.1616   -4.6947 N   0  0  0  0  0  0  0  0  0  0  0  0
    1.8227    0.1688   -5.1157 O   0  0  0  0  0  0  0  0  0  0  0  0
    3.8338    0.9415   -5.0700 O   0  0  0  0  0  0  0  0  0  0  0  0
    2.6494   -2.0849   -3.6379 C   0  0  0  0  0  0  0  0  0  0  0  0
    2.9812   -3.0385   -2.6682 C   0  0  0  0  0  0  0  0  0  0  0  0
    3.9969   -2.7619   -1.7387 C   0  0  0  0  0  0  0  0  0  0  0  0
    3.1748   -5.6024    2.2118 H   0  0  0  0  0  0  0  0  0  0  0  0
    1.4219   -5.5431    1.6467 H   0  0  0  0  0  0  0  0  0  0  0  0
    2.1349   -4.7995   -0.5516 H   0  0  0  0  0  0  0  0  0  0  0  0
    4.9708   -4.9581    0.6841 H   0  0  0  0  0  0  0  0  0  0  0  0
    4.6074   -5.4683   -0.9500 H   0  0  0  0  0  0  0  0  0  0  0  0
    4.8486    0.3699   -2.7165 H   0  0  0  0  0  0  0  0  0  0  0  0
    1.8517   -2.3013   -4.3323 H   0  0  0  0  0  0  0  0  0  0  0  0
    2.4365   -3.9662   -2.6401 H   0  0  0  0  0  0  0  0  0  0  0  0
  1  2  2  0
  1 16  1  0
  1 17  1  0
  2  3  1  0
  2 18  1  0
  3  4  1  0
  3 19  1  0
  3 20  1  0
  4 15  1  0
  4  5  1  0
  5  6  2  0
  6  7  1  0
  7 15  2  0
  7  8  1  0
  8  9  2  0
  8 21  1  0
  9 10  1  0
  9 13  1  0
 10 11  2  0
 10 12  1  0
 13 14  2  0
 13 22  1  0
 14 15  1  0
 14 23  1  0
M  CHG  2  10   1  12  -1
M  END
>  <i_m_ct_stereo_status>  (366) 
1

>  <s_m_source_file>  (366) 
/var/tmp/pbs.5076255.sched01/tmpxmhsyh4a/135ajud44o5.sdf

>  <i_m_source_file_index>  (366) 
18

>  <i_lp_mmshare_version>  (366) 
48012

>  <i_f3d_flags>  (366) 
0

>  <s_epik_input>  (366) 
W0NIMl09W0NIXVtDSDJdbihubjEpYyhjMTIpW2NIXVtjSF1jKFtjSF0yKVtOK10oPU8pW08tXQ==

>  <s_epik_cmdline>  (366) 
J2VwaWtfcHl0aG9uJywgJy1waHQnLCAnMi4wJywgJy1waCcsICc3LjAnLCAnLXRuJywgJzgnLCAnLW1hJywgJzIwMCcsICctaW1hZScsICc8aW5maWxlLm1hZT4nLCAnLW9tYWUnLCAnPG91dGZpbGUubWFlPic=

>  <r_lp_tautomer_probability>  (366) 
1

>  <r_epik_Ionization_Penalty>  (366) 
1.53332e-10

>  <r_epik_Ionization_Penalty_Charging>  (366) 
0

>  <r_epik_Ionization_Penalty_Neutral>  (366) 
1.53332e-10

>  <r_epik_State_Penalty>  (366) 
-0

>  <r_epik_Charging_Adjusted_Penalty>  (366) 
0

>  <i_epik_Tot_Q>  (366) 
0

>  <i_epik_Tot_abs_Q>  (366) 
2

>  <s_lp_Force_Field>  (366) 
OPLS3e

>  <r_lp_Energy>  (366) 
14.7103

>  <b_lp_Chiralities_Consistent>  (366) 
1

>  <s_lp_Variant>  (366) 
102:0-1

>  <s_i_glide_gridfile>  (366) 
pfpi4k_grid

>  <i_i_glide_lignum>  (366) 
18

>  <i_i_glide_rotatable_bonds>  (366) 
3

>  <r_i_docking_score>  (366) 
-3.63751

>  <r_i_glide_ligand_efficiency>  (366) 
-0.242501

>  <r_i_glide_ligand_efficiency_sa>  (366) 
-0.598059

>  <r_i_glide_ligand_efficiency_ln>  (366) 
-0.980978

>  <r_i_glide_gscore>  (366) 
-3.63751

>  <r_i_glide_lipo>  (366) 
-0.56297

>  <r_i_glide_hbond>  (366) 
0

>  <r_i_glide_metal>  (366) 
-0

>  <r_i_glide_rewards>  (366) 
-2.14098

>  <r_i_glide_evdw>  (366) 
-23.8204

>  <r_i_glide_ecoul>  (366) 
-3.0866

>  <r_i_glide_erotb>  (366) 
0.78892

>  <r_i_glide_esite>  (366) 
-0.0684765

>  <r_i_glide_emodel>  (366) 
-32.5331

>  <r_i_glide_energy>  (366) 
-26.907

>  <r_i_glide_einternal>  (366) 
0.986822

>  <r_i_glide_intrahb_reward>  (366) 
-0

>  <i_i_glide_confnum>  (366) 
5

>  <i_i_glide_posenum>  (366) 
2

>  <r_i_glide_eff_state_penalty>  (366) 
0

>  <ligand_id>  (366) 
102

>  <original_smiles>  (366) 
C=CCn1nnc2cc([N+](=O)[O-])ccc21

>  <smiles>  (366) 
[H]C([H])=C([H])C([H])([H])n1nnc2c([H])c([N+](=O)[O-])c([H])c([H])c21

$$$$
102:0:1
     RDKit          3D

 23 24  0  0  1  0  0  0  0  0999 V2000
    1.4332  -11.6155    4.3233 C   0  0  0  0  0  0  0  0  0  0  0  0
    0.6128  -10.5619    4.1954 C   0  0  0  0  0  0  0  0  0  0  0  0
   -0.0599  -10.1423    2.9013 C   0  0  0  0  0  0  0  0  0  0  0  0
    0.3032   -8.7949    2.5027 N   0  0  0  0  0  0  0  0  0  0  0  0
   -0.6318   -7.8000    2.4964 N   0  0  0  0  0  0  0  0  0  0  0  0
   -0.0631   -6.6931    2.1062 N   0  0  0  0  0  0  0  0  0  0  0  0
    1.2751   -6.9680    1.8521 C   0  0  0  0  0  0  0  0  0  0  0  0
    2.3490   -6.1530    1.4213 C   0  0  0  0  0  0  0  0  0  0  0  0
    3.6439   -6.7005    1.2331 C   0  0  0  0  0  0  0  0  0  0  0  0
    4.7602   -5.8438    0.7866 N   0  0  0  0  0  0  0  0  0  0  0  0
    5.9027   -6.2827    0.8802 O   0  0  0  0  0  0  0  0  0  0  0  0
    4.4993   -4.7260    0.3499 O   0  0  0  0  0  0  0  0  0  0  0  0
    3.8631   -8.0784    1.4770 C   0  0  0  0  0  0  0  0  0  0  0  0
    2.8058   -8.9007    1.9049 C   0  0  0  0  0  0  0  0  0  0  0  0
    1.5374   -8.3338    2.0913 C   0  0  0  0  0  0  0  0  0  0  0  0
    1.6748  -12.2522    3.4833 H   0  0  0  0  0  0  0  0  0  0  0  0
    1.8774  -11.8568    5.2797 H   0  0  0  0  0  0  0  0  0  0  0  0
    0.3943   -9.9585    5.0641 H   0  0  0  0  0  0  0  0  0  0  0  0
    0.2134  -10.8257    2.0971 H   0  0  0  0  0  0  0  0  0  0  0  0
   -1.1426  -10.2085    3.0232 H   0  0  0  0  0  0  0  0  0  0  0  0
    2.1741   -5.1033    1.2446 H   0  0  0  0  0  0  0  0  0  0  0  0
    4.8429   -8.5123    1.3370 H   0  0  0  0  0  0  0  0  0  0  0  0
    2.9688   -9.9516    2.0868 H   0  0  0  0  0  0  0  0  0  0  0  0
  1  2  2  0
  1 16  1  0
  1 17  1  0
  2  3  1  0
  2 18  1  0
  3  4  1  0
  3 19  1  0
  3 20  1  0
  4 15  1  0
  4  5  1  0
  5  6  2  0
  6  7  1  0
  7 15  2  0
  7  8  1  0
  8  9  2  0
  8 21  1  0
  9 10  1  0
  9 13  1  0
 10 11  2  0
 10 12  1  0
 13 14  2  0
 13 22  1  0
 14 15  1  0
 14 23  1  0
M  CHG  2  10   1  12  -1
M  END
>  <i_m_ct_stereo_status>  (367) 
1

>  <s_m_source_file>  (367) 
/var/tmp/pbs.5076255.sched01/tmpxmhsyh4a/135ajud44o5.sdf

>  <i_m_source_file_index>  (367) 
18

>  <i_lp_mmshare_version>  (367) 
48012

>  <i_f3d_flags>  (367) 
0

>  <s_epik_input>  (367) 
W0NIMl09W0NIXVtDSDJdbihubjEpYyhjMTIpW2NIXVtjSF1jKFtjSF0yKVtOK10oPU8pW08tXQ==

>  <s_epik_cmdline>  (367) 
J2VwaWtfcHl0aG9uJywgJy1waHQnLCAnMi4wJywgJy1waCcsICc3LjAnLCAnLXRuJywgJzgnLCAnLW1hJywgJzIwMCcsICctaW1hZScsICc8aW5maWxlLm1hZT4nLCAnLW9tYWUnLCAnPG91dGZpbGUubWFlPic=

>  <r_lp_tautomer_probability>  (367) 
1

>  <r_epik_Ionization_Penalty>  (367) 
1.53332e-10

>  <r_epik_Ionization_Penalty_Charging>  (367) 
0

>  <r_epik_Ionization_Penalty_Neutral>  (367) 
1.53332e-10

>  <r_epik_State_Penalty>  (367) 
-0

>  <r_epik_Charging_Adjusted_Penalty>  (367) 
0

>  <i_epik_Tot_Q>  (367) 
0

>  <i_epik_Tot_abs_Q>  (367) 
2

>  <s_lp_Force_Field>  (367) 
OPLS3e

>  <r_lp_Energy>  (367) 
14.7103

>  <b_lp_Chiralities_Consistent>  (367) 
1

>  <s_lp_Variant>  (367) 
102:0-1

>  <s_i_glide_gridfile>  (367) 
pfpi4k_grid

>  <i_i_glide_lignum>  (367) 
18

>  <i_i_glide_rotatable_bonds>  (367) 
3

>  <r_i_docking_score>  (367) 
-3.21657

>  <r_i_glide_ligand_efficiency>  (367) 
-0.214438

>  <r_i_glide_ligand_efficiency_sa>  (367) 
-0.52885

>  <r_i_glide_ligand_efficiency_ln>  (367) 
-0.867457

>  <r_i_glide_gscore>  (367) 
-3.21657

>  <r_i_glide_lipo>  (367) 
-0.097727

>  <r_i_glide_hbond>  (367) 
0

>  <r_i_glide_metal>  (367) 
-0

>  <r_i_glide_rewards>  (367) 
-2.14502

>  <r_i_glide_evdw>  (367) 
-20.6162

>  <r_i_glide_ecoul>  (367) 
-3.54039

>  <r_i_glide_erotb>  (367) 
0.78892

>  <r_i_glide_esite>  (367) 
-0.200881

>  <r_i_glide_emodel>  (367) 
-29.4559

>  <r_i_glide_energy>  (367) 
-24.1566

>  <r_i_glide_einternal>  (367) 
0.393299

>  <r_i_glide_intrahb_reward>  (367) 
-0

>  <i_i_glide_confnum>  (367) 
1

>  <i_i_glide_posenum>  (367) 
9

>  <r_i_glide_eff_state_penalty>  (367) 
0

>  <ligand_id>  (367) 
102

>  <original_smiles>  (367) 
C=CCn1nnc2cc([N+](=O)[O-])ccc21

>  <smiles>  (367) 
[H]C([H])=C([H])C([H])([H])n1nnc2c([H])c([N+](=O)[O-])c([H])c([H])c21

$$$$
102:0:2
     RDKit          3D

 23 24  0  0  1  0  0  0  0  0999 V2000
    3.4564    0.2259   -5.3435 C   0  0  0  0  0  0  0  0  0  0  0  0
    3.0194   -0.6436   -4.4231 C   0  0  0  0  0  0  0  0  0  0  0  0
    3.4727   -0.6578   -2.9753 C   0  0  0  0  0  0  0  0  0  0  0  0
    4.0614   -1.9189   -2.5647 N   0  0  0  0  0  0  0  0  0  0  0  0
    4.8317   -2.6282   -3.4369 N   0  0  0  0  0  0  0  0  0  0  0  0
    5.3050   -3.6700   -2.8285 N   0  0  0  0  0  0  0  0  0  0  0  0
    4.8266   -3.6653   -1.5280 C   0  0  0  0  0  0  0  0  0  0  0  0
    5.0134   -4.5564   -0.4464 C   0  0  0  0  0  0  0  0  0  0  0  0
    4.4078   -4.3073    0.8111 C   0  0  0  0  0  0  0  0  0  0  0  0
    4.6104   -5.2387    1.9385 N   0  0  0  0  0  0  0  0  0  0  0  0
    4.0818   -4.9710    3.0131 O   0  0  0  0  0  0  0  0  0  0  0  0
    5.2989   -6.2395    1.7554 O   0  0  0  0  0  0  0  0  0  0  0  0
    3.6072   -3.1502    0.9809 C   0  0  0  0  0  0  0  0  0  0  0  0
    3.4133   -2.2562   -0.0886 C   0  0  0  0  0  0  0  0  0  0  0  0
    4.0188   -2.5269   -1.3239 C   0  0  0  0  0  0  0  0  0  0  0  0
    4.1730    0.9929   -5.0942 H   0  0  0  0  0  0  0  0  0  0  0  0
    3.1002    0.1732   -6.3584 H   0  0  0  0  0  0  0  0  0  0  0  0
    2.2952   -1.3954   -4.7028 H   0  0  0  0  0  0  0  0  0  0  0  0
    4.1972    0.1383   -2.7963 H   0  0  0  0  0  0  0  0  0  0  0  0
    2.6086   -0.4630   -2.3444 H   0  0  0  0  0  0  0  0  0  0  0  0
    5.6258   -5.4321   -0.5955 H   0  0  0  0  0  0  0  0  0  0  0  0
    3.1360   -2.9419    1.9311 H   0  0  0  0  0  0  0  0  0  0  0  0
    2.7996   -1.3779    0.0424 H   0  0  0  0  0  0  0  0  0  0  0  0
  1  2  2  0
  1 16  1  0
  1 17  1  0
  2  3  1  0
  2 18  1  0
  3  4  1  0
  3 19  1  0
  3 20  1  0
  4 15  1  0
  4  5  1  0
  5  6  2  0
  6  7  1  0
  7 15  2  0
  7  8  1  0
  8  9  2  0
  8 21  1  0
  9 10  1  0
  9 13  1  0
 10 11  2  0
 10 12  1  0
 13 14  2  0
 13 22  1  0
 14 15  1  0
 14 23  1  0
M  CHG  2  10   1  12  -1
M  END
>  <i_m_ct_stereo_status>  (368) 
1

>  <s_m_source_file>  (368) 
/var/tmp/pbs.5076255.sched01/tmpxmhsyh4a/135ajud44o5.sdf

>  <i_m_source_file_index>  (368) 
18

>  <i_lp_mmshare_version>  (368) 
48012

>  <i_f3d_flags>  (368) 
0

>  <s_epik_input>  (368) 
W0NIMl09W0NIXVtDSDJdbihubjEpYyhjMTIpW2NIXVtjSF1jKFtjSF0yKVtOK10oPU8pW08tXQ==

>  <s_epik_cmdline>  (368) 
J2VwaWtfcHl0aG9uJywgJy1waHQnLCAnMi4wJywgJy1waCcsICc3LjAnLCAnLXRuJywgJzgnLCAnLW1hJywgJzIwMCcsICctaW1hZScsICc8aW5maWxlLm1hZT4nLCAnLW9tYWUnLCAnPG91dGZpbGUubWFlPic=

>  <r_lp_tautomer_probability>  (368) 
1

>  <r_epik_Ionization_Penalty>  (368) 
1.53332e-10

>  <r_epik_Ionization_Penalty_Charging>  (368) 
0

>  <r_epik_Ionization_Penalty_Neutral>  (368) 
1.53332e-10

>  <r_epik_State_Penalty>  (368) 
-0

>  <r_epik_Charging_Adjusted_Penalty>  (368) 
0

>  <i_epik_Tot_Q>  (368) 
0

>  <i_epik_Tot_abs_Q>  (368) 
2

>  <s_lp_Force_Field>  (368) 
OPLS3e

>  <r_lp_Energy>  (368) 
14.7103

>  <b_lp_Chiralities_Consistent>  (368) 
1

>  <s_lp_Variant>  (368) 
102:0-1

>  <s_i_glide_gridfile>  (368) 
pfpi4k_grid

>  <i_i_glide_lignum>  (368) 
18

>  <i_i_glide_rotatable_bonds>  (368) 
3

>  <r_i_docking_score>  (368) 
-2.89159

>  <r_i_glide_ligand_efficiency>  (368) 
-0.192772

>  <r_i_glide_ligand_efficiency_sa>  (368) 
-0.475418

>  <r_i_glide_ligand_efficiency_ln>  (368) 
-0.779813

>  <r_i_glide_gscore>  (368) 
-2.89159

>  <r_i_glide_lipo>  (368) 
-0.420994

>  <r_i_glide_hbond>  (368) 
0

>  <r_i_glide_metal>  (368) 
-0

>  <r_i_glide_rewards>  (368) 
-2.03913

>  <r_i_glide_evdw>  (368) 
-20.7935

>  <r_i_glide_ecoul>  (368) 
-1.1806

>  <r_i_glide_erotb>  (368) 
0.78892

>  <r_i_glide_esite>  (368) 
-0.00360969

>  <r_i_glide_emodel>  (368) 
-26.4458

>  <r_i_glide_energy>  (368) 
-21.9741

>  <r_i_glide_einternal>  (368) 
0.95962

>  <r_i_glide_intrahb_reward>  (368) 
-0

>  <i_i_glide_confnum>  (368) 
5

>  <i_i_glide_posenum>  (368) 
3

>  <r_i_glide_eff_state_penalty>  (368) 
0

>  <ligand_id>  (368) 
102

>  <original_smiles>  (368) 
C=CCn1nnc2cc([N+](=O)[O-])ccc21

>  <smiles>  (368) 
[H]C([H])=C([H])C([H])([H])n1nnc2c([H])c([N+](=O)[O-])c([H])c([H])c21

$$$$
103:0:0
     RDKit          3D

 56 61  0  0  1  0  0  0  0  0999 V2000
    4.4222    1.8536    8.1231 C   0  0  0  0  0  0  0  0  0  0  0  0
    3.2930    1.4246    7.1649 C   0  0  0  0  0  0  0  0  0  0  0  0
    3.5747    0.1199    6.3718 C   0  0  2  0  0  0  0  0  0  0  0  0
    4.7978    0.2218    5.3996 C   0  0  0  0  0  0  0  0  0  0  0  0
    4.5146    0.1115    3.8756 C   0  0  0  0  0  0  0  0  0  0  0  0
    3.1051    0.6145    3.4913 C   0  0  1  0  0  0  0  0  0  0  0  0
    3.1008    1.9639    3.9424 O   0  0  0  0  0  0  0  0  0  0  0  0
    2.6399    0.6932    1.9899 C   0  0  2  0  0  0  0  0  0  0  0  0
    1.2162    1.3421    1.8861 C   0  0  0  0  0  0  0  0  0  0  0  0
    0.2517    1.1391    3.0719 C   0  0  0  0  0  0  0  0  0  0  0  0
   -1.0098    1.7315    3.2627 C   0  0  0  0  0  0  0  0  0  0  0  0
   -1.6576    1.6122    4.5199 C   0  0  0  0  0  0  0  0  0  0  0  0
   -1.0331    0.9611    5.6142 C   0  0  0  0  0  0  0  0  0  0  0  0
   -1.6289    0.9422    6.8425 O   0  0  0  0  0  0  0  0  0  0  0  0
    0.2352    0.3693    5.4475 C   0  0  0  0  0  0  0  0  0  0  0  0
    0.7700    0.4341    4.1757 C   0  0  0  0  0  0  0  0  0  0  0  0
    2.0782   -0.2753    4.2096 C   0  0  1  0  0  0  0  0  0  0  0  0
    1.9805   -1.6654    3.4982 C   0  0  0  0  0  0  0  0  0  0  0  0
    1.6955   -1.5882    1.9925 C   0  0  0  0  0  0  0  0  0  0  0  0
    2.5883   -0.6306    1.3016 N   0  0  2  0  0  0  0  0  0  0  0  0
    3.9068   -1.1932    0.9197 C   0  0  0  0  0  0  0  0  0  0  0  0
    3.8345   -1.9502   -0.3926 C   0  0  0  0  0  0  0  0  0  0  0  0
    5.1126   -2.3710   -1.0895 C   0  0  0  0  0  0  0  0  0  0  0  0
    4.2622   -1.2770   -1.6773 C   0  0  0  0  0  0  0  0  0  0  0  0
    2.3051   -0.5285    5.7345 C   0  0  2  0  0  0  0  0  0  0  0  0
    1.0544   -0.2061    6.3820 O   0  0  0  0  0  0  0  0  0  0  0  0
    4.1268    2.7344    8.6957 H   0  0  0  0  0  0  0  0  0  0  0  0
    5.3391    2.1128    7.5950 H   0  0  0  0  0  0  0  0  0  0  0  0
    4.6618    1.0684    8.8420 H   0  0  0  0  0  0  0  0  0  0  0  0
    2.4075    1.2860    7.7851 H   0  0  0  0  0  0  0  0  0  0  0  0
    3.0573    2.2478    6.4926 H   0  0  0  0  0  0  0  0  0  0  0  0
    3.8810   -0.5817    7.1467 H   0  0  0  0  0  0  0  0  0  0  0  0
    5.3109    1.1688    5.5645 H   0  0  0  0  0  0  0  0  0  0  0  0
    5.5322   -0.5421    5.6656 H   0  0  0  0  0  0  0  0  0  0  0  0
    5.2850    0.6389    3.3156 H   0  0  0  0  0  0  0  0  0  0  0  0
    4.6330   -0.9352    3.6180 H   0  0  0  0  0  0  0  0  0  0  0  0
    2.2902    2.3710    3.6728 H   0  0  0  0  0  0  0  0  0  0  0  0
    3.3309    1.3233    1.4261 H   0  0  0  0  0  0  0  0  0  0  0  0
    1.3500    2.4200    1.7938 H   0  0  0  0  0  0  0  0  0  0  0  0
    0.7119    1.0436    0.9626 H   0  0  0  0  0  0  0  0  0  0  0  0
   -1.4599    2.3160    2.4697 H   0  0  0  0  0  0  0  0  0  0  0  0
   -2.6104    2.0872    4.6575 H   0  0  0  0  0  0  0  0  0  0  0  0
   -0.9741    0.9380    7.5243 H   0  0  0  0  0  0  0  0  0  0  0  0
    2.9080   -2.2240    3.6359 H   0  0  0  0  0  0  0  0  0  0  0  0
    1.2142   -2.2854    3.9663 H   0  0  0  0  0  0  0  0  0  0  0  0
    1.7853   -2.5744    1.5365 H   0  0  0  0  0  0  0  0  0  0  0  0
    0.6591   -1.2831    1.8387 H   0  0  0  0  0  0  0  0  0  0  0  0
    4.6483   -0.3982    0.8155 H   0  0  0  0  0  0  0  0  0  0  0  0
    4.2743   -1.8780    1.6816 H   0  0  0  0  0  0  0  0  0  0  0  0
    3.0202   -2.6751   -0.4628 H   0  0  0  0  0  0  0  0  0  0  0  0
    6.0576   -2.0908   -0.6280 H   0  0  0  0  0  0  0  0  0  0  0  0
    5.1160   -3.3248   -1.6152 H   0  0  0  0  0  0  0  0  0  0  0  0
    3.6823   -1.5076   -2.5693 H   0  0  0  0  0  0  0  0  0  0  0  0
    4.6204   -0.2537   -1.6011 H   0  0  0  0  0  0  0  0  0  0  0  0
    2.4224   -1.6019    5.8930 H   0  0  0  0  0  0  0  0  0  0  0  0
    2.1075   -0.4693    0.4154 H   0  0  0  0  0  0  0  0  0  0  0  0
  1  2  1  0
  1 27  1  0
  1 28  1  0
  1 29  1  0
  2  3  1  0
  2 30  1  0
  2 31  1  0
  3 25  1  0
  3  4  1  0
  3 32  1  1
  4  5  1  0
  4 33  1  0
  4 34  1  0
  5  6  1  0
  5 35  1  0
  5 36  1  0
  6 17  1  0
  6  7  1  1
  6  8  1  0
  7 37  1  0
  8 20  1  0
  8  9  1  0
  8 38  1  6
  9 10  1  0
  9 39  1  0
  9 40  1  0
 10 16  2  0
 10 11  1  0
 11 12  2  0
 11 41  1  0
 12 13  1  0
 12 42  1  0
 13 14  1  0
 13 15  2  0
 14 43  1  0
 15 26  1  0
 15 16  1  0
 16 17  1  0
 17 18  1  6
 17 25  1  0
 18 19  1  0
 18 44  1  0
 18 45  1  0
 19 20  1  0
 19 46  1  0
 19 47  1  0
 20 21  1  0
 20 56  1  6
 21 22  1  0
 21 48  1  0
 21 49  1  0
 22 24  1  0
 22 23  1  0
 22 50  1  0
 23 24  1  0
 23 51  1  0
 23 52  1  0
 24 53  1  0
 24 54  1  0
 25 26  1  0
 25 55  1  6
M  CHG  1  20   1
M  END
>  <i_m_ct_stereo_status>  (369) 
1

>  <s_m_source_file>  (369) 
/var/tmp/pbs.5076255.sched01/tmpxmhsyh4a/135ajud44o5.sdf

>  <i_m_source_file_index>  (369) 
19

>  <i_lp_mmshare_version>  (369) 
48012

>  <i_f3d_flags>  (369) 
0

>  <s_epik_input>  (369) 
W0NIM11bQ0gyXVtDQEhdKFtDSDJdW0NIMl0xKVtDQEhdMk9jKGMoW09IXSlbY0hdW2NIXTMpYzRjM1tDSDJdW0NAQEhdKFtDQF0xKFtDQEBdMjQ1KVtPSF0pTihbQ0gyXVtDSDJdNSlbQ0gyXVtDSF02W0NIMl1bQ0gyXTY=

>  <s_epik_cmdline>  (369) 
J2VwaWtfcHl0aG9uJywgJy1waHQnLCAnMi4wJywgJy1waCcsICc3LjAnLCAnLXRuJywgJzgnLCAnLW1hJywgJzIwMCcsICctaW1hZScsICc8aW5maWxlLm1hZT4nLCAnLW9tYWUnLCAnPG91dGZpbGUubWFlPic=

>  <r_lp_tautomer_probability>  (369) 
1

>  <r_epik_Ionization_Penalty>  (369) 
0.0320934

>  <r_epik_Ionization_Penalty_Charging>  (369) 
0.0212434

>  <r_epik_Ionization_Penalty_Neutral>  (369) 
0.0108499

>  <r_epik_State_Penalty>  (369) 
0.0251581

>  <r_epik_Charging_Adjusted_Penalty>  (369) 
0.0464015

>  <i_epik_Tot_Q>  (369) 
1

>  <i_epik_Tot_abs_Q>  (369) 
1

>  <s_lp_Force_Field>  (369) 
OPLS3e

>  <r_lp_Energy>  (369) 
81.9795

>  <b_lp_Chiralities_Consistent>  (369) 
1

>  <s_lp_Variant>  (369) 
103:0-1

>  <s_i_glide_gridfile>  (369) 
pfpi4k_grid

>  <i_i_glide_lignum>  (369) 
19

>  <i_i_glide_rotatable_bonds>  (369) 
5

>  <r_i_docking_score>  (369) 
-3.06925

>  <r_i_glide_ligand_efficiency>  (369) 
-0.118048

>  <r_i_glide_ligand_efficiency_sa>  (369) 
-0.349717

>  <r_i_glide_ligand_efficiency_ln>  (369) 
-0.720804

>  <r_i_glide_gscore>  (369) 
-3.06925

>  <r_i_glide_lipo>  (369) 
-0.0895463

>  <r_i_glide_hbond>  (369) 
-0.193035

>  <r_i_glide_metal>  (369) 
-0

>  <r_i_glide_rewards>  (369) 
-0.978556

>  <r_i_glide_evdw>  (369) 
-20.0117

>  <r_i_glide_ecoul>  (369) 
-6.9234

>  <r_i_glide_erotb>  (369) 
0.301122

>  <r_i_glide_esite>  (369) 
-0.0701429

>  <r_i_glide_emodel>  (369) 
-32.4894

>  <r_i_glide_energy>  (369) 
-26.9351

>  <r_i_glide_einternal>  (369) 
1.49879

>  <r_i_glide_intrahb_reward>  (369) 
-0

>  <i_i_glide_confnum>  (369) 
3

>  <i_i_glide_posenum>  (369) 
13

>  <r_i_glide_eff_state_penalty>  (369) 
0

>  <ligand_id>  (369) 
103

>  <original_smiles>  (369) 
CCC1CCC2(O)C3Cc4ccc(O)c5c4C2(CCN3CC2CC2)C1O5

>  <smiles>  (369) 
[H]Oc1c([H])c([H])c2c3c1OC1([H])C([H])(C([H])([H])C([H])([H])[H])C([H])([H])C([H])([H])C4(O[H])C31C([H])([H])C([H])([H])[N+]([H])(C([H])([H])C1([H])C([H])([H])C1([H])[H])C4([H])C2([H])[H]

$$$$
103:0:1
     RDKit          3D

 56 61  0  0  1  0  0  0  0  0999 V2000
    4.0077    1.7001    8.3007 C   0  0  0  0  0  0  0  0  0  0  0  0
    2.9446    1.3163    7.2517 C   0  0  0  0  0  0  0  0  0  0  0  0
    3.2621    0.0264    6.4487 C   0  0  2  0  0  0  0  0  0  0  0  0
    4.5552    0.1301    5.5718 C   0  0  0  0  0  0  0  0  0  0  0  0
    4.3840    0.0633    4.0290 C   0  0  0  0  0  0  0  0  0  0  0  0
    3.0147    0.5968    3.5546 C   0  0  1  0  0  0  0  0  0  0  0  0
    3.0106    1.9387    4.0286 O   0  0  0  0  0  0  0  0  0  0  0  0
    2.6595    0.7159    2.0272 C   0  0  2  0  0  0  0  0  0  0  0  0
    1.2604    1.3989    1.8373 C   0  0  0  0  0  0  0  0  0  0  0  0
    0.2094    1.1919    2.9470 C   0  0  0  0  0  0  0  0  0  0  0  0
   -1.0501    1.8079    3.0637 C   0  0  0  0  0  0  0  0  0  0  0  0
   -1.7838    1.6755    4.2669 C   0  0  0  0  0  0  0  0  0  0  0  0
   -1.2628    0.9698    5.3834 C   0  0  0  0  0  0  0  0  0  0  0  0
   -1.9714    0.9074    6.5492 O   0  0  0  0  0  0  0  0  0  0  0  0
    0.0014    0.3540    5.2923 C   0  0  0  0  0  0  0  0  0  0  0  0
    0.6310    0.4465    4.0645 C   0  0  0  0  0  0  0  0  0  0  0  0
    1.9207   -0.2889    4.1751 C   0  0  1  0  0  0  0  0  0  0  0  0
    1.8523   -1.6607    3.4245 C   0  0  0  0  0  0  0  0  0  0  0  0
    1.6723   -1.5430    1.9064 C   0  0  0  0  0  0  0  0  0  0  0  0
    2.6288   -0.5885    1.3055 N   0  0  2  0  0  0  0  0  0  0  0  0
    3.9626   -1.1641    1.0024 C   0  0  0  0  0  0  0  0  0  0  0  0
    3.9575   -1.9501   -0.2949 C   0  0  0  0  0  0  0  0  0  0  0  0
    5.2683   -2.3366   -0.9487 C   0  0  0  0  0  0  0  0  0  0  0  0
    4.3917   -1.2910   -1.5832 C   0  0  0  0  0  0  0  0  0  0  0  0
    2.0329   -0.5849    5.7041 C   0  0  2  0  0  0  0  0  0  0  0  0
    0.7417   -0.2657    6.2646 O   0  0  0  0  0  0  0  0  0  0  0  0
    3.6864    2.5722    8.8727 H   0  0  0  0  0  0  0  0  0  0  0  0
    4.9655    1.9545    7.8482 H   0  0  0  0  0  0  0  0  0  0  0  0
    4.1803    0.8934    9.0150 H   0  0  0  0  0  0  0  0  0  0  0  0
    2.0132    1.1786    7.8010 H   0  0  0  0  0  0  0  0  0  0  0  0
    2.7732    2.1595    6.5850 H   0  0  0  0  0  0  0  0  0  0  0  0
    3.4989   -0.6994    7.2255 H   0  0  0  0  0  0  0  0  0  0  0  0
    5.0709    1.0624    5.7983 H   0  0  0  0  0  0  0  0  0  0  0  0
    5.2542   -0.6548    5.8701 H   0  0  0  0  0  0  0  0  0  0  0  0
    5.1990    0.5967    3.5396 H   0  0  0  0  0  0  0  0  0  0  0  0
    4.5044   -0.9794    3.7584 H   0  0  0  0  0  0  0  0  0  0  0  0
    2.2060    2.3534    3.7521 H   0  0  0  0  0  0  0  0  0  0  0  0
    3.4076    1.3352    1.5281 H   0  0  0  0  0  0  0  0  0  0  0  0
    1.4211    2.4757    1.7803 H   0  0  0  0  0  0  0  0  0  0  0  0
    0.8162    1.1298    0.8778 H   0  0  0  0  0  0  0  0  0  0  0  0
   -1.4295    2.4115    2.2475 H   0  0  0  0  0  0  0  0  0  0  0  0
   -2.7506    2.1543    4.3296 H   0  0  0  0  0  0  0  0  0  0  0  0
   -2.6664    1.5471    6.5632 H   0  0  0  0  0  0  0  0  0  0  0  0
    2.7593   -2.2391    3.6142 H   0  0  0  0  0  0  0  0  0  0  0  0
    1.0429   -2.2765    3.8216 H   0  0  0  0  0  0  0  0  0  0  0  0
    1.7780   -2.5183    1.4341 H   0  0  0  0  0  0  0  0  0  0  0  0
    0.6564   -1.2117    1.6886 H   0  0  0  0  0  0  0  0  0  0  0  0
    4.7122   -0.3733    0.9177 H   0  0  0  0  0  0  0  0  0  0  0  0
    4.2917   -1.8343    1.7931 H   0  0  0  0  0  0  0  0  0  0  0  0
    3.1759   -2.7090   -0.3692 H   0  0  0  0  0  0  0  0  0  0  0  0
    6.1904   -2.0106   -0.4708 H   0  0  0  0  0  0  0  0  0  0  0  0
    5.3206   -3.3019   -1.4507 H   0  0  0  0  0  0  0  0  0  0  0  0
    3.8427   -1.5643   -2.4827 H   0  0  0  0  0  0  0  0  0  0  0  0
    4.7034   -0.2527   -1.5205 H   0  0  0  0  0  0  0  0  0  0  0  0
    2.1223   -1.6637    5.8427 H   0  0  0  0  0  0  0  0  0  0  0  0
    2.2254   -0.3897    0.3930 H   0  0  0  0  0  0  0  0  0  0  0  0
  1  2  1  0
  1 27  1  0
  1 28  1  0
  1 29  1  0
  2  3  1  0
  2 30  1  0
  2 31  1  0
  3 25  1  0
  3  4  1  0
  3 32  1  1
  4  5  1  0
  4 33  1  0
  4 34  1  0
  5  6  1  0
  5 35  1  0
  5 36  1  0
  6 17  1  0
  6  7  1  1
  6  8  1  0
  7 37  1  0
  8 20  1  0
  8  9  1  0
  8 38  1  6
  9 10  1  0
  9 39  1  0
  9 40  1  0
 10 16  2  0
 10 11  1  0
 11 12  2  0
 11 41  1  0
 12 13  1  0
 12 42  1  0
 13 14  1  0
 13 15  2  0
 14 43  1  0
 15 26  1  0
 15 16  1  0
 16 17  1  0
 17 18  1  6
 17 25  1  0
 18 19  1  0
 18 44  1  0
 18 45  1  0
 19 20  1  0
 19 46  1  0
 19 47  1  0
 20 21  1  0
 20 56  1  6
 21 22  1  0
 21 48  1  0
 21 49  1  0
 22 24  1  0
 22 23  1  0
 22 50  1  0
 23 24  1  0
 23 51  1  0
 23 52  1  0
 24 53  1  0
 24 54  1  0
 25 26  1  0
 25 55  1  6
M  CHG  1  20   1
M  END
>  <i_m_ct_stereo_status>  (370) 
1

>  <s_m_source_file>  (370) 
/var/tmp/pbs.5076255.sched01/tmpxmhsyh4a/135ajud44o5.sdf

>  <i_m_source_file_index>  (370) 
19

>  <i_lp_mmshare_version>  (370) 
48012

>  <i_f3d_flags>  (370) 
0

>  <s_epik_input>  (370) 
W0NIM11bQ0gyXVtDQEhdKFtDSDJdW0NIMl0xKVtDQEhdMk9jKGMoW09IXSlbY0hdW2NIXTMpYzRjM1tDSDJdW0NAQEhdKFtDQF0xKFtDQEBdMjQ1KVtPSF0pTihbQ0gyXVtDSDJdNSlbQ0gyXVtDSF02W0NIMl1bQ0gyXTY=

>  <s_epik_cmdline>  (370) 
J2VwaWtfcHl0aG9uJywgJy1waHQnLCAnMi4wJywgJy1waCcsICc3LjAnLCAnLXRuJywgJzgnLCAnLW1hJywgJzIwMCcsICctaW1hZScsICc8aW5maWxlLm1hZT4nLCAnLW9tYWUnLCAnPG91dGZpbGUubWFlPic=

>  <r_lp_tautomer_probability>  (370) 
1

>  <r_epik_Ionization_Penalty>  (370) 
0.0320934

>  <r_epik_Ionization_Penalty_Charging>  (370) 
0.0212434

>  <r_epik_Ionization_Penalty_Neutral>  (370) 
0.0108499

>  <r_epik_State_Penalty>  (370) 
0.0251581

>  <r_epik_Charging_Adjusted_Penalty>  (370) 
0.0464015

>  <i_epik_Tot_Q>  (370) 
1

>  <i_epik_Tot_abs_Q>  (370) 
1

>  <s_lp_Force_Field>  (370) 
OPLS3e

>  <r_lp_Energy>  (370) 
81.9795

>  <b_lp_Chiralities_Consistent>  (370) 
1

>  <s_lp_Variant>  (370) 
103:0-1

>  <s_i_glide_gridfile>  (370) 
pfpi4k_grid

>  <i_i_glide_lignum>  (370) 
19

>  <i_i_glide_rotatable_bonds>  (370) 
5

>  <r_i_docking_score>  (370) 
-3.02948

>  <r_i_glide_ligand_efficiency>  (370) 
-0.116518

>  <r_i_glide_ligand_efficiency_sa>  (370) 
-0.345185

>  <r_i_glide_ligand_efficiency_ln>  (370) 
-0.711463

>  <r_i_glide_gscore>  (370) 
-3.02948

>  <r_i_glide_lipo>  (370) 
-0.070342

>  <r_i_glide_hbond>  (370) 
-0.162363

>  <r_i_glide_metal>  (370) 
-0

>  <r_i_glide_rewards>  (370) 
-0.978556

>  <r_i_glide_evdw>  (370) 
-20.4167

>  <r_i_glide_ecoul>  (370) 
-6.86934

>  <r_i_glide_erotb>  (370) 
0.301122

>  <r_i_glide_esite>  (370) 
-0.068106

>  <r_i_glide_emodel>  (370) 
-33.3821

>  <r_i_glide_energy>  (370) 
-27.286

>  <r_i_glide_einternal>  (370) 
0.561368

>  <r_i_glide_intrahb_reward>  (370) 
-0

>  <i_i_glide_confnum>  (370) 
2

>  <i_i_glide_posenum>  (370) 
23

>  <r_i_glide_eff_state_penalty>  (370) 
0

>  <ligand_id>  (370) 
103

>  <original_smiles>  (370) 
CCC1CCC2(O)C3Cc4ccc(O)c5c4C2(CCN3CC2CC2)C1O5

>  <smiles>  (370) 
[H]Oc1c([H])c([H])c2c3c1OC1([H])C([H])(C([H])([H])C([H])([H])[H])C([H])([H])C([H])([H])C4(O[H])C31C([H])([H])C([H])([H])[N+]([H])(C([H])([H])C1([H])C([H])([H])C1([H])[H])C4([H])C2([H])[H]

$$$$
103:0:2
     RDKit          3D

 56 61  0  0  1  0  0  0  0  0999 V2000
    4.2646    3.3209    7.7118 C   0  0  0  0  0  0  0  0  0  0  0  0
    3.0905    2.7143    6.9172 C   0  0  0  0  0  0  0  0  0  0  0  0
    3.3132    1.2525    6.4552 C   0  0  2  0  0  0  0  0  0  0  0  0
    4.5231    1.0918    5.4809 C   0  0  0  0  0  0  0  0  0  0  0  0
    4.1995    0.6267    4.0441 C   0  0  0  0  0  0  0  0  0  0  0  0
    2.8053    1.0754    3.5450 C   0  0  1  0  0  0  0  0  0  0  0  0
    2.8550    2.4902    3.6633 O   0  0  0  0  0  0  0  0  0  0  0  0
    2.3159    0.8205    2.0699 C   0  0  2  0  0  0  0  0  0  0  0  0
    0.9152    1.4759    1.8287 C   0  0  0  0  0  0  0  0  0  0  0  0
   -0.0375    1.5907    3.0340 C   0  0  0  0  0  0  0  0  0  0  0  0
   -1.2697    2.2634    3.0935 C   0  0  0  0  0  0  0  0  0  0  0  0
   -1.8986    2.4700    4.3494 C   0  0  0  0  0  0  0  0  0  0  0  0
   -1.2781    2.0621    5.5581 C   0  0  0  0  0  0  0  0  0  0  0  0
   -1.8713    2.3256    6.7569 O   0  0  0  0  0  0  0  0  0  0  0  0
   -0.0358    1.3966    5.5240 C   0  0  0  0  0  0  0  0  0  0  0  0
    0.4785    1.1422    4.2668 C   0  0  0  0  0  0  0  0  0  0  0  0
    1.7622    0.4141    4.4532 C   0  0  1  0  0  0  0  0  0  0  0  0
    1.6118   -1.1005    4.0816 C   0  0  0  0  0  0  0  0  0  0  0  0
    1.2970   -1.3618    2.6043 C   0  0  0  0  0  0  0  0  0  0  0  0
    2.2077   -0.6249    1.6912 N   0  0  2  0  0  0  0  0  0  0  0  0
    3.4971   -1.3265    1.4337 C   0  0  0  0  0  0  0  0  0  0  0  0
    4.1470   -0.8785    0.1420 C   0  0  0  0  0  0  0  0  0  0  0  0
    3.9739   -1.6886   -1.1187 C   0  0  0  0  0  0  0  0  0  0  0  0
    5.3088   -1.6635   -0.4162 C   0  0  0  0  0  0  0  0  0  0  0  0
    2.0109    0.5158    5.9938 C   0  0  2  0  0  0  0  0  0  0  0  0
    0.7820    1.0208    6.5575 O   0  0  0  0  0  0  0  0  0  0  0  0
    4.0110    4.3207    8.0662 H   0  0  0  0  0  0  0  0  0  0  0  0
    5.1687    3.4201    7.1119 H   0  0  0  0  0  0  0  0  0  0  0  0
    4.5113    2.7192    8.5879 H   0  0  0  0  0  0  0  0  0  0  0  0
    2.2220    2.7515    7.5738 H   0  0  0  0  0  0  0  0  0  0  0  0
    2.8530    3.3591    6.0722 H   0  0  0  0  0  0  0  0  0  0  0  0
    3.6099    0.7375    7.3679 H   0  0  0  0  0  0  0  0  0  0  0  0
    5.0749    2.0282    5.4074 H   0  0  0  0  0  0  0  0  0  0  0  0
    5.2329    0.3773    5.9055 H   0  0  0  0  0  0  0  0  0  0  0  0
    4.9826    0.9374    3.3548 H   0  0  0  0  0  0  0  0  0  0  0  0
    4.2749   -0.4491    4.1051 H   0  0  0  0  0  0  0  0  0  0  0  0
    2.0583    2.8558    3.3068 H   0  0  0  0  0  0  0  0  0  0  0  0
    3.0079    1.3055    1.3817 H   0  0  0  0  0  0  0  0  0  0  0  0
    1.0927    2.4958    1.5011 H   0  0  0  0  0  0  0  0  0  0  0  0
    0.3894    0.9959    0.9973 H   0  0  0  0  0  0  0  0  0  0  0  0
   -1.7098    2.6605    2.1861 H   0  0  0  0  0  0  0  0  0  0  0  0
   -2.8447    2.9843    4.3730 H   0  0  0  0  0  0  0  0  0  0  0  0
   -2.6105    2.9064    6.6812 H   0  0  0  0  0  0  0  0  0  0  0  0
    2.5246   -1.6449    4.3353 H   0  0  0  0  0  0  0  0  0  0  0  0
    0.8355   -1.5617    4.6914 H   0  0  0  0  0  0  0  0  0  0  0  0
    1.3194   -2.4312    2.3910 H   0  0  0  0  0  0  0  0  0  0  0  0
    0.2720   -1.0481    2.4130 H   0  0  0  0  0  0  0  0  0  0  0  0
    4.2250   -1.1916    2.2227 H   0  0  0  0  0  0  0  0  0  0  0  0
    3.3233   -2.4038    1.3763 H   0  0  0  0  0  0  0  0  0  0  0  0
    4.2631    0.1993    0.0352 H   0  0  0  0  0  0  0  0  0  0  0  0
    3.3663   -2.5901   -1.0420 H   0  0  0  0  0  0  0  0  0  0  0  0
    3.8637   -1.1173   -2.0382 H   0  0  0  0  0  0  0  0  0  0  0  0
    6.1039   -1.0947   -0.8890 H   0  0  0  0  0  0  0  0  0  0  0  0
    5.6238   -2.5585    0.1175 H   0  0  0  0  0  0  0  0  0  0  0  0
    2.0976   -0.4953    6.3962 H   0  0  0  0  0  0  0  0  0  0  0  0
    1.7281   -0.6539    0.7860 H   0  0  0  0  0  0  0  0  0  0  0  0
  1  2  1  0
  1 27  1  0
  1 28  1  0
  1 29  1  0
  2  3  1  0
  2 30  1  0
  2 31  1  0
  3 25  1  0
  3  4  1  0
  3 32  1  1
  4  5  1  0
  4 33  1  0
  4 34  1  0
  5  6  1  0
  5 35  1  0
  5 36  1  0
  6 17  1  0
  6  7  1  1
  6  8  1  0
  7 37  1  0
  8 20  1  0
  8  9  1  0
  8 38  1  6
  9 10  1  0
  9 39  1  0
  9 40  1  0
 10 16  2  0
 10 11  1  0
 11 12  2  0
 11 41  1  0
 12 13  1  0
 12 42  1  0
 13 14  1  0
 13 15  2  0
 14 43  1  0
 15 26  1  0
 15 16  1  0
 16 17  1  0
 17 18  1  6
 17 25  1  0
 18 19  1  0
 18 44  1  0
 18 45  1  0
 19 20  1  0
 19 46  1  0
 19 47  1  0
 20 21  1  0
 20 56  1  6
 21 22  1  0
 21 48  1  0
 21 49  1  0
 22 24  1  0
 22 23  1  0
 22 50  1  0
 23 24  1  0
 23 51  1  0
 23 52  1  0
 24 53  1  0
 24 54  1  0
 25 26  1  0
 25 55  1  1
M  CHG  1  20   1
M  END
>  <i_m_ct_stereo_status>  (371) 
1

>  <s_m_source_file>  (371) 
/var/tmp/pbs.5076255.sched01/tmpxmhsyh4a/135ajud44o5.sdf

>  <i_m_source_file_index>  (371) 
19

>  <i_lp_mmshare_version>  (371) 
48012

>  <i_f3d_flags>  (371) 
0

>  <s_epik_input>  (371) 
W0NIM11bQ0gyXVtDQEhdKFtDSDJdW0NIMl0xKVtDQEhdMk9jKGMoW09IXSlbY0hdW2NIXTMpYzRjM1tDSDJdW0NAQEhdKFtDQF0xKFtDQEBdMjQ1KVtPSF0pTihbQ0gyXVtDSDJdNSlbQ0gyXVtDSF02W0NIMl1bQ0gyXTY=

>  <s_epik_cmdline>  (371) 
J2VwaWtfcHl0aG9uJywgJy1waHQnLCAnMi4wJywgJy1waCcsICc3LjAnLCAnLXRuJywgJzgnLCAnLW1hJywgJzIwMCcsICctaW1hZScsICc8aW5maWxlLm1hZT4nLCAnLW9tYWUnLCAnPG91dGZpbGUubWFlPic=

>  <r_lp_tautomer_probability>  (371) 
1

>  <r_epik_Ionization_Penalty>  (371) 
0.0320934

>  <r_epik_Ionization_Penalty_Charging>  (371) 
0.0212434

>  <r_epik_Ionization_Penalty_Neutral>  (371) 
0.0108499

>  <r_epik_State_Penalty>  (371) 
0.0251581

>  <r_epik_Charging_Adjusted_Penalty>  (371) 
0.0464015

>  <i_epik_Tot_Q>  (371) 
1

>  <i_epik_Tot_abs_Q>  (371) 
1

>  <s_lp_Force_Field>  (371) 
OPLS3e

>  <r_lp_Energy>  (371) 
81.9795

>  <b_lp_Chiralities_Consistent>  (371) 
1

>  <s_lp_Variant>  (371) 
103:0-1

>  <s_i_glide_gridfile>  (371) 
pfpi4k_grid

>  <i_i_glide_lignum>  (371) 
19

>  <i_i_glide_rotatable_bonds>  (371) 
5

>  <r_i_docking_score>  (371) 
-2.76996

>  <r_i_glide_ligand_efficiency>  (371) 
-0.106537

>  <r_i_glide_ligand_efficiency_sa>  (371) 
-0.315616

>  <r_i_glide_ligand_efficiency_ln>  (371) 
-0.650517

>  <r_i_glide_gscore>  (371) 
-2.76996

>  <r_i_glide_lipo>  (371) 
-0.0102851

>  <r_i_glide_hbond>  (371) 
-0.2

>  <r_i_glide_metal>  (371) 
-0

>  <r_i_glide_rewards>  (371) 
-0.978556

>  <r_i_glide_evdw>  (371) 
-19.5542

>  <r_i_glide_ecoul>  (371) 
-5.54508

>  <r_i_glide_erotb>  (371) 
0.301122

>  <r_i_glide_esite>  (371) 
-0.0727726

>  <r_i_glide_emodel>  (371) 
-30.2489

>  <r_i_glide_energy>  (371) 
-25.0993

>  <r_i_glide_einternal>  (371) 
1.10167

>  <r_i_glide_intrahb_reward>  (371) 
-0

>  <i_i_glide_confnum>  (371) 
3

>  <i_i_glide_posenum>  (371) 
37

>  <r_i_glide_eff_state_penalty>  (371) 
0

>  <ligand_id>  (371) 
103

>  <original_smiles>  (371) 
CCC1CCC2(O)C3Cc4ccc(O)c5c4C2(CCN3CC2CC2)C1O5

>  <smiles>  (371) 
[H]Oc1c([H])c([H])c2c3c1OC1([H])C([H])(C([H])([H])C([H])([H])[H])C([H])([H])C([H])([H])C4(O[H])C31C([H])([H])C([H])([H])[N+]([H])(C([H])([H])C1([H])C([H])([H])C1([H])[H])C4([H])C2([H])[H]

$$$$
103:1:0
     RDKit          3D

 55 60  0  0  1  0  0  0  0  0999 V2000
    0.6798    7.7923    5.3194 C   0  0  0  0  0  0  0  0  0  0  0  0
    0.4936    6.2832    5.0687 C   0  0  0  0  0  0  0  0  0  0  0  0
    1.0142    5.3691    6.2097 C   0  0  2  0  0  0  0  0  0  0  0  0
    2.5645    5.4269    6.4093 C   0  0  0  0  0  0  0  0  0  0  0  0
    3.3838    4.1459    6.0825 C   0  0  0  0  0  0  0  0  0  0  0  0
    2.7104    3.2587    5.0159 C   0  0  1  0  0  0  0  0  0  0  0  0
    2.6273    4.1121    3.8811 O   0  0  0  0  0  0  0  0  0  0  0  0
    3.3926    1.9460    4.4792 C   0  0  2  0  0  0  0  0  0  0  0  0
    2.5556    1.3236    3.3181 C   0  0  0  0  0  0  0  0  0  0  0  0
    1.0302    1.5301    3.3531 C   0  0  0  0  0  0  0  0  0  0  0  0
    0.0922    1.1830    2.3645 C   0  0  0  0  0  0  0  0  0  0  0  0
   -1.2446    1.6415    2.4759 C   0  0  0  0  0  0  0  0  0  0  0  0
   -1.6419    2.5132    3.5198 C   0  0  0  0  0  0  0  0  0  0  0  0
   -2.9160    2.9938    3.5604 O   0  0  0  0  0  0  0  0  0  0  0  0
   -0.7146    2.8848    4.5135 C   0  0  0  0  0  0  0  0  0  0  0  0
    0.5437    2.3197    4.4115 C   0  0  0  0  0  0  0  0  0  0  0  0
    1.3458    2.8137    5.5667 C   0  0  1  0  0  0  0  0  0  0  0  0
    1.5461    1.7045    6.6526 C   0  0  0  0  0  0  0  0  0  0  0  0
    2.3835    0.5174    6.1694 C   0  0  0  0  0  0  0  0  0  0  0  0
    3.6150    0.9067    5.4902 N   0  0  0  0  0  0  0  0  0  0  0  0
    4.7800    1.1031    6.3421 C   0  0  0  0  0  0  0  0  0  0  0  0
    6.0516    0.5237    5.7496 C   0  0  0  0  0  0  0  0  0  0  0  0
    7.2172    0.2186    6.6694 C   0  0  0  0  0  0  0  0  0  0  0  0
    7.3181    1.3530    5.6854 C   0  0  0  0  0  0  0  0  0  0  0  0
    0.4313    3.9210    6.1842 C   0  0  2  0  0  0  0  0  0  0  0  0
   -0.8556    3.7835    5.5406 O   0  0  0  0  0  0  0  0  0  0  0  0
    0.2220    8.3755    4.5188 H   0  0  0  0  0  0  0  0  0  0  0  0
    1.7311    8.0763    5.3511 H   0  0  0  0  0  0  0  0  0  0  0  0
    0.2205    8.1107    6.2569 H   0  0  0  0  0  0  0  0  0  0  0  0
   -0.5745    6.1223    4.9461 H   0  0  0  0  0  0  0  0  0  0  0  0
    0.9422    6.0212    4.1105 H   0  0  0  0  0  0  0  0  0  0  0  0
    0.5903    5.8175    7.1069 H   0  0  0  0  0  0  0  0  0  0  0  0
    2.9731    6.2293    5.7975 H   0  0  0  0  0  0  0  0  0  0  0  0
    2.7848    5.7182    7.4412 H   0  0  0  0  0  0  0  0  0  0  0  0
    4.3912    4.4210    5.7685 H   0  0  0  0  0  0  0  0  0  0  0  0
    3.4953    3.5973    7.0143 H   0  0  0  0  0  0  0  0  0  0  0  0
    2.0873    3.6841    3.2289 H   0  0  0  0  0  0  0  0  0  0  0  0
    4.3669    2.2033    4.0747 H   0  0  0  0  0  0  0  0  0  0  0  0
    2.8973    1.7706    2.3881 H   0  0  0  0  0  0  0  0  0  0  0  0
    2.7659    0.2550    3.2244 H   0  0  0  0  0  0  0  0  0  0  0  0
    0.3916    0.6050    1.5010 H   0  0  0  0  0  0  0  0  0  0  0  0
   -1.9464    1.3609    1.7053 H   0  0  0  0  0  0  0  0  0  0  0  0
   -3.4492    2.6109    2.8805 H   0  0  0  0  0  0  0  0  0  0  0  0
    2.0346    2.1231    7.5328 H   0  0  0  0  0  0  0  0  0  0  0  0
    0.5849    1.3370    7.0162 H   0  0  0  0  0  0  0  0  0  0  0  0
    2.6081   -0.1557    6.9980 H   0  0  0  0  0  0  0  0  0  0  0  0
    1.7686   -0.0676    5.4853 H   0  0  0  0  0  0  0  0  0  0  0  0
    4.9568    2.1599    6.5275 H   0  0  0  0  0  0  0  0  0  0  0  0
    4.6214    0.6355    7.3134 H   0  0  0  0  0  0  0  0  0  0  0  0
    5.8957   -0.1981    4.9450 H   0  0  0  0  0  0  0  0  0  0  0  0
    7.0919    0.4642    7.7235 H   0  0  0  0  0  0  0  0  0  0  0  0
    7.8016   -0.6773    6.4668 H   0  0  0  0  0  0  0  0  0  0  0  0
    7.9627    1.2150    4.8187 H   0  0  0  0  0  0  0  0  0  0  0  0
    7.2627    2.3701    6.0722 H   0  0  0  0  0  0  0  0  0  0  0  0
    0.2458    3.6720    7.2314 H   0  0  0  0  0  0  0  0  0  0  0  0
  1  2  1  0
  1 27  1  0
  1 28  1  0
  1 29  1  0
  2  3  1  0
  2 30  1  0
  2 31  1  0
  3 25  1  0
  3  4  1  0
  3 32  1  1
  4  5  1  0
  4 33  1  0
  4 34  1  0
  5  6  1  0
  5 35  1  0
  5 36  1  0
  6 17  1  0
  6  7  1  6
  6  8  1  0
  7 37  1  0
  8 20  1  0
  8  9  1  0
  8 38  1  6
  9 10  1  0
  9 39  1  0
  9 40  1  0
 10 16  2  0
 10 11  1  0
 11 12  2  0
 11 41  1  0
 12 13  1  0
 12 42  1  0
 13 14  1  0
 13 15  2  0
 14 43  1  0
 15 26  1  0
 15 16  1  0
 16 17  1  0
 17 18  1  1
 17 25  1  0
 18 19  1  0
 18 44  1  0
 18 45  1  0
 19 20  1  0
 19 46  1  0
 19 47  1  0
 20 21  1  0
 21 22  1  0
 21 48  1  0
 21 49  1  0
 22 24  1  0
 22 23  1  0
 22 50  1  0
 23 24  1  0
 23 51  1  0
 23 52  1  0
 24 53  1  0
 24 54  1  0
 25 26  1  0
 25 55  1  1
M  END
>  <i_m_ct_stereo_status>  (372) 
1

>  <s_m_source_file>  (372) 
/var/tmp/pbs.5076255.sched01/tmpxmhsyh4a/135ajud44o5.sdf

>  <i_m_source_file_index>  (372) 
20

>  <i_lp_mmshare_version>  (372) 
48012

>  <i_f3d_flags>  (372) 
0

>  <s_epik_input>  (372) 
W0NIM11bQ0gyXVtDQEhdKFtDSDJdW0NIMl0xKVtDQEhdMk9jKGMoW09IXSlbY0hdW2NIXTMpYzRjM1tDSDJdW0NAQEhdKFtDQF0xKFtDQEBdMjQ1KVtPSF0pTihbQ0gyXVtDSDJdNSlbQ0gyXVtDSF02W0NIMl1bQ0gyXTY=

>  <s_epik_cmdline>  (372) 
J2VwaWtfcHl0aG9uJywgJy1waHQnLCAnMi4wJywgJy1waCcsICc3LjAnLCAnLXRuJywgJzgnLCAnLW1hJywgJzIwMCcsICctaW1hZScsICc8aW5maWxlLm1hZT4nLCAnLW9tYWUnLCAnPG91dGZpbGUubWFlPic=

>  <r_lp_tautomer_probability>  (372) 
1

>  <r_epik_Ionization_Penalty>  (372) 
1.98321

>  <r_epik_Ionization_Penalty_Charging>  (372) 
0

>  <r_epik_Ionization_Penalty_Neutral>  (372) 
1.98321

>  <r_epik_State_Penalty>  (372) 
2.11803

>  <r_epik_Charging_Adjusted_Penalty>  (372) 
2.11803

>  <i_epik_Tot_Q>  (372) 
0

>  <i_epik_Tot_abs_Q>  (372) 
0

>  <s_lp_Force_Field>  (372) 
OPLS3e

>  <r_lp_Energy>  (372) 
85.3489

>  <b_lp_Chiralities_Consistent>  (372) 
1

>  <s_lp_Variant>  (372) 
103:0-2

>  <s_i_glide_gridfile>  (372) 
pfpi4k_grid

>  <i_i_glide_lignum>  (372) 
20

>  <i_i_glide_rotatable_bonds>  (372) 
5

>  <r_i_docking_score>  (372) 
-2.40545

>  <r_i_glide_ligand_efficiency>  (372) 
-0.0925172

>  <r_i_glide_ligand_efficiency_sa>  (372) 
-0.274082

>  <r_i_glide_ligand_efficiency_ln>  (372) 
-0.564911

>  <r_i_glide_gscore>  (372) 
-2.40545

>  <r_i_glide_lipo>  (372) 
-0.292454

>  <r_i_glide_hbond>  (372) 
0

>  <r_i_glide_metal>  (372) 
-0

>  <r_i_glide_rewards>  (372) 
-0.985428

>  <r_i_glide_evdw>  (372) 
-20.384

>  <r_i_glide_ecoul>  (372) 
-2.74007

>  <r_i_glide_erotb>  (372) 
0.302644

>  <r_i_glide_esite>  (372) 
0

>  <r_i_glide_emodel>  (372) 
-24.5232

>  <r_i_glide_energy>  (372) 
-23.124

>  <r_i_glide_einternal>  (372) 
4.08501

>  <r_i_glide_intrahb_reward>  (372) 
-0

>  <i_i_glide_confnum>  (372) 
2

>  <i_i_glide_posenum>  (372) 
32

>  <r_i_glide_eff_state_penalty>  (372) 
0

>  <ligand_id>  (372) 
103

>  <original_smiles>  (372) 
CCC1CCC2(O)C3Cc4ccc(O)c5c4C2(CCN3CC2CC2)C1O5

>  <smiles>  (372) 
[H]Oc1c([H])c([H])c2c3c1OC1([H])C([H])(C([H])([H])C([H])([H])[H])C([H])([H])C([H])([H])C4(O[H])C([H])(N(C([H])([H])C5([H])C([H])([H])C5([H])[H])C([H])([H])C([H])([H])C314)C2([H])[H]

$$$$
103:1:1
     RDKit          3D

 55 60  0  0  1  0  0  0  0  0999 V2000
    0.5434    7.9182    5.3009 C   0  0  0  0  0  0  0  0  0  0  0  0
    0.4744    6.4022    5.0346 C   0  0  0  0  0  0  0  0  0  0  0  0
    1.0248    5.5220    6.1887 C   0  0  2  0  0  0  0  0  0  0  0  0
    2.5768    5.6226    6.3714 C   0  0  0  0  0  0  0  0  0  0  0  0
    3.4242    4.3537    6.0642 C   0  0  0  0  0  0  0  0  0  0  0  0
    2.7577    3.4296    5.0254 C   0  0  1  0  0  0  0  0  0  0  0  0
    2.6442    4.2568    3.8728 O   0  0  0  0  0  0  0  0  0  0  0  0
    3.4607    2.1222    4.5133 C   0  0  2  0  0  0  0  0  0  0  0  0
    2.6356    1.4586    3.3664 C   0  0  0  0  0  0  0  0  0  0  0  0
    1.1078    1.6285    3.4054 C   0  0  0  0  0  0  0  0  0  0  0  0
    0.1720    1.2389    2.4317 C   0  0  0  0  0  0  0  0  0  0  0  0
   -1.1751    1.6701    2.5384 C   0  0  0  0  0  0  0  0  0  0  0  0
   -1.5844    2.5481    3.5748 C   0  0  0  0  0  0  0  0  0  0  0  0
   -2.8681    3.0042    3.6163 O   0  0  0  0  0  0  0  0  0  0  0  0
   -0.6610    2.9609    4.5571 C   0  0  0  0  0  0  0  0  0  0  0  0
    0.6089    2.4278    4.4535 C   0  0  0  0  0  0  0  0  0  0  0  0
    1.4088    2.9632    5.5917 C   0  0  1  0  0  0  0  0  0  0  0  0
    1.6421    1.8803    6.6956 C   0  0  0  0  0  0  0  0  0  0  0  0
    2.4903    0.6984    6.2214 C   0  0  0  0  0  0  0  0  0  0  0  0
    3.7196    1.0984    5.5341 N   0  0  0  0  0  0  0  0  0  0  0  0
    4.8899    1.3363    6.3737 C   0  0  0  0  0  0  0  0  0  0  0  0
    5.4013    0.1027    7.0994 C   0  0  0  0  0  0  0  0  0  0  0  0
    6.7086    0.1630    7.8540 C   0  0  0  0  0  0  0  0  0  0  0  0
    6.6122   -0.6409    6.5813 C   0  0  0  0  0  0  0  0  0  0  0  0
    0.4741    4.0594    6.1973 C   0  0  2  0  0  0  0  0  0  0  0  0
   -0.8160    3.8744    5.5699 O   0  0  0  0  0  0  0  0  0  0  0  0
    0.0688    8.4732    4.4896 H   0  0  0  0  0  0  0  0  0  0  0  0
    1.5716    8.2709    5.3666 H   0  0  0  0  0  0  0  0  0  0  0  0
    0.0383    8.1937    6.2284 H   0  0  0  0  0  0  0  0  0  0  0  0
   -0.5721    6.1634    4.8708 H   0  0  0  0  0  0  0  0  0  0  0  0
    0.9740    6.1787    4.0909 H   0  0  0  0  0  0  0  0  0  0  0  0
    0.5973    5.9732    7.0836 H   0  0  0  0  0  0  0  0  0  0  0  0
    2.9543    6.4281    5.7429 H   0  0  0  0  0  0  0  0  0  0  0  0
    2.7978    5.9376    7.3962 H   0  0  0  0  0  0  0  0  0  0  0  0
    4.4263    4.6365    5.7413 H   0  0  0  0  0  0  0  0  0  0  0  0
    3.5493    3.8360    7.0093 H   0  0  0  0  0  0  0  0  0  0  0  0
    2.1155    3.7973    3.2326 H   0  0  0  0  0  0  0  0  0  0  0  0
    4.4212    2.3993    4.0869 H   0  0  0  0  0  0  0  0  0  0  0  0
    2.9624    1.8902    2.4233 H   0  0  0  0  0  0  0  0  0  0  0  0
    2.8697    0.3936    3.2949 H   0  0  0  0  0  0  0  0  0  0  0  0
    0.4811    0.6490    1.5798 H   0  0  0  0  0  0  0  0  0  0  0  0
   -1.8753    1.3589    1.7811 H   0  0  0  0  0  0  0  0  0  0  0  0
   -3.3947    2.6136    2.9356 H   0  0  0  0  0  0  0  0  0  0  0  0
    2.1342    2.3227    7.5623 H   0  0  0  0  0  0  0  0  0  0  0  0
    0.6941    1.5007    7.0782 H   0  0  0  0  0  0  0  0  0  0  0  0
    2.6980    0.0503    7.0707 H   0  0  0  0  0  0  0  0  0  0  0  0
    1.8858    0.0954    5.5423 H   0  0  0  0  0  0  0  0  0  0  0  0
    5.7079    1.7075    5.7519 H   0  0  0  0  0  0  0  0  0  0  0  0
    4.6893    2.1063    7.1119 H   0  0  0  0  0  0  0  0  0  0  0  0
    4.6382   -0.5065    7.5835 H   0  0  0  0  0  0  0  0  0  0  0  0
    7.2489    1.1090    7.8312 H   0  0  0  0  0  0  0  0  0  0  0  0
    6.7475   -0.3822    8.7950 H   0  0  0  0  0  0  0  0  0  0  0  0
    6.5847   -1.7260    6.6629 H   0  0  0  0  0  0  0  0  0  0  0  0
    7.0853   -0.2469    5.6816 H   0  0  0  0  0  0  0  0  0  0  0  0
    0.3038    3.8263    7.2514 H   0  0  0  0  0  0  0  0  0  0  0  0
  1  2  1  0
  1 27  1  0
  1 28  1  0
  1 29  1  0
  2  3  1  0
  2 30  1  0
  2 31  1  0
  3 25  1  0
  3  4  1  0
  3 32  1  1
  4  5  1  0
  4 33  1  0
  4 34  1  0
  5  6  1  0
  5 35  1  0
  5 36  1  0
  6 17  1  0
  6  7  1  6
  6  8  1  0
  7 37  1  0
  8 20  1  0
  8  9  1  0
  8 38  1  6
  9 10  1  0
  9 39  1  0
  9 40  1  0
 10 16  2  0
 10 11  1  0
 11 12  2  0
 11 41  1  0
 12 13  1  0
 12 42  1  0
 13 14  1  0
 13 15  2  0
 14 43  1  0
 15 26  1  0
 15 16  1  0
 16 17  1  0
 17 18  1  1
 17 25  1  0
 18 19  1  0
 18 44  1  0
 18 45  1  0
 19 20  1  0
 19 46  1  0
 19 47  1  0
 20 21  1  0
 21 22  1  0
 21 48  1  0
 21 49  1  0
 22 24  1  0
 22 23  1  0
 22 50  1  0
 23 24  1  0
 23 51  1  0
 23 52  1  0
 24 53  1  0
 24 54  1  0
 25 26  1  0
 25 55  1  1
M  END
>  <i_m_ct_stereo_status>  (373) 
1

>  <s_m_source_file>  (373) 
/var/tmp/pbs.5076255.sched01/tmpxmhsyh4a/135ajud44o5.sdf

>  <i_m_source_file_index>  (373) 
20

>  <i_lp_mmshare_version>  (373) 
48012

>  <i_f3d_flags>  (373) 
0

>  <s_epik_input>  (373) 
W0NIM11bQ0gyXVtDQEhdKFtDSDJdW0NIMl0xKVtDQEhdMk9jKGMoW09IXSlbY0hdW2NIXTMpYzRjM1tDSDJdW0NAQEhdKFtDQF0xKFtDQEBdMjQ1KVtPSF0pTihbQ0gyXVtDSDJdNSlbQ0gyXVtDSF02W0NIMl1bQ0gyXTY=

>  <s_epik_cmdline>  (373) 
J2VwaWtfcHl0aG9uJywgJy1waHQnLCAnMi4wJywgJy1waCcsICc3LjAnLCAnLXRuJywgJzgnLCAnLW1hJywgJzIwMCcsICctaW1hZScsICc8aW5maWxlLm1hZT4nLCAnLW9tYWUnLCAnPG91dGZpbGUubWFlPic=

>  <r_lp_tautomer_probability>  (373) 
1

>  <r_epik_Ionization_Penalty>  (373) 
1.98321

>  <r_epik_Ionization_Penalty_Charging>  (373) 
0

>  <r_epik_Ionization_Penalty_Neutral>  (373) 
1.98321

>  <r_epik_State_Penalty>  (373) 
2.11803

>  <r_epik_Charging_Adjusted_Penalty>  (373) 
2.11803

>  <i_epik_Tot_Q>  (373) 
0

>  <i_epik_Tot_abs_Q>  (373) 
0

>  <s_lp_Force_Field>  (373) 
OPLS3e

>  <r_lp_Energy>  (373) 
85.3489

>  <b_lp_Chiralities_Consistent>  (373) 
1

>  <s_lp_Variant>  (373) 
103:0-2

>  <s_i_glide_gridfile>  (373) 
pfpi4k_grid

>  <i_i_glide_lignum>  (373) 
20

>  <i_i_glide_rotatable_bonds>  (373) 
5

>  <r_i_docking_score>  (373) 
-2.13107

>  <r_i_glide_ligand_efficiency>  (373) 
-0.0819644

>  <r_i_glide_ligand_efficiency_sa>  (373) 
-0.242819

>  <r_i_glide_ligand_efficiency_ln>  (373) 
-0.500476

>  <r_i_glide_gscore>  (373) 
-2.13107

>  <r_i_glide_lipo>  (373) 
-0.0953311

>  <r_i_glide_hbond>  (373) 
0

>  <r_i_glide_metal>  (373) 
-0

>  <r_i_glide_rewards>  (373) 
-0.985428

>  <r_i_glide_evdw>  (373) 
-18.5526

>  <r_i_glide_ecoul>  (373) 
-2.83551

>  <r_i_glide_erotb>  (373) 
0.302644

>  <r_i_glide_esite>  (373) 
0

>  <r_i_glide_emodel>  (373) 
-24.212

>  <r_i_glide_energy>  (373) 
-21.3881

>  <r_i_glide_einternal>  (373) 
0.371437

>  <r_i_glide_intrahb_reward>  (373) 
-0

>  <i_i_glide_confnum>  (373) 
2

>  <i_i_glide_posenum>  (373) 
1

>  <r_i_glide_eff_state_penalty>  (373) 
0

>  <ligand_id>  (373) 
103

>  <original_smiles>  (373) 
CCC1CCC2(O)C3Cc4ccc(O)c5c4C2(CCN3CC2CC2)C1O5

>  <smiles>  (373) 
[H]Oc1c([H])c([H])c2c3c1OC1([H])C([H])(C([H])([H])C([H])([H])[H])C([H])([H])C([H])([H])C4(O[H])C([H])(N(C([H])([H])C5([H])C([H])([H])C5([H])[H])C([H])([H])C([H])([H])C314)C2([H])[H]

$$$$
103:1:2
     RDKit          3D

 55 60  0  0  1  0  0  0  0  0999 V2000
    2.1229    0.8795    9.7202 C   0  0  0  0  0  0  0  0  0  0  0  0
    1.3861    1.1013    8.3848 C   0  0  0  0  0  0  0  0  0  0  0  0
    1.4806   -0.0852    7.3884 C   0  0  2  0  0  0  0  0  0  0  0  0
    2.9375   -0.3831    6.8949 C   0  0  0  0  0  0  0  0  0  0  0  0
    3.2599   -0.1343    5.3940 C   0  0  0  0  0  0  0  0  0  0  0  0
    2.3706    0.9563    4.7675 C   0  0  1  0  0  0  0  0  0  0  0  0
    2.6626    2.1090    5.5467 O   0  0  0  0  0  0  0  0  0  0  0  0
    2.5676    1.4329    3.2849 C   0  0  2  0  0  0  0  0  0  0  0  0
    1.6275    2.6339    2.9546 C   0  0  0  0  0  0  0  0  0  0  0  0
    0.2853    2.7045    3.7041 C   0  0  0  0  0  0  0  0  0  0  0  0
   -0.6589    3.7469    3.6794 C   0  0  0  0  0  0  0  0  0  0  0  0
   -1.7525    3.7349    4.5816 C   0  0  0  0  0  0  0  0  0  0  0  0
   -1.8640    2.7325    5.5722 C   0  0  0  0  0  0  0  0  0  0  0  0
   -2.8590    2.8107    6.5004 O   0  0  0  0  0  0  0  0  0  0  0  0
   -0.9329    1.6729    5.6192 C   0  0  0  0  0  0  0  0  0  0  0  0
    0.0472    1.6867    4.6452 C   0  0  0  0  0  0  0  0  0  0  0  0
    0.9095    0.4896    4.8597 C   0  0  1  0  0  0  0  0  0  0  0  0
    0.6391   -0.6173    3.7868 C   0  0  0  0  0  0  0  0  0  0  0  0
    1.0201   -0.1981    2.3601 C   0  0  0  0  0  0  0  0  0  0  0  0
    2.3512    0.4064    2.2619 N   0  0  0  0  0  0  0  0  0  0  0  0
    3.4567   -0.5194    2.0638 C   0  0  0  0  0  0  0  0  0  0  0  0
    3.3678   -1.3069    0.7754 C   0  0  0  0  0  0  0  0  0  0  0  0
    2.9158   -2.7502    0.8016 C   0  0  0  0  0  0  0  0  0  0  0  0
    4.3566   -2.4190    0.5063 C   0  0  0  0  0  0  0  0  0  0  0  0
    0.4169   -0.0470    6.2440 C   0  0  2  0  0  0  0  0  0  0  0  0
   -0.8029    0.6708    6.5497 O   0  0  0  0  0  0  0  0  0  0  0  0
    1.9423    1.7124   10.4016 H   0  0  0  0  0  0  0  0  0  0  0  0
    3.2022    0.8044    9.5907 H   0  0  0  0  0  0  0  0  0  0  0  0
    1.7835   -0.0266   10.2253 H   0  0  0  0  0  0  0  0  0  0  0  0
    0.3419    1.2741    8.6411 H   0  0  0  0  0  0  0  0  0  0  0  0
    1.7348    2.0275    7.9301 H   0  0  0  0  0  0  0  0  0  0  0  0
    1.1997   -0.9460    7.9938 H   0  0  0  0  0  0  0  0  0  0  0  0
    3.6438    0.2085    7.4750 H   0  0  0  0  0  0  0  0  0  0  0  0
    3.1871   -1.4231    7.1261 H   0  0  0  0  0  0  0  0  0  0  0  0
    4.3151    0.1108    5.2688 H   0  0  0  0  0  0  0  0  0  0  0  0
    3.1105   -1.0835    4.8903 H   0  0  0  0  0  0  0  0  0  0  0  0
    2.1227    2.8149    5.2179 H   0  0  0  0  0  0  0  0  0  0  0  0
    3.5884    1.7945    3.1765 H   0  0  0  0  0  0  0  0  0  0  0  0
    2.1540    3.5533    3.1955 H   0  0  0  0  0  0  0  0  0  0  0  0
    1.4372    2.6885    1.8799 H   0  0  0  0  0  0  0  0  0  0  0  0
   -0.5384    4.5602    2.9787 H   0  0  0  0  0  0  0  0  0  0  0  0
   -2.4776    4.5278    4.5473 H   0  0  0  0  0  0  0  0  0  0  0  0
   -2.7578    2.1522    7.1686 H   0  0  0  0  0  0  0  0  0  0  0  0
    1.1946   -1.5226    4.0319 H   0  0  0  0  0  0  0  0  0  0  0  0
   -0.4075   -0.9237    3.7997 H   0  0  0  0  0  0  0  0  0  0  0  0
    0.9349   -1.0516    1.6878 H   0  0  0  0  0  0  0  0  0  0  0  0
    0.2752    0.5146    2.0037 H   0  0  0  0  0  0  0  0  0  0  0  0
    4.3921    0.0410    2.0248 H   0  0  0  0  0  0  0  0  0  0  0  0
    3.5373   -1.2203    2.8888 H   0  0  0  0  0  0  0  0  0  0  0  0
    3.0702   -0.7175   -0.0935 H   0  0  0  0  0  0  0  0  0  0  0  0
    2.6682   -3.1664    1.7777 H   0  0  0  0  0  0  0  0  0  0  0  0
    2.2907   -3.0843   -0.0243 H   0  0  0  0  0  0  0  0  0  0  0  0
    4.6978   -2.5513   -0.5186 H   0  0  0  0  0  0  0  0  0  0  0  0
    5.0973   -2.6193    1.2793 H   0  0  0  0  0  0  0  0  0  0  0  0
    0.0967   -1.0831    6.1167 H   0  0  0  0  0  0  0  0  0  0  0  0
  1  2  1  0
  1 27  1  0
  1 28  1  0
  1 29  1  0
  2  3  1  0
  2 30  1  0
  2 31  1  0
  3 25  1  0
  3  4  1  0
  3 32  1  1
  4  5  1  0
  4 33  1  0
  4 34  1  0
  5  6  1  0
  5 35  1  0
  5 36  1  0
  6 17  1  0
  6  7  1  1
  6  8  1  0
  7 37  1  0
  8 20  1  0
  8  9  1  0
  8 38  1  1
  9 10  1  0
  9 39  1  0
  9 40  1  0
 10 16  2  0
 10 11  1  0
 11 12  2  0
 11 41  1  0
 12 13  1  0
 12 42  1  0
 13 14  1  0
 13 15  2  0
 14 43  1  0
 15 26  1  0
 15 16  1  0
 16 17  1  0
 17 18  1  6
 17 25  1  0
 18 19  1  0
 18 44  1  0
 18 45  1  0
 19 20  1  0
 19 46  1  0
 19 47  1  0
 20 21  1  0
 21 22  1  0
 21 48  1  0
 21 49  1  0
 22 24  1  0
 22 23  1  0
 22 50  1  0
 23 24  1  0
 23 51  1  0
 23 52  1  0
 24 53  1  0
 24 54  1  0
 25 26  1  0
 25 55  1  6
M  END
>  <i_m_ct_stereo_status>  (374) 
1

>  <s_m_source_file>  (374) 
/var/tmp/pbs.5076255.sched01/tmpxmhsyh4a/135ajud44o5.sdf

>  <i_m_source_file_index>  (374) 
20

>  <i_lp_mmshare_version>  (374) 
48012

>  <i_f3d_flags>  (374) 
0

>  <s_epik_input>  (374) 
W0NIM11bQ0gyXVtDQEhdKFtDSDJdW0NIMl0xKVtDQEhdMk9jKGMoW09IXSlbY0hdW2NIXTMpYzRjM1tDSDJdW0NAQEhdKFtDQF0xKFtDQEBdMjQ1KVtPSF0pTihbQ0gyXVtDSDJdNSlbQ0gyXVtDSF02W0NIMl1bQ0gyXTY=

>  <s_epik_cmdline>  (374) 
J2VwaWtfcHl0aG9uJywgJy1waHQnLCAnMi4wJywgJy1waCcsICc3LjAnLCAnLXRuJywgJzgnLCAnLW1hJywgJzIwMCcsICctaW1hZScsICc8aW5maWxlLm1hZT4nLCAnLW9tYWUnLCAnPG91dGZpbGUubWFlPic=

>  <r_lp_tautomer_probability>  (374) 
1

>  <r_epik_Ionization_Penalty>  (374) 
1.98321

>  <r_epik_Ionization_Penalty_Charging>  (374) 
0

>  <r_epik_Ionization_Penalty_Neutral>  (374) 
1.98321

>  <r_epik_State_Penalty>  (374) 
2.11803

>  <r_epik_Charging_Adjusted_Penalty>  (374) 
2.11803

>  <i_epik_Tot_Q>  (374) 
0

>  <i_epik_Tot_abs_Q>  (374) 
0

>  <s_lp_Force_Field>  (374) 
OPLS3e

>  <r_lp_Energy>  (374) 
85.3489

>  <b_lp_Chiralities_Consistent>  (374) 
1

>  <s_lp_Variant>  (374) 
103:0-2

>  <s_i_glide_gridfile>  (374) 
pfpi4k_grid

>  <i_i_glide_lignum>  (374) 
20

>  <i_i_glide_rotatable_bonds>  (374) 
5

>  <r_i_docking_score>  (374) 
-1.87352

>  <r_i_glide_ligand_efficiency>  (374) 
-0.0720586

>  <r_i_glide_ligand_efficiency_sa>  (374) 
-0.213473

>  <r_i_glide_ligand_efficiency_ln>  (374) 
-0.439991

>  <r_i_glide_gscore>  (374) 
-1.87352

>  <r_i_glide_lipo>  (374) 
-0.0499204

>  <r_i_glide_hbond>  (374) 
0

>  <r_i_glide_metal>  (374) 
-0

>  <r_i_glide_rewards>  (374) 
-0.985428

>  <r_i_glide_evdw>  (374) 
-18.5441

>  <r_i_glide_ecoul>  (374) 
-1.4241

>  <r_i_glide_erotb>  (374) 
0.302644

>  <r_i_glide_esite>  (374) 
0

>  <r_i_glide_emodel>  (374) 
-22.5367

>  <r_i_glide_energy>  (374) 
-19.9682

>  <r_i_glide_einternal>  (374) 
0.159895

>  <r_i_glide_intrahb_reward>  (374) 
-0

>  <i_i_glide_confnum>  (374) 
1

>  <i_i_glide_posenum>  (374) 
2

>  <r_i_glide_eff_state_penalty>  (374) 
0

>  <ligand_id>  (374) 
103

>  <original_smiles>  (374) 
CCC1CCC2(O)C3Cc4ccc(O)c5c4C2(CCN3CC2CC2)C1O5

>  <smiles>  (374) 
[H]Oc1c([H])c([H])c2c3c1OC1([H])C([H])(C([H])([H])C([H])([H])[H])C([H])([H])C([H])([H])C4(O[H])C([H])(N(C([H])([H])C5([H])C([H])([H])C5([H])[H])C([H])([H])C([H])([H])C314)C2([H])[H]

$$$$
103:2:0
     RDKit          3D

 55 60  0  0  1  0  0  0  0  0999 V2000
    4.3499    1.0105    8.4715 C   0  0  0  0  0  0  0  0  0  0  0  0
    3.2328    0.7916    7.4308 C   0  0  0  0  0  0  0  0  0  0  0  0
    3.4895   -0.3742    6.4406 C   0  0  2  0  0  0  0  0  0  0  0  0
    4.7425   -0.1640    5.5260 C   0  0  0  0  0  0  0  0  0  0  0  0
    4.4964    0.0052    4.0031 C   0  0  0  0  0  0  0  0  0  0  0  0
    3.1110    0.6129    3.6796 C   0  0  1  0  0  0  0  0  0  0  0  0
    3.1296    1.8671    4.3496 O   0  0  0  0  0  0  0  0  0  0  0  0
    2.6771    0.9466    2.2027 C   0  0  2  0  0  0  0  0  0  0  0  0
    1.2857    1.6677    2.1851 C   0  0  0  0  0  0  0  0  0  0  0  0
    0.2835    1.2956    3.2919 C   0  0  0  0  0  0  0  0  0  0  0  0
   -0.9662    1.9001    3.5392 C   0  0  0  0  0  0  0  0  0  0  0  0
   -1.6467    1.6015    4.7420 C   0  0  0  0  0  0  0  0  0  0  0  0
   -1.0905    0.7419    5.7200 C   0  0  0  0  0  0  0  0  0  0  0  0
   -1.7960    0.5401    6.8688 O   0  0  0  0  0  0  0  0  0  0  0  0
    0.1752    0.1400    5.5036 C   0  0  0  0  0  0  0  0  0  0  0  0
    0.7448    0.4071    4.2796 C   0  0  0  0  0  0  0  0  0  0  0  0
    2.0347   -0.3443    4.2231 C   0  0  1  0  0  0  0  0  0  0  0  0
    1.9048   -1.5942    3.2950 C   0  0  0  0  0  0  0  0  0  0  0  0
    1.6350   -1.2587    1.8318 C   0  0  0  0  0  0  0  0  0  0  0  0
    2.5824   -0.2497    1.3073 N   0  0  2  0  0  0  0  0  0  0  0  0
    3.8844   -0.7872    0.8253 C   0  0  0  0  0  0  0  0  0  0  0  0
    3.7424   -1.6126   -0.4434 C   0  0  0  0  0  0  0  0  0  0  0  0
    4.9801   -2.1735   -1.1081 C   0  0  0  0  0  0  0  0  0  0  0  0
    4.2013   -1.0678   -1.7722 C   0  0  0  0  0  0  0  0  0  0  0  0
    2.2159   -0.8606    5.6791 C   0  0  2  0  0  0  0  0  0  0  0  0
    0.9503   -0.6180    6.3439 O   0  0  0  0  0  0  0  0  0  0  0  0
    4.0715    1.7995    9.1718 H   0  0  0  0  0  0  0  0  0  0  0  0
    5.2917    1.3111    8.0143 H   0  0  0  0  0  0  0  0  0  0  0  0
    4.5361    0.1100    9.0588 H   0  0  0  0  0  0  0  0  0  0  0  0
    2.3234    0.5892    7.9964 H   0  0  0  0  0  0  0  0  0  0  0  0
    3.0455    1.7225    6.8978 H   0  0  0  0  0  0  0  0  0  0  0  0
    3.7505   -1.2039    7.0964 H   0  0  0  0  0  0  0  0  0  0  0  0
    5.2906    0.7167    5.8598 H   0  0  0  0  0  0  0  0  0  0  0  0
    5.4330   -1.0004    5.6648 H   0  0  0  0  0  0  0  0  0  0  0  0
    5.2980    0.5921    3.5527 H   0  0  0  0  0  0  0  0  0  0  0  0
    4.5818   -0.9972    3.6005 H   0  0  0  0  0  0  0  0  0  0  0  0
    3.6780    2.4671    3.8669 H   0  0  0  0  0  0  0  0  0  0  0  0
    3.4038    1.6311    1.7521 H   0  0  0  0  0  0  0  0  0  0  0  0
    1.4596    2.7351    2.2962 H   0  0  0  0  0  0  0  0  0  0  0  0
    0.7882    1.5555    1.2214 H   0  0  0  0  0  0  0  0  0  0  0  0
   -1.3746    2.6254    2.8455 H   0  0  0  0  0  0  0  0  0  0  0  0
   -2.5898    2.0734    4.9481 H   0  0  0  0  0  0  0  0  0  0  0  0
    2.8105   -2.2006    3.3401 H   0  0  0  0  0  0  0  0  0  0  0  0
    1.1095   -2.2523    3.6396 H   0  0  0  0  0  0  0  0  0  0  0  0
    1.6515   -2.1761    1.2485 H   0  0  0  0  0  0  0  0  0  0  0  0
    0.6194   -0.8734    1.7161 H   0  0  0  0  0  0  0  0  0  0  0  0
    4.5758    0.0394    0.6360 H   0  0  0  0  0  0  0  0  0  0  0  0
    4.3374   -1.4295    1.5713 H   0  0  0  0  0  0  0  0  0  0  0  0
    2.9001   -2.3039   -0.4679 H   0  0  0  0  0  0  0  0  0  0  0  0
    5.9475   -1.9337   -0.6703 H   0  0  0  0  0  0  0  0  0  0  0  0
    4.8967   -3.1653   -1.5482 H   0  0  0  0  0  0  0  0  0  0  0  0
    3.5697   -1.3196   -2.6205 H   0  0  0  0  0  0  0  0  0  0  0  0
    4.6249   -0.0670   -1.7734 H   0  0  0  0  0  0  0  0  0  0  0  0
    2.2989   -1.9489    5.6576 H   0  0  0  0  0  0  0  0  0  0  0  0
    2.1198    0.0732    0.4608 H   0  0  0  0  0  0  0  0  0  0  0  0
  1  2  1  0
  1 27  1  0
  1 28  1  0
  1 29  1  0
  2  3  1  0
  2 30  1  0
  2 31  1  0
  3 25  1  0
  3  4  1  0
  3 32  1  1
  4  5  1  0
  4 33  1  0
  4 34  1  0
  5  6  1  0
  5 35  1  0
  5 36  1  0
  6 17  1  0
  6  7  1  1
  6  8  1  0
  7 37  1  0
  8 20  1  0
  8  9  1  0
  8 38  1  6
  9 10  1  0
  9 39  1  0
  9 40  1  0
 10 16  2  0
 10 11  1  0
 11 12  2  0
 11 41  1  0
 12 13  1  0
 12 42  1  0
 13 14  1  0
 13 15  2  0
 15 26  1  0
 15 16  1  0
 16 17  1  0
 17 18  1  6
 17 25  1  0
 18 19  1  0
 18 43  1  0
 18 44  1  0
 19 20  1  0
 19 45  1  0
 19 46  1  0
 20 21  1  0
 20 55  1  6
 21 22  1  0
 21 47  1  0
 21 48  1  0
 22 24  1  0
 22 23  1  0
 22 49  1  0
 23 24  1  0
 23 50  1  0
 23 51  1  0
 24 52  1  0
 24 53  1  0
 25 26  1  0
 25 54  1  6
M  CHG  2  14  -1  20   1
M  END
>  <i_m_ct_stereo_status>  (375) 
1

>  <s_m_source_file>  (375) 
/var/tmp/pbs.5076255.sched01/tmpxmhsyh4a/135ajud44o5.sdf

>  <i_m_source_file_index>  (375) 
21

>  <i_lp_mmshare_version>  (375) 
48012

>  <i_f3d_flags>  (375) 
0

>  <s_epik_input>  (375) 
W0NIM11bQ0gyXVtDQEhdKFtDSDJdW0NIMl0xKVtDQEhdMk9jKGMoW09IXSlbY0hdW2NIXTMpYzRjM1tDSDJdW0NAQEhdKFtDQF0xKFtDQEBdMjQ1KVtPSF0pTihbQ0gyXVtDSDJdNSlbQ0gyXVtDSF02W0NIMl1bQ0gyXTY=

>  <s_epik_cmdline>  (375) 
J2VwaWtfcHl0aG9uJywgJy1waHQnLCAnMi4wJywgJy1waCcsICc3LjAnLCAnLXRuJywgJzgnLCAnLW1hJywgJzIwMCcsICctaW1hZScsICc8aW5maWxlLm1hZT4nLCAnLW9tYWUnLCAnPG91dGZpbGUubWFlPic=

>  <r_epik_Ionization_Penalty>  (375) 
2.39488

>  <r_epik_Ionization_Penalty_Charging>  (375) 
2.39488

>  <r_epik_Ionization_Penalty_Neutral>  (375) 
4.37926e-08

>  <r_epik_State_Penalty>  (375) 
2.54839

>  <r_epik_Charging_Adjusted_Penalty>  (375) 
4.94326

>  <i_epik_Tot_Q>  (375) 
0

>  <i_epik_Tot_abs_Q>  (375) 
2

>  <s_lp_Force_Field>  (375) 
OPLS3e

>  <r_lp_Energy>  (375) 
79.0333

>  <b_lp_Chiralities_Consistent>  (375) 
1

>  <s_lp_Variant>  (375) 
103:0-3

>  <s_i_glide_gridfile>  (375) 
pfpi4k_grid

>  <i_i_glide_lignum>  (375) 
21

>  <i_i_glide_rotatable_bonds>  (375) 
4

>  <r_i_docking_score>  (375) 
-3.59121

>  <r_i_glide_ligand_efficiency>  (375) 
-0.138123

>  <r_i_glide_ligand_efficiency_sa>  (375) 
-0.40919

>  <r_i_glide_ligand_efficiency_ln>  (375) 
-0.843384

>  <r_i_glide_gscore>  (375) 
-3.59121

>  <r_i_glide_lipo>  (375) 
-0.0805089

>  <r_i_glide_hbond>  (375) 
-0.284972

>  <r_i_glide_metal>  (375) 
-0

>  <r_i_glide_rewards>  (375) 
-1.28543

>  <r_i_glide_evdw>  (375) 
-18.2817

>  <r_i_glide_ecoul>  (375) 
-8.43444

>  <r_i_glide_erotb>  (375) 
0.302644

>  <r_i_glide_esite>  (375) 
-0.0636964

>  <r_i_glide_emodel>  (375) 
-36.7227

>  <r_i_glide_energy>  (375) 
-26.7161

>  <r_i_glide_einternal>  (375) 
0.468745

>  <r_i_glide_intrahb_reward>  (375) 
-0

>  <i_i_glide_confnum>  (375) 
6

>  <i_i_glide_posenum>  (375) 
10

>  <r_i_glide_eff_state_penalty>  (375) 
0

>  <ligand_id>  (375) 
103

>  <original_smiles>  (375) 
CCC1CCC2(O)C3Cc4ccc(O)c5c4C2(CCN3CC2CC2)C1O5

>  <smiles>  (375) 
[H]OC12C([H])([H])C([H])([H])C([H])(C([H])([H])C([H])([H])[H])C3([H])Oc4c([O-])c([H])c([H])c5c4C31C([H])([H])C([H])([H])[N+]([H])(C([H])([H])C1([H])C([H])([H])C1([H])[H])C2([H])C5([H])[H]

$$$$
103:2:1
     RDKit          3D

 55 60  0  0  1  0  0  0  0  0999 V2000
    4.1507    0.7797    8.3485 C   0  0  0  0  0  0  0  0  0  0  0  0
    3.0850    0.5169    7.2648 C   0  0  0  0  0  0  0  0  0  0  0  0
    3.4020   -0.6723    6.3186 C   0  0  2  0  0  0  0  0  0  0  0  0
    4.6900   -0.4690    5.4530 C   0  0  0  0  0  0  0  0  0  0  0  0
    4.5076   -0.3409    3.9172 C   0  0  0  0  0  0  0  0  0  0  0  0
    3.1330    0.2331    3.5177 C   0  0  1  0  0  0  0  0  0  0  0  0
    3.1295    1.5160    4.1287 O   0  0  0  0  0  0  0  0  0  0  0  0
    2.7617    0.5263    2.0192 C   0  0  2  0  0  0  0  0  0  0  0  0
    1.3595    1.2196    1.9122 C   0  0  0  0  0  0  0  0  0  0  0  0
    0.3233    0.8709    2.9854 C   0  0  0  0  0  0  0  0  0  0  0  0
   -0.9386    1.4689    3.1601 C   0  0  0  0  0  0  0  0  0  0  0  0
   -1.6530    1.1855    4.3400 C   0  0  0  0  0  0  0  0  0  0  0  0
   -1.1443    0.3479    5.3559 C   0  0  0  0  0  0  0  0  0  0  0  0
   -1.8972    0.1459    6.4711 O   0  0  0  0  0  0  0  0  0  0  0  0
    0.1412   -0.2352    5.2155 C   0  0  0  0  0  0  0  0  0  0  0  0
    0.7597    0.0106    4.0144 C   0  0  0  0  0  0  0  0  0  0  0  0
    2.0511   -0.7253    4.0390 C   0  0  1  0  0  0  0  0  0  0  0  0
    1.9797   -2.0052    3.1500 C   0  0  0  0  0  0  0  0  0  0  0  0
    1.7761   -1.7121    1.6703 C   0  0  0  0  0  0  0  0  0  0  0  0
    2.7254   -0.6951    1.1650 N   0  0  2  0  0  0  0  0  0  0  0  0
    4.0532   -1.2229    0.7544 C   0  0  0  0  0  0  0  0  0  0  0  0
    3.9929   -1.9782   -0.5622 C   0  0  0  0  0  0  0  0  0  0  0  0
    5.2791   -2.3925   -1.2415 C   0  0  0  0  0  0  0  0  0  0  0  0
    4.4197   -1.3122   -1.8460 C   0  0  0  0  0  0  0  0  0  0  0  0
    2.1738   -1.2008    5.5163 C   0  0  2  0  0  0  0  0  0  0  0  0
    0.8815   -0.9607    6.1118 O   0  0  0  0  0  0  0  0  0  0  0  0
    3.8306    1.5830    9.0141 H   0  0  0  0  0  0  0  0  0  0  0  0
    5.1077    1.0822    7.9253 H   0  0  0  0  0  0  0  0  0  0  0  0
    4.3232   -0.1018    8.9683 H   0  0  0  0  0  0  0  0  0  0  0  0
    2.1541    0.3154    7.7960 H   0  0  0  0  0  0  0  0  0  0  0  0
    2.9103    1.4297    6.6983 H   0  0  0  0  0  0  0  0  0  0  0  0
    3.6451   -1.4784    7.0090 H   0  0  0  0  0  0  0  0  0  0  0  0
    5.2073    0.4288    5.7849 H   0  0  0  0  0  0  0  0  0  0  0  0
    5.3863   -1.2899    5.6462 H   0  0  0  0  0  0  0  0  0  0  0  0
    5.3111    0.2608    3.4900 H   0  0  0  0  0  0  0  0  0  0  0  0
    4.6296   -1.3464    3.5330 H   0  0  0  0  0  0  0  0  0  0  0  0
    2.2938    1.9252    3.9499 H   0  0  0  0  0  0  0  0  0  0  0  0
    3.4913    1.2134    1.5848 H   0  0  0  0  0  0  0  0  0  0  0  0
    1.5121    2.2962    1.9950 H   0  0  0  0  0  0  0  0  0  0  0  0
    0.9121    1.0660    0.9262 H   0  0  0  0  0  0  0  0  0  0  0  0
   -1.3400    2.1618    2.4347 H   0  0  0  0  0  0  0  0  0  0  0  0
   -2.6069    1.6496    4.4843 H   0  0  0  0  0  0  0  0  0  0  0  0
    2.8883   -2.5964    3.2505 H   0  0  0  0  0  0  0  0  0  0  0  0
    1.1728   -2.6656    3.4708 H   0  0  0  0  0  0  0  0  0  0  0  0
    1.8425   -2.6253    1.0842 H   0  0  0  0  0  0  0  0  0  0  0  0
    0.7598   -1.3506    1.5138 H   0  0  0  0  0  0  0  0  0  0  0  0
    4.7670   -0.3997    0.6537 H   0  0  0  0  0  0  0  0  0  0  0  0
    4.4441   -1.9084    1.5010 H   0  0  0  0  0  0  0  0  0  0  0  0
    3.2038   -2.7274   -0.6326 H   0  0  0  0  0  0  0  0  0  0  0  0
    6.2204   -2.1013   -0.7788 H   0  0  0  0  0  0  0  0  0  0  0  0
    5.2903   -3.3527   -1.7537 H   0  0  0  0  0  0  0  0  0  0  0  0
    3.8363   -1.5626   -2.7298 H   0  0  0  0  0  0  0  0  0  0  0  0
    4.7571   -0.2792   -1.7741 H   0  0  0  0  0  0  0  0  0  0  0  0
    2.2704   -2.2876    5.5308 H   0  0  0  0  0  0  0  0  0  0  0  0
    2.2919   -0.4004    0.2948 H   0  0  0  0  0  0  0  0  0  0  0  0
  1  2  1  0
  1 27  1  0
  1 28  1  0
  1 29  1  0
  2  3  1  0
  2 30  1  0
  2 31  1  0
  3 25  1  0
  3  4  1  0
  3 32  1  1
  4  5  1  0
  4 33  1  0
  4 34  1  0
  5  6  1  0
  5 35  1  0
  5 36  1  0
  6 17  1  0
  6  7  1  1
  6  8  1  0
  7 37  1  0
  8 20  1  0
  8  9  1  0
  8 38  1  6
  9 10  1  0
  9 39  1  0
  9 40  1  0
 10 16  2  0
 10 11  1  0
 11 12  2  0
 11 41  1  0
 12 13  1  0
 12 42  1  0
 13 14  1  0
 13 15  2  0
 15 26  1  0
 15 16  1  0
 16 17  1  0
 17 18  1  6
 17 25  1  0
 18 19  1  0
 18 43  1  0
 18 44  1  0
 19 20  1  0
 19 45  1  0
 19 46  1  0
 20 21  1  0
 20 55  1  6
 21 22  1  0
 21 47  1  0
 21 48  1  0
 22 24  1  0
 22 23  1  0
 22 49  1  0
 23 24  1  0
 23 50  1  0
 23 51  1  0
 24 52  1  0
 24 53  1  0
 25 26  1  0
 25 54  1  6
M  CHG  2  14  -1  20   1
M  END
>  <i_m_ct_stereo_status>  (376) 
1

>  <s_m_source_file>  (376) 
/var/tmp/pbs.5076255.sched01/tmpxmhsyh4a/135ajud44o5.sdf

>  <i_m_source_file_index>  (376) 
21

>  <i_lp_mmshare_version>  (376) 
48012

>  <i_f3d_flags>  (376) 
0

>  <s_epik_input>  (376) 
W0NIM11bQ0gyXVtDQEhdKFtDSDJdW0NIMl0xKVtDQEhdMk9jKGMoW09IXSlbY0hdW2NIXTMpYzRjM1tDSDJdW0NAQEhdKFtDQF0xKFtDQEBdMjQ1KVtPSF0pTihbQ0gyXVtDSDJdNSlbQ0gyXVtDSF02W0NIMl1bQ0gyXTY=

>  <s_epik_cmdline>  (376) 
J2VwaWtfcHl0aG9uJywgJy1waHQnLCAnMi4wJywgJy1waCcsICc3LjAnLCAnLXRuJywgJzgnLCAnLW1hJywgJzIwMCcsICctaW1hZScsICc8aW5maWxlLm1hZT4nLCAnLW9tYWUnLCAnPG91dGZpbGUubWFlPic=

>  <r_epik_Ionization_Penalty>  (376) 
2.39488

>  <r_epik_Ionization_Penalty_Charging>  (376) 
2.39488

>  <r_epik_Ionization_Penalty_Neutral>  (376) 
4.37926e-08

>  <r_epik_State_Penalty>  (376) 
2.54839

>  <r_epik_Charging_Adjusted_Penalty>  (376) 
4.94326

>  <i_epik_Tot_Q>  (376) 
0

>  <i_epik_Tot_abs_Q>  (376) 
2

>  <s_lp_Force_Field>  (376) 
OPLS3e

>  <r_lp_Energy>  (376) 
79.0333

>  <b_lp_Chiralities_Consistent>  (376) 
1

>  <s_lp_Variant>  (376) 
103:0-3

>  <s_i_glide_gridfile>  (376) 
pfpi4k_grid

>  <i_i_glide_lignum>  (376) 
21

>  <i_i_glide_rotatable_bonds>  (376) 
4

>  <r_i_docking_score>  (376) 
-3.52015

>  <r_i_glide_ligand_efficiency>  (376) 
-0.13539

>  <r_i_glide_ligand_efficiency_sa>  (376) 
-0.401094

>  <r_i_glide_ligand_efficiency_ln>  (376) 
-0.826696

>  <r_i_glide_gscore>  (376) 
-3.52015

>  <r_i_glide_lipo>  (376) 
-0.108744

>  <r_i_glide_hbond>  (376) 
-0.344803

>  <r_i_glide_metal>  (376) 
-0

>  <r_i_glide_rewards>  (376) 
-1.28543

>  <r_i_glide_evdw>  (376) 
-18.1735

>  <r_i_glide_ecoul>  (376) 
-7.41229

>  <r_i_glide_erotb>  (376) 
0.302644

>  <r_i_glide_esite>  (376) 
-0.0633039

>  <r_i_glide_emodel>  (376) 
-35.6027

>  <r_i_glide_energy>  (376) 
-25.5858

>  <r_i_glide_einternal>  (376) 
0.289024

>  <r_i_glide_intrahb_reward>  (376) 
-0

>  <i_i_glide_confnum>  (376) 
5

>  <i_i_glide_posenum>  (376) 
1

>  <r_i_glide_eff_state_penalty>  (376) 
0

>  <ligand_id>  (376) 
103

>  <original_smiles>  (376) 
CCC1CCC2(O)C3Cc4ccc(O)c5c4C2(CCN3CC2CC2)C1O5

>  <smiles>  (376) 
[H]OC12C([H])([H])C([H])([H])C([H])(C([H])([H])C([H])([H])[H])C3([H])Oc4c([O-])c([H])c([H])c5c4C31C([H])([H])C([H])([H])[N+]([H])(C([H])([H])C1([H])C([H])([H])C1([H])[H])C2([H])C5([H])[H]

$$$$
103:2:2
     RDKit          3D

 55 60  0  0  1  0  0  0  0  0999 V2000
    4.3846    1.1382    8.4229 C   0  0  0  0  0  0  0  0  0  0  0  0
    3.2672    0.8747    7.3921 C   0  0  0  0  0  0  0  0  0  0  0  0
    3.5332   -0.3184    6.4346 C   0  0  2  0  0  0  0  0  0  0  0  0
    4.7782   -0.1209    5.5061 C   0  0  0  0  0  0  0  0  0  0  0  0
    4.5200   -0.0012    3.9798 C   0  0  0  0  0  0  0  0  0  0  0  0
    3.1278    0.5772    3.6445 C   0  0  1  0  0  0  0  0  0  0  0  0
    3.1602    1.8614    4.2556 O   0  0  0  0  0  0  0  0  0  0  0  0
    2.6862    0.8693    2.1633 C   0  0  2  0  0  0  0  0  0  0  0  0
    1.2798    1.5665    2.1327 C   0  0  0  0  0  0  0  0  0  0  0  0
    0.2916    1.2207    3.2591 C   0  0  0  0  0  0  0  0  0  0  0  0
   -0.9654    1.8141    3.4948 C   0  0  0  0  0  0  0  0  0  0  0  0
   -1.6357    1.5373    4.7074 C   0  0  0  0  0  0  0  0  0  0  0  0
   -1.0662    0.7201    5.7117 C   0  0  0  0  0  0  0  0  0  0  0  0
   -1.7563    0.5483    6.8803 O   0  0  0  0  0  0  0  0  0  0  0  0
    0.2093    0.1265    5.5030 C   0  0  0  0  0  0  0  0  0  0  0  0
    0.7713    0.3641    4.2657 C   0  0  0  0  0  0  0  0  0  0  0  0
    2.0677   -0.3753    4.2225 C   0  0  1  0  0  0  0  0  0  0  0  0
    1.9526   -1.6531    3.3285 C   0  0  0  0  0  0  0  0  0  0  0  0
    1.6822   -1.3619    1.8480 C   0  0  0  0  0  0  0  0  0  0  0  0
    2.6082   -0.3459    1.3021 N   0  0  2  0  0  0  0  0  0  0  0  0
    3.9160   -0.8805    0.8479 C   0  0  0  0  0  0  0  0  0  0  0  0
    3.7948   -1.6210   -0.4690 C   0  0  0  0  0  0  0  0  0  0  0  0
    3.7308   -3.1366   -0.4919 C   0  0  0  0  0  0  0  0  0  0  0  0
    4.9670   -2.4309   -0.9811 C   0  0  0  0  0  0  0  0  0  0  0  0
    2.2628   -0.8451    5.6956 C   0  0  2  0  0  0  0  0  0  0  0  0
    1.0010   -0.5959    6.3584 O   0  0  0  0  0  0  0  0  0  0  0  0
    4.0992    1.9444    9.1009 H   0  0  0  0  0  0  0  0  0  0  0  0
    5.3211    1.4368    7.9533 H   0  0  0  0  0  0  0  0  0  0  0  0
    4.5845    0.2582    9.0366 H   0  0  0  0  0  0  0  0  0  0  0  0
    2.3627    0.6784    7.9687 H   0  0  0  0  0  0  0  0  0  0  0  0
    3.0679    1.7870    6.8327 H   0  0  0  0  0  0  0  0  0  0  0  0
    3.8097   -1.1223    7.1156 H   0  0  0  0  0  0  0  0  0  0  0  0
    5.3143    0.7769    5.8098 H   0  0  0  0  0  0  0  0  0  0  0  0
    5.4827   -0.9413    5.6688 H   0  0  0  0  0  0  0  0  0  0  0  0
    5.3080    0.5906    3.5129 H   0  0  0  0  0  0  0  0  0  0  0  0
    4.6215   -1.0062    3.5884 H   0  0  0  0  0  0  0  0  0  0  0  0
    2.3298    2.2866    4.0932 H   0  0  0  0  0  0  0  0  0  0  0  0
    3.4031    1.5506    1.6979 H   0  0  0  0  0  0  0  0  0  0  0  0
    1.4441    2.6426    2.2010 H   0  0  0  0  0  0  0  0  0  0  0  0
    0.7845    1.4151    1.1705 H   0  0  0  0  0  0  0  0  0  0  0  0
   -1.3863    2.5075    2.7810 H   0  0  0  0  0  0  0  0  0  0  0  0
   -2.5906    1.9963    4.9019 H   0  0  0  0  0  0  0  0  0  0  0  0
    2.8648   -2.2471    3.3941 H   0  0  0  0  0  0  0  0  0  0  0  0
    1.1655   -2.3136    3.6963 H   0  0  0  0  0  0  0  0  0  0  0  0
    1.7420   -2.2727    1.2553 H   0  0  0  0  0  0  0  0  0  0  0  0
    0.6564   -1.0103    1.7289 H   0  0  0  0  0  0  0  0  0  0  0  0
    4.6330   -0.0682    0.7113 H   0  0  0  0  0  0  0  0  0  0  0  0
    4.3308   -1.5679    1.5817 H   0  0  0  0  0  0  0  0  0  0  0  0
    3.2253   -1.0911   -1.2350 H   0  0  0  0  0  0  0  0  0  0  0  0
    3.7857   -3.6604    0.4625 H   0  0  0  0  0  0  0  0  0  0  0  0
    3.0808   -3.5928   -1.2374 H   0  0  0  0  0  0  0  0  0  0  0  0
    5.1418   -2.4457   -2.0543 H   0  0  0  0  0  0  0  0  0  0  0  0
    5.8596   -2.4947   -0.3607 H   0  0  0  0  0  0  0  0  0  0  0  0
    2.3613   -1.9320    5.7074 H   0  0  0  0  0  0  0  0  0  0  0  0
    2.1371   -0.0566    0.4491 H   0  0  0  0  0  0  0  0  0  0  0  0
  1  2  1  0
  1 27  1  0
  1 28  1  0
  1 29  1  0
  2  3  1  0
  2 30  1  0
  2 31  1  0
  3 25  1  0
  3  4  1  0
  3 32  1  1
  4  5  1  0
  4 33  1  0
  4 34  1  0
  5  6  1  0
  5 35  1  0
  5 36  1  0
  6 17  1  0
  6  7  1  1
  6  8  1  0
  7 37  1  0
  8 20  1  0
  8  9  1  0
  8 38  1  6
  9 10  1  0
  9 39  1  0
  9 40  1  0
 10 16  2  0
 10 11  1  0
 11 12  2  0
 11 41  1  0
 12 13  1  0
 12 42  1  0
 13 14  1  0
 13 15  2  0
 15 26  1  0
 15 16  1  0
 16 17  1  0
 17 18  1  6
 17 25  1  0
 18 19  1  0
 18 43  1  0
 18 44  1  0
 19 20  1  0
 19 45  1  0
 19 46  1  0
 20 21  1  0
 20 55  1  6
 21 22  1  0
 21 47  1  0
 21 48  1  0
 22 24  1  0
 22 23  1  0
 22 49  1  0
 23 24  1  0
 23 50  1  0
 23 51  1  0
 24 52  1  0
 24 53  1  0
 25 26  1  0
 25 54  1  6
M  CHG  2  14  -1  20   1
M  END
>  <i_m_ct_stereo_status>  (377) 
1

>  <s_m_source_file>  (377) 
/var/tmp/pbs.5076255.sched01/tmpxmhsyh4a/135ajud44o5.sdf

>  <i_m_source_file_index>  (377) 
21

>  <i_lp_mmshare_version>  (377) 
48012

>  <i_f3d_flags>  (377) 
0

>  <s_epik_input>  (377) 
W0NIM11bQ0gyXVtDQEhdKFtDSDJdW0NIMl0xKVtDQEhdMk9jKGMoW09IXSlbY0hdW2NIXTMpYzRjM1tDSDJdW0NAQEhdKFtDQF0xKFtDQEBdMjQ1KVtPSF0pTihbQ0gyXVtDSDJdNSlbQ0gyXVtDSF02W0NIMl1bQ0gyXTY=

>  <s_epik_cmdline>  (377) 
J2VwaWtfcHl0aG9uJywgJy1waHQnLCAnMi4wJywgJy1waCcsICc3LjAnLCAnLXRuJywgJzgnLCAnLW1hJywgJzIwMCcsICctaW1hZScsICc8aW5maWxlLm1hZT4nLCAnLW9tYWUnLCAnPG91dGZpbGUubWFlPic=

>  <r_epik_Ionization_Penalty>  (377) 
2.39488

>  <r_epik_Ionization_Penalty_Charging>  (377) 
2.39488

>  <r_epik_Ionization_Penalty_Neutral>  (377) 
4.37926e-08

>  <r_epik_State_Penalty>  (377) 
2.54839

>  <r_epik_Charging_Adjusted_Penalty>  (377) 
4.94326

>  <i_epik_Tot_Q>  (377) 
0

>  <i_epik_Tot_abs_Q>  (377) 
2

>  <s_lp_Force_Field>  (377) 
OPLS3e

>  <r_lp_Energy>  (377) 
79.0333

>  <b_lp_Chiralities_Consistent>  (377) 
1

>  <s_lp_Variant>  (377) 
103:0-3

>  <s_i_glide_gridfile>  (377) 
pfpi4k_grid

>  <i_i_glide_lignum>  (377) 
21

>  <i_i_glide_rotatable_bonds>  (377) 
4

>  <r_i_docking_score>  (377) 
-3.4525

>  <r_i_glide_ligand_efficiency>  (377) 
-0.132789

>  <r_i_glide_ligand_efficiency_sa>  (377) 
-0.393386

>  <r_i_glide_ligand_efficiency_ln>  (377) 
-0.810809

>  <r_i_glide_gscore>  (377) 
-3.4525

>  <r_i_glide_lipo>  (377) 
-0.100832

>  <r_i_glide_hbond>  (377) 
-0.316073

>  <r_i_glide_metal>  (377) 
-0

>  <r_i_glide_rewards>  (377) 
-1.28543

>  <r_i_glide_evdw>  (377) 
-17.801

>  <r_i_glide_ecoul>  (377) 
-7.2904

>  <r_i_glide_erotb>  (377) 
0.302644

>  <r_i_glide_esite>  (377) 
-0.0692037

>  <r_i_glide_emodel>  (377) 
-35.0165

>  <r_i_glide_energy>  (377) 
-25.0914

>  <r_i_glide_einternal>  (377) 
0.194884

>  <r_i_glide_intrahb_reward>  (377) 
-0

>  <i_i_glide_confnum>  (377) 
5

>  <i_i_glide_posenum>  (377) 
24

>  <r_i_glide_eff_state_penalty>  (377) 
0

>  <ligand_id>  (377) 
103

>  <original_smiles>  (377) 
CCC1CCC2(O)C3Cc4ccc(O)c5c4C2(CCN3CC2CC2)C1O5

>  <smiles>  (377) 
[H]OC12C([H])([H])C([H])([H])C([H])(C([H])([H])C([H])([H])[H])C3([H])Oc4c([O-])c([H])c([H])c5c4C31C([H])([H])C([H])([H])[N+]([H])(C([H])([H])C1([H])C([H])([H])C1([H])[H])C2([H])C5([H])[H]

$$$$
104:0:0
     RDKit          3D

 61 66  0  0  1  0  0  0  0  0999 V2000
    4.0387   -4.8663    6.3466 C   0  0  0  0  0  0  0  0  0  0  0  0
    2.8282   -5.1118    5.4619 C   0  0  0  0  0  0  0  0  0  0  0  0
    1.5708   -5.2562    6.3014 C   0  0  0  0  0  0  0  0  0  0  0  0
    2.7682   -4.4381    4.1197 C   0  0  1  0  0  0  0  0  0  0  0  0
    3.8528   -3.5750    3.4630 C   0  0  0  0  0  0  0  0  0  0  0  0
    3.3608   -2.9801    2.1296 C   0  0  0  0  0  0  0  0  0  0  0  0
    2.2198   -2.5145    2.0679 O   0  0  0  0  0  0  0  0  0  0  0  0
    4.2732   -2.8367    0.8879 C   0  0  2  0  0  0  0  0  0  0  0  0
    4.8128   -4.1476    0.1531 C   0  0  1  0  0  0  0  0  0  0  0  0
    4.8169   -3.8612   -1.3799 C   0  0  0  0  0  0  0  0  0  0  0  0
    6.2969   -4.3852    0.5796 C   0  0  0  0  0  0  0  0  0  0  0  0
    7.2876   -3.2521    0.2599 C   0  0  0  0  0  0  0  0  0  0  0  0
    6.7882   -1.9072    0.7228 C   0  0  1  0  0  0  0  0  0  0  0  0
    5.8878   -1.2416   -0.1591 O   0  0  0  0  0  0  0  0  0  0  0  0
    5.3254   -1.7068    1.0709 C   0  0  1  0  0  0  0  0  0  0  0  0
    4.9596   -0.5810    2.0232 C   0  0  0  0  0  0  0  0  0  0  0  0
    3.9866   -5.5133    0.3060 C   0  0  1  0  0  0  0  0  0  0  0  0
    4.4744   -6.4795    1.4194 C   0  0  0  0  0  0  0  0  0  0  0  0
    3.6822   -7.7790    1.7060 C   0  0  0  0  0  0  0  0  0  0  0  0
    2.2865   -7.7073    2.3470 C   0  0  1  0  0  0  0  0  0  0  0  0
    1.6947   -9.1078    2.3767 C   0  0  0  0  0  0  0  0  0  0  0  0
    1.9109   -6.8002    3.5181 C   0  0  1  0  0  0  0  0  0  0  0  0
    2.9772   -5.9442    4.1986 C   0  0  2  0  0  0  0  0  0  0  0  0
    1.3835   -6.5152    2.1083 C   0  0  2  0  0  0  0  0  0  0  0  0
    0.0059   -6.7875    1.9148 O   0  0  0  0  0  0  0  0  0  0  0  0
    1.8817   -5.3254    1.5328 O   0  0  0  0  0  0  0  0  0  0  0  0
    2.4437   -5.4119    0.2395 C   0  0  0  0  0  0  0  0  0  0  0  0
    3.9173   -3.9378    6.9063 H   0  0  0  0  0  0  0  0  0  0  0  0
    4.9426   -4.7872    5.7417 H   0  0  0  0  0  0  0  0  0  0  0  0
    4.1733   -5.6899    7.0507 H   0  0  0  0  0  0  0  0  0  0  0  0
    0.6974   -5.3923    5.6622 H   0  0  0  0  0  0  0  0  0  0  0  0
    1.4117   -4.3634    6.9081 H   0  0  0  0  0  0  0  0  0  0  0  0
    1.6488   -6.1220    6.9625 H   0  0  0  0  0  0  0  0  0  0  0  0
    1.7592   -4.1067    3.8804 H   0  0  0  0  0  0  0  0  0  0  0  0
    4.0723   -2.7461    4.1359 H   0  0  0  0  0  0  0  0  0  0  0  0
    4.7811   -4.1281    3.3330 H   0  0  0  0  0  0  0  0  0  0  0  0
    3.5749   -2.4039    0.1702 H   0  0  0  0  0  0  0  0  0  0  0  0
    5.3094   -4.6594   -1.9342 H   0  0  0  0  0  0  0  0  0  0  0  0
    5.3364   -2.9502   -1.6653 H   0  0  0  0  0  0  0  0  0  0  0  0
    3.8056   -3.7760   -1.7807 H   0  0  0  0  0  0  0  0  0  0  0  0
    6.3350   -4.5363    1.6572 H   0  0  0  0  0  0  0  0  0  0  0  0
    6.6843   -5.3001    0.1252 H   0  0  0  0  0  0  0  0  0  0  0  0
    8.2362   -3.4527    0.7619 H   0  0  0  0  0  0  0  0  0  0  0  0
    7.5049   -3.2018   -0.8056 H   0  0  0  0  0  0  0  0  0  0  0  0
    7.5343   -1.2330    1.1322 H   0  0  0  0  0  0  0  0  0  0  0  0
    4.9754   -0.9195    3.0579 H   0  0  0  0  0  0  0  0  0  0  0  0
    3.9814   -0.1623    1.7886 H   0  0  0  0  0  0  0  0  0  0  0  0
    5.7018    0.2063    1.9399 H   0  0  0  0  0  0  0  0  0  0  0  0
    4.2356   -6.0727   -0.5951 H   0  0  0  0  0  0  0  0  0  0  0  0
    5.4709   -6.8270    1.1516 H   0  0  0  0  0  0  0  0  0  0  0  0
    4.6435   -5.9160    2.3205 H   0  0  0  0  0  0  0  0  0  0  0  0
    3.6141   -8.3693    0.7917 H   0  0  0  0  0  0  0  0  0  0  0  0
    4.2885   -8.3828    2.3823 H   0  0  0  0  0  0  0  0  0  0  0  0
    0.7102   -9.1156    2.8466 H   0  0  0  0  0  0  0  0  0  0  0  0
    2.3338   -9.7784    2.9509 H   0  0  0  0  0  0  0  0  0  0  0  0
    1.5943   -9.5061    1.3668 H   0  0  0  0  0  0  0  0  0  0  0  0
    1.1886   -7.2310    4.2090 H   0  0  0  0  0  0  0  0  0  0  0  0
    3.9744   -6.3791    4.1906 H   0  0  0  0  0  0  0  0  0  0  0  0
   -0.0601   -7.5658    1.3817 H   0  0  0  0  0  0  0  0  0  0  0  0
    2.1599   -4.5247   -0.3230 H   0  0  0  0  0  0  0  0  0  0  0  0
    2.0008   -6.2462   -0.2954 H   0  0  0  0  0  0  0  0  0  0  0  0
  1  2  1  0
  1 28  1  0
  1 29  1  0
  1 30  1  0
  2 23  1  0
  2  3  1  0
  2  4  1  0
  3 31  1  0
  3 32  1  0
  3 33  1  0
  4 23  1  0
  4  5  1  0
  4 34  1  6
  5  6  1  0
  5 35  1  0
  5 36  1  0
  6  7  2  0
  6  8  1  0
  8 15  1  0
  8  9  1  0
  8 37  1  6
  9 10  1  6
  9 11  1  0
  9 17  1  0
 10 38  1  0
 10 39  1  0
 10 40  1  0
 11 12  1  0
 11 41  1  0
 11 42  1  0
 12 13  1  0
 12 43  1  0
 12 44  1  0
 13 15  1  0
 13 14  1  0
 13 45  1  1
 14 15  1  0
 15 16  1  1
 16 46  1  0
 16 47  1  0
 16 48  1  0
 17 27  1  0
 17 18  1  0
 17 49  1  6
 18 19  1  0
 18 50  1  0
 18 51  1  0
 19 20  1  0
 19 52  1  0
 19 53  1  0
 20 24  1  0
 20 21  1  1
 20 22  1  0
 21 54  1  0
 21 55  1  0
 21 56  1  0
 22 23  1  0
 22 24  1  0
 22 57  1  1
 23 58  1  1
 24 25  1  1
 24 26  1  0
 25 59  1  0
 26 27  1  0
 27 60  1  0
 27 61  1  0
M  END
>  <i_m_ct_stereo_status>  (378) 
1

>  <s_m_source_file>  (378) 
/var/tmp/pbs.5076255.sched01/tmpxmhsyh4a/135ajud44o5.sdf

>  <i_m_source_file_index>  (378) 
22

>  <i_lp_mmshare_version>  (378) 
48012

>  <i_f3d_flags>  (378) 
0

>  <s_epik_input>  (378) 
W0NIMl0xW0NIMl1bQ0BIXTJbQ0gyXU9bQ0BAXTMoW09IXSlbQ0BdMShbQ0gzXSlbQ0BIXTNbQ0BIXShDNChbQ0gzXSlbQ0gzXSlbQ0BASF00W0NIMl1DKD1PKVtDQEhdKFtDQF0yNVtDSDNdKVtDQEBdNihbQ0gzXSlbQ0BIXShPNilbQ0gyXVtDSDJdNQ==

>  <s_epik_cmdline>  (378) 
J2VwaWtfcHl0aG9uJywgJy1waHQnLCAnMi4wJywgJy1waCcsICc3LjAnLCAnLXRuJywgJzgnLCAnLW1hJywgJzIwMCcsICctaW1hZScsICc8aW5maWxlLm1hZT4nLCAnLW9tYWUnLCAnPG91dGZpbGUubWFlPic=

>  <r_lp_tautomer_probability>  (378) 
1

>  <r_epik_Ionization_Penalty>  (378) 
7.27682e-08

>  <r_epik_Ionization_Penalty_Charging>  (378) 
0

>  <r_epik_Ionization_Penalty_Neutral>  (378) 
7.27682e-08

>  <r_epik_State_Penalty>  (378) 
-0

>  <r_epik_Charging_Adjusted_Penalty>  (378) 
0

>  <i_epik_Tot_Q>  (378) 
0

>  <i_epik_Tot_abs_Q>  (378) 
0

>  <s_lp_Force_Field>  (378) 
OPLS3e

>  <r_lp_Energy>  (378) 
66.4732

>  <b_lp_Chiralities_Consistent>  (378) 
1

>  <s_lp_Variant>  (378) 
104:0-1

>  <s_i_glide_gridfile>  (378) 
pfpi4k_grid

>  <i_i_glide_lignum>  (378) 
22

>  <i_i_glide_rotatable_bonds>  (378) 
1

>  <r_i_docking_score>  (378) 
-3.27794

>  <r_i_glide_ligand_efficiency>  (378) 
-0.121405

>  <r_i_glide_ligand_efficiency_sa>  (378) 
-0.364216

>  <r_i_glide_ligand_efficiency_ln>  (378) 
-0.763051

>  <r_i_glide_gscore>  (378) 
-3.27794

>  <r_i_glide_lipo>  (378) 
-0.69996

>  <r_i_glide_hbond>  (378) 
-0.045626

>  <r_i_glide_metal>  (378) 
-0

>  <r_i_glide_rewards>  (378) 
-0.855589

>  <r_i_glide_evdw>  (378) 
-26.3303

>  <r_i_glide_ecoul>  (378) 
-2.1086

>  <r_i_glide_erotb>  (378) 
0

>  <r_i_glide_esite>  (378) 
-0.0439606

>  <r_i_glide_emodel>  (378) 
-34.3524

>  <r_i_glide_energy>  (378) 
-28.4389

>  <r_i_glide_einternal>  (378) 
0.944869

>  <r_i_glide_intrahb_reward>  (378) 
-0

>  <i_i_glide_confnum>  (378) 
1

>  <i_i_glide_posenum>  (378) 
1

>  <r_i_glide_eff_state_penalty>  (378) 
0

>  <ligand_id>  (378) 
104

>  <original_smiles>  (378) 
CC1(C)C2CC(=O)C3C(C)(CCC4OC43C)C3CCC4(C)C(C21)C4(O)OC3

>  <smiles>  (378) 
[H]OC12OC([H])([H])C3([H])C([H])([H])C([H])([H])C1(C([H])([H])[H])C2([H])C1([H])C([H])(C([H])([H])C(=O)C2([H])C4(C([H])([H])[H])OC4([H])C([H])([H])C([H])([H])C23C([H])([H])[H])C1(C([H])([H])[H])C([H])([H])[H]

$$$$
104:0:1
     RDKit          3D

 61 66  0  0  1  0  0  0  0  0999 V2000
    3.9229   -3.4371   -3.5375 C   0  0  0  0  0  0  0  0  0  0  0  0
    4.0878   -2.5364   -2.3408 C   0  0  0  0  0  0  0  0  0  0  0  0
    3.8194   -1.1080   -2.7453 C   0  0  0  0  0  0  0  0  0  0  0  0
    3.7097   -3.0141   -0.9495 C   0  0  1  0  0  0  0  0  0  0  0  0
    3.2190   -4.3941   -0.5168 C   0  0  0  0  0  0  0  0  0  0  0  0
    2.8263   -4.4941    0.9606 C   0  0  0  0  0  0  0  0  0  0  0  0
    2.2184   -3.5632    1.5029 O   0  0  0  0  0  0  0  0  0  0  0  0
    3.0994   -5.7514    1.8106 C   0  0  2  0  0  0  0  0  0  0  0  0
    4.6140   -6.1379    2.1430 C   0  0  1  0  0  0  0  0  0  0  0  0
    4.6667   -6.6337    3.6189 C   0  0  0  0  0  0  0  0  0  0  0  0
    5.0343   -7.3466    1.2473 C   0  0  0  0  0  0  0  0  0  0  0  0
    4.1922   -8.6219    1.3795 C   0  0  0  0  0  0  0  0  0  0  0  0
    2.7109   -8.3479    1.3206 C   0  0  1  0  0  0  0  0  0  0  0  0
    2.0866   -7.8843    2.5238 O   0  0  0  0  0  0  0  0  0  0  0  0
    2.1847   -6.9438    1.4554 C   0  0  1  0  0  0  0  0  0  0  0  0
    0.8250   -6.6078    0.8600 C   0  0  0  0  0  0  0  0  0  0  0  0
    5.7335   -5.0011    2.0785 C   0  0  1  0  0  0  0  0  0  0  0  0
    6.5243   -4.9077    0.7408 C   0  0  0  0  0  0  0  0  0  0  0  0
    7.5820   -3.7967    0.5420 C   0  0  0  0  0  0  0  0  0  0  0  0
    7.1091   -2.3513    0.4134 C   0  0  1  0  0  0  0  0  0  0  0  0
    8.3557   -1.4765    0.3801 C   0  0  0  0  0  0  0  0  0  0  0  0
    5.9363   -1.8709   -0.4469 C   0  0  1  0  0  0  0  0  0  0  0  0
    5.1664   -2.8490   -1.3230 C   0  0  2  0  0  0  0  0  0  0  0  0
    5.8405   -1.8793    1.0763 C   0  0  2  0  0  0  0  0  0  0  0  0
    5.8453   -0.5870    1.6462 O   0  0  0  0  0  0  0  0  0  0  0  0
    4.9085   -2.8135    1.5944 O   0  0  0  0  0  0  0  0  0  0  0  0
    5.3618   -3.6122    2.6542 C   0  0  0  0  0  0  0  0  0  0  0  0
    2.8776   -3.4543   -3.8612 H   0  0  0  0  0  0  0  0  0  0  0  0
    4.2584   -4.4308   -3.2685 H   0  0  0  0  0  0  0  0  0  0  0  0
    4.5771   -3.1508   -4.3559 H   0  0  0  0  0  0  0  0  0  0  0  0
    3.9281   -0.4631   -1.8803 H   0  0  0  0  0  0  0  0  0  0  0  0
    2.8016   -1.0119   -3.1256 H   0  0  0  0  0  0  0  0  0  0  0  0
    4.5319   -0.7937   -3.5075 H   0  0  0  0  0  0  0  0  0  0  0  0
    3.2527   -2.2246   -0.3803 H   0  0  0  0  0  0  0  0  0  0  0  0
    2.3154   -4.5857   -1.0858 H   0  0  0  0  0  0  0  0  0  0  0  0
    3.9462   -5.1525   -0.7677 H   0  0  0  0  0  0  0  0  0  0  0  0
    2.7072   -5.4092    2.7720 H   0  0  0  0  0  0  0  0  0  0  0  0
    5.6386   -7.0624    3.8686 H   0  0  0  0  0  0  0  0  0  0  0  0
    3.9467   -7.4094    3.8435 H   0  0  0  0  0  0  0  0  0  0  0  0
    4.4775   -5.8323    4.3323 H   0  0  0  0  0  0  0  0  0  0  0  0
    4.9417   -7.0334    0.2124 H   0  0  0  0  0  0  0  0  0  0  0  0
    6.0853   -7.6074    1.4095 H   0  0  0  0  0  0  0  0  0  0  0  0
    4.4393   -9.3160    0.5716 H   0  0  0  0  0  0  0  0  0  0  0  0
    4.3970   -9.1281    2.3192 H   0  0  0  0  0  0  0  0  0  0  0  0
    2.1181   -9.1002    0.8147 H   0  0  0  0  0  0  0  0  0  0  0  0
    0.9432   -6.2405   -0.1611 H   0  0  0  0  0  0  0  0  0  0  0  0
    0.3014   -5.8721    1.4733 H   0  0  0  0  0  0  0  0  0  0  0  0
    0.2038   -7.5017    0.8055 H   0  0  0  0  0  0  0  0  0  0  0  0
    6.4926   -5.3530    2.7765 H   0  0  0  0  0  0  0  0  0  0  0  0
    7.0960   -5.8245    0.6250 H   0  0  0  0  0  0  0  0  0  0  0  0
    5.8310   -4.9440   -0.0820 H   0  0  0  0  0  0  0  0  0  0  0  0
    8.3248   -3.8368    1.3428 H   0  0  0  0  0  0  0  0  0  0  0  0
    8.1261   -4.0131   -0.3782 H   0  0  0  0  0  0  0  0  0  0  0  0
    8.0471   -0.4491    0.2732 H   0  0  0  0  0  0  0  0  0  0  0  0
    8.9969   -1.7420   -0.4588 H   0  0  0  0  0  0  0  0  0  0  0  0
    8.9652   -1.4913    1.2743 H   0  0  0  0  0  0  0  0  0  0  0  0
    6.0582   -0.8860   -0.8976 H   0  0  0  0  0  0  0  0  0  0  0  0
    5.7456   -3.6820   -1.6805 H   0  0  0  0  0  0  0  0  0  0  0  0
    6.4281   -0.5856    2.4023 H   0  0  0  0  0  0  0  0  0  0  0  0
    4.5589   -3.7184    3.3823 H   0  0  0  0  0  0  0  0  0  0  0  0
    6.1818   -3.1035    3.1434 H   0  0  0  0  0  0  0  0  0  0  0  0
  1  2  1  0
  1 28  1  0
  1 29  1  0
  1 30  1  0
  2 23  1  0
  2  3  1  0
  2  4  1  0
  3 31  1  0
  3 32  1  0
  3 33  1  0
  4 23  1  0
  4  5  1  0
  4 34  1  1
  5  6  1  0
  5 35  1  0
  5 36  1  0
  6  7  2  0
  6  8  1  0
  8 15  1  0
  8  9  1  0
  8 37  1  1
  9 10  1  1
  9 11  1  0
  9 17  1  0
 10 38  1  0
 10 39  1  0
 10 40  1  0
 11 12  1  0
 11 41  1  0
 11 42  1  0
 12 13  1  0
 12 43  1  0
 12 44  1  0
 13 15  1  0
 13 14  1  0
 13 45  1  6
 14 15  1  0
 15 16  1  6
 16 46  1  0
 16 47  1  0
 16 48  1  0
 17 27  1  0
 17 18  1  0
 17 49  1  1
 18 19  1  0
 18 50  1  0
 18 51  1  0
 19 20  1  0
 19 52  1  0
 19 53  1  0
 20 24  1  0
 20 21  1  1
 20 22  1  0
 21 54  1  0
 21 55  1  0
 21 56  1  0
 22 23  1  0
 22 24  1  0
 22 57  1  6
 23 58  1  6
 24 25  1  1
 24 26  1  0
 25 59  1  0
 26 27  1  0
 27 60  1  0
 27 61  1  0
M  END
>  <i_m_ct_stereo_status>  (379) 
1

>  <s_m_source_file>  (379) 
/var/tmp/pbs.5076255.sched01/tmpxmhsyh4a/135ajud44o5.sdf

>  <i_m_source_file_index>  (379) 
22

>  <i_lp_mmshare_version>  (379) 
48012

>  <i_f3d_flags>  (379) 
0

>  <s_epik_input>  (379) 
W0NIMl0xW0NIMl1bQ0BIXTJbQ0gyXU9bQ0BAXTMoW09IXSlbQ0BdMShbQ0gzXSlbQ0BIXTNbQ0BIXShDNChbQ0gzXSlbQ0gzXSlbQ0BASF00W0NIMl1DKD1PKVtDQEhdKFtDQF0yNVtDSDNdKVtDQEBdNihbQ0gzXSlbQ0BIXShPNilbQ0gyXVtDSDJdNQ==

>  <s_epik_cmdline>  (379) 
J2VwaWtfcHl0aG9uJywgJy1waHQnLCAnMi4wJywgJy1waCcsICc3LjAnLCAnLXRuJywgJzgnLCAnLW1hJywgJzIwMCcsICctaW1hZScsICc8aW5maWxlLm1hZT4nLCAnLW9tYWUnLCAnPG91dGZpbGUubWFlPic=

>  <r_lp_tautomer_probability>  (379) 
1

>  <r_epik_Ionization_Penalty>  (379) 
7.27682e-08

>  <r_epik_Ionization_Penalty_Charging>  (379) 
0

>  <r_epik_Ionization_Penalty_Neutral>  (379) 
7.27682e-08

>  <r_epik_State_Penalty>  (379) 
-0

>  <r_epik_Charging_Adjusted_Penalty>  (379) 
0

>  <i_epik_Tot_Q>  (379) 
0

>  <i_epik_Tot_abs_Q>  (379) 
0

>  <s_lp_Force_Field>  (379) 
OPLS3e

>  <r_lp_Energy>  (379) 
66.4732

>  <b_lp_Chiralities_Consistent>  (379) 
1

>  <s_lp_Variant>  (379) 
104:0-1

>  <s_i_glide_gridfile>  (379) 
pfpi4k_grid

>  <i_i_glide_lignum>  (379) 
22

>  <i_i_glide_rotatable_bonds>  (379) 
1

>  <r_i_docking_score>  (379) 
-2.7656

>  <r_i_glide_ligand_efficiency>  (379) 
-0.10243

>  <r_i_glide_ligand_efficiency_sa>  (379) 
-0.307289

>  <r_i_glide_ligand_efficiency_ln>  (379) 
-0.643787

>  <r_i_glide_gscore>  (379) 
-2.7656

>  <r_i_glide_lipo>  (379) 
-0.763191

>  <r_i_glide_hbond>  (379) 
0

>  <r_i_glide_metal>  (379) 
-0

>  <r_i_glide_rewards>  (379) 
-1.01898

>  <r_i_glide_evdw>  (379) 
-24.6678

>  <r_i_glide_ecoul>  (379) 
1.7829

>  <r_i_glide_erotb>  (379) 
0

>  <r_i_glide_esite>  (379) 
-0.0174728

>  <r_i_glide_emodel>  (379) 
-28.1539

>  <r_i_glide_energy>  (379) 
-22.8849

>  <r_i_glide_einternal>  (379) 
0.0949869

>  <r_i_glide_intrahb_reward>  (379) 
-0

>  <i_i_glide_confnum>  (379) 
2

>  <i_i_glide_posenum>  (379) 
17

>  <r_i_glide_eff_state_penalty>  (379) 
0

>  <ligand_id>  (379) 
104

>  <original_smiles>  (379) 
CC1(C)C2CC(=O)C3C(C)(CCC4OC43C)C3CCC4(C)C(C21)C4(O)OC3

>  <smiles>  (379) 
[H]OC12OC([H])([H])C3([H])C([H])([H])C([H])([H])C1(C([H])([H])[H])C2([H])C1([H])C([H])(C([H])([H])C(=O)C2([H])C4(C([H])([H])[H])OC4([H])C([H])([H])C([H])([H])C23C([H])([H])[H])C1(C([H])([H])[H])C([H])([H])[H]

$$$$
104:0:2
     RDKit          3D

 61 66  0  0  1  0  0  0  0  0999 V2000
    3.3599   -5.7678    7.0035 C   0  0  0  0  0  0  0  0  0  0  0  0
    2.1609   -5.9867    6.0983 C   0  0  0  0  0  0  0  0  0  0  0  0
    0.9090   -6.2417    6.9195 C   0  0  0  0  0  0  0  0  0  0  0  0
    2.0803   -5.2141    4.8067 C   0  0  1  0  0  0  0  0  0  0  0  0
    3.1366   -4.2625    4.2284 C   0  0  0  0  0  0  0  0  0  0  0  0
    2.6210   -3.5808    2.9493 C   0  0  0  0  0  0  0  0  0  0  0  0
    1.4712   -3.1370    2.9259 O   0  0  0  0  0  0  0  0  0  0  0  0
    3.5229   -3.3064    1.7260 C   0  0  2  0  0  0  0  0  0  0  0  0
    4.1162   -4.5368    0.8906 C   0  0  1  0  0  0  0  0  0  0  0  0
    4.1130   -4.1407   -0.6187 C   0  0  0  0  0  0  0  0  0  0  0  0
    5.6059   -4.7548    1.2944 C   0  0  0  0  0  0  0  0  0  0  0  0
    6.5495   -3.5657    1.0719 C   0  0  0  0  0  0  0  0  0  0  0  0
    5.9914   -2.2784    1.6345 C   0  0  1  0  0  0  0  0  0  0  0  0
    5.0682   -1.5787    0.8029 O   0  0  0  0  0  0  0  0  0  0  0  0
    4.5406   -2.1587    1.9957 C   0  0  1  0  0  0  0  0  0  0  0  0
    4.1270   -1.1120    3.0335 C   0  0  0  0  0  0  0  0  0  0  0  0
    3.3506   -5.9465    0.9269 C   0  0  1  0  0  0  0  0  0  0  0  0
    3.8603   -6.9754    1.9660 C   0  0  0  0  0  0  0  0  0  0  0  0
    3.1124   -8.3236    2.1424 C   0  0  0  0  0  0  0  0  0  0  0  0
    1.7164   -8.3413    2.7912 C   0  0  1  0  0  0  0  0  0  0  0  0
    1.1731   -9.7666    2.7104 C   0  0  0  0  0  0  0  0  0  0  0  0
    1.3085   -7.5455    4.0203 C   0  0  1  0  0  0  0  0  0  0  0  0
    2.3430   -6.7064    4.7726 C   0  0  2  0  0  0  0  0  0  0  0  0
    0.7742   -7.1678    2.6324 C   0  0  2  0  0  0  0  0  0  0  0  0
   -0.5996   -7.4805    2.4184 O   0  0  0  0  0  0  0  0  0  0  0  0
    1.2393   -5.9060    2.1407 O   0  0  0  0  0  0  0  0  0  0  0  0
    1.8086   -5.9199    0.8483 C   0  0  0  0  0  0  0  0  0  0  0  0
    3.2046   -4.8935    7.6344 H   0  0  0  0  0  0  0  0  0  0  0  0
    4.2590   -5.6060    6.4074 H   0  0  0  0  0  0  0  0  0  0  0  0
    3.5277   -6.6407    7.6364 H   0  0  0  0  0  0  0  0  0  0  0  0
    0.0437   -6.3592    6.2679 H   0  0  0  0  0  0  0  0  0  0  0  0
    0.7177   -5.4076    7.5947 H   0  0  0  0  0  0  0  0  0  0  0  0
    1.0181   -7.1558    7.5069 H   0  0  0  0  0  0  0  0  0  0  0  0
    1.0641   -4.9025    4.5967 H   0  0  0  0  0  0  0  0  0  0  0  0
    3.3206   -3.4826    4.9670 H   0  0  0  0  0  0  0  0  0  0  0  0
    4.0773   -4.7729    4.0588 H   0  0  0  0  0  0  0  0  0  0  0  0
    2.8126   -2.8472    1.0371 H   0  0  0  0  0  0  0  0  0  0  0  0
    4.6383   -4.8747   -1.2307 H   0  0  0  0  0  0  0  0  0  0  0  0
    4.5970   -3.1886   -0.8285 H   0  0  0  0  0  0  0  0  0  0  0  0
    3.1025   -4.0572   -1.0194 H   0  0  0  0  0  0  0  0  0  0  0  0
    5.6465   -4.9863    2.3561 H   0  0  0  0  0  0  0  0  0  0  0  0
    6.0281   -5.6193    0.7716 H   0  0  0  0  0  0  0  0  0  0  0  0
    7.5029   -3.7701    1.5576 H   0  0  0  0  0  0  0  0  0  0  0  0
    6.7629   -3.4215    0.0137 H   0  0  0  0  0  0  0  0  0  0  0  0
    6.7119   -1.6021    2.0845 H   0  0  0  0  0  0  0  0  0  0  0  0
    4.1607   -1.5310    4.0369 H   0  0  0  0  0  0  0  0  0  0  0  0
    3.1301   -0.7227    2.8318 H   0  0  0  0  0  0  0  0  0  0  0  0
    4.8267   -0.2756    3.0127 H   0  0  0  0  0  0  0  0  0  0  0  0
    3.6220   -6.4167   -0.0193 H   0  0  0  0  0  0  0  0  0  0  0  0
    4.8695   -7.2631    1.6761 H   0  0  0  0  0  0  0  0  0  0  0  0
    4.0059   -6.4753    2.9064 H   0  0  0  0  0  0  0  0  0  0  0  0
    3.0648   -8.8400    1.1865 H   0  0  0  0  0  0  0  0  0  0  0  0
    3.7398   -8.9513    2.7767 H   0  0  0  0  0  0  0  0  0  0  0  0
    0.1915   -9.8401    3.1788 H   0  0  0  0  0  0  0  0  0  0  0  0
    1.8371  -10.4538    3.2318 H   0  0  0  0  0  0  0  0  0  0  0  0
    1.0811  -10.0895    1.6814 H   0  0  0  0  0  0  0  0  0  0  0  0
    0.6007   -8.0565    4.6727 H   0  0  0  0  0  0  0  0  0  0  0  0
    3.3498   -7.1034    4.7346 H   0  0  0  0  0  0  0  0  0  0  0  0
   -0.6262   -8.1456    1.7384 H   0  0  0  0  0  0  0  0  0  0  0  0
    1.4959   -5.0151    0.3333 H   0  0  0  0  0  0  0  0  0  0  0  0
    1.4012   -6.7496    0.2678 H   0  0  0  0  0  0  0  0  0  0  0  0
  1  2  1  0
  1 28  1  0
  1 29  1  0
  1 30  1  0
  2 23  1  0
  2  3  1  0
  2  4  1  0
  3 31  1  0
  3 32  1  0
  3 33  1  0
  4 23  1  0
  4  5  1  0
  4 34  1  6
  5  6  1  0
  5 35  1  0
  5 36  1  0
  6  7  2  0
  6  8  1  0
  8 15  1  0
  8  9  1  0
  8 37  1  6
  9 10  1  6
  9 11  1  0
  9 17  1  0
 10 38  1  0
 10 39  1  0
 10 40  1  0
 11 12  1  0
 11 41  1  0
 11 42  1  0
 12 13  1  0
 12 43  1  0
 12 44  1  0
 13 15  1  0
 13 14  1  0
 13 45  1  1
 14 15  1  0
 15 16  1  1
 16 46  1  0
 16 47  1  0
 16 48  1  0
 17 27  1  0
 17 18  1  0
 17 49  1  6
 18 19  1  0
 18 50  1  0
 18 51  1  0
 19 20  1  0
 19 52  1  0
 19 53  1  0
 20 24  1  0
 20 21  1  1
 20 22  1  0
 21 54  1  0
 21 55  1  0
 21 56  1  0
 22 23  1  0
 22 24  1  0
 22 57  1  1
 23 58  1  1
 24 25  1  1
 24 26  1  0
 25 59  1  0
 26 27  1  0
 27 60  1  0
 27 61  1  0
M  END
>  <i_m_ct_stereo_status>  (380) 
1

>  <s_m_source_file>  (380) 
/var/tmp/pbs.5076255.sched01/tmpxmhsyh4a/135ajud44o5.sdf

>  <i_m_source_file_index>  (380) 
22

>  <i_lp_mmshare_version>  (380) 
48012

>  <i_f3d_flags>  (380) 
0

>  <s_epik_input>  (380) 
W0NIMl0xW0NIMl1bQ0BIXTJbQ0gyXU9bQ0BAXTMoW09IXSlbQ0BdMShbQ0gzXSlbQ0BIXTNbQ0BIXShDNChbQ0gzXSlbQ0gzXSlbQ0BASF00W0NIMl1DKD1PKVtDQEhdKFtDQF0yNVtDSDNdKVtDQEBdNihbQ0gzXSlbQ0BIXShPNilbQ0gyXVtDSDJdNQ==

>  <s_epik_cmdline>  (380) 
J2VwaWtfcHl0aG9uJywgJy1waHQnLCAnMi4wJywgJy1waCcsICc3LjAnLCAnLXRuJywgJzgnLCAnLW1hJywgJzIwMCcsICctaW1hZScsICc8aW5maWxlLm1hZT4nLCAnLW9tYWUnLCAnPG91dGZpbGUubWFlPic=

>  <r_lp_tautomer_probability>  (380) 
1

>  <r_epik_Ionization_Penalty>  (380) 
7.27682e-08

>  <r_epik_Ionization_Penalty_Charging>  (380) 
0

>  <r_epik_Ionization_Penalty_Neutral>  (380) 
7.27682e-08

>  <r_epik_State_Penalty>  (380) 
-0

>  <r_epik_Charging_Adjusted_Penalty>  (380) 
0

>  <i_epik_Tot_Q>  (380) 
0

>  <i_epik_Tot_abs_Q>  (380) 
0

>  <s_lp_Force_Field>  (380) 
OPLS3e

>  <r_lp_Energy>  (380) 
66.4732

>  <b_lp_Chiralities_Consistent>  (380) 
1

>  <s_lp_Variant>  (380) 
104:0-1

>  <s_i_glide_gridfile>  (380) 
pfpi4k_grid

>  <i_i_glide_lignum>  (380) 
22

>  <i_i_glide_rotatable_bonds>  (380) 
1

>  <r_i_docking_score>  (380) 
-2.61559

>  <r_i_glide_ligand_efficiency>  (380) 
-0.0968737

>  <r_i_glide_ligand_efficiency_sa>  (380) 
-0.290621

>  <r_i_glide_ligand_efficiency_ln>  (380) 
-0.608866

>  <r_i_glide_gscore>  (380) 
-2.61559

>  <r_i_glide_lipo>  (380) 
-0.440706

>  <r_i_glide_hbond>  (380) 
-0.0370379

>  <r_i_glide_metal>  (380) 
-0

>  <r_i_glide_rewards>  (380) 
-0.855589

>  <r_i_glide_evdw>  (380) 
-23.8472

>  <r_i_glide_ecoul>  (380) 
-0.311462

>  <r_i_glide_erotb>  (380) 
0

>  <r_i_glide_esite>  (380) 
-0.0431789

>  <r_i_glide_emodel>  (380) 
-28.8304

>  <r_i_glide_energy>  (380) 
-24.1587

>  <r_i_glide_einternal>  (380) 
0.694851

>  <r_i_glide_intrahb_reward>  (380) 
-0

>  <i_i_glide_confnum>  (380) 
2

>  <i_i_glide_posenum>  (380) 
19

>  <r_i_glide_eff_state_penalty>  (380) 
0

>  <ligand_id>  (380) 
104

>  <original_smiles>  (380) 
CC1(C)C2CC(=O)C3C(C)(CCC4OC43C)C3CCC4(C)C(C21)C4(O)OC3

>  <smiles>  (380) 
[H]OC12OC([H])([H])C3([H])C([H])([H])C([H])([H])C1(C([H])([H])[H])C2([H])C1([H])C([H])(C([H])([H])C(=O)C2([H])C4(C([H])([H])[H])OC4([H])C([H])([H])C([H])([H])C23C([H])([H])[H])C1(C([H])([H])[H])C([H])([H])[H]

$$$$
106:0:0
     RDKit          3D

 65 69  0  0  1  0  0  0  0  0999 V2000
    4.2109   -0.2978    5.8559 C   0  0  0  0  0  0  0  0  0  0  0  0
    5.3503   -0.0797    4.8515 C   0  0  0  0  0  0  0  0  0  0  0  0
    6.3500    0.6087    5.1531 O   0  0  0  0  0  0  0  0  0  0  0  0
    5.2655   -0.6573    3.6220 O   0  0  0  0  0  0  0  0  0  0  0  0
    4.2446   -1.5162    3.0434 C   0  0  1  0  0  0  0  0  0  0  0  0
    4.1793   -2.8907    3.8928 C   0  0  0  0  0  0  0  0  0  0  0  0
    5.0768   -4.1153    3.4561 C   0  0  1  0  0  0  0  0  0  0  0  0
    4.4561   -5.4341    3.9342 C   0  0  0  0  0  0  0  0  0  0  0  0
    5.2312   -3.9841    1.9370 C   0  0  2  0  0  0  0  0  0  0  0  0
    5.2991   -5.0095    0.8120 C   0  0  0  0  0  0  0  0  0  0  0  0
    4.2901   -4.5948   -0.3192 C   0  0  0  0  0  0  0  0  0  0  0  0
    4.1035   -3.0832   -0.7788 C   0  0  0  0  0  0  0  0  0  0  0  0
    5.2227   -2.6941   -1.7810 C   0  0  0  0  0  0  0  0  0  0  0  0
    2.8119   -3.0693   -1.6274 C   0  0  0  0  0  0  0  0  0  0  0  0
    3.8480   -2.0324    0.3767 C   0  0  2  0  0  0  0  0  0  0  0  0
    4.5772   -0.6996    0.4987 C   0  0  1  0  0  0  0  0  0  0  0  0
    3.7651    0.4095    0.8914 O   0  0  0  0  0  0  0  0  0  0  0  0
    2.9498    0.4910    1.9560 C   0  0  0  0  0  0  0  0  0  0  0  0
    2.2232    1.4689    2.1103 O   0  0  0  0  0  0  0  0  0  0  0  0
    2.9250   -0.6408    3.0047 C   0  0  1  0  0  0  0  0  0  0  0  0
    1.5641   -1.3970    2.8962 C   0  0  0  0  0  0  0  0  0  0  0  0
    0.8007   -1.1639    4.1605 N   0  0  0  0  0  0  0  0  0  0  0  0
   -0.1260   -0.0105    4.1380 C   0  0  0  0  0  0  0  0  0  0  0  0
   -1.0704   -0.2322    5.3311 C   0  0  0  0  0  0  0  0  0  0  0  0
   -0.9955   -1.7372    5.6304 C   0  0  0  0  0  0  0  0  0  0  0  0
   -0.0133   -2.2994    4.5963 C   0  0  0  0  0  0  0  0  0  0  0  0
    4.7817   -1.7261    1.5743 C   0  0  1  0  0  0  0  0  0  0  0  0
    5.9396   -2.6530    1.6532 C   0  0  2  0  0  0  0  0  0  0  0  0
    6.8793   -2.5939    0.5995 O   0  0  0  0  0  0  0  0  0  0  0  0
    4.0026   -1.3347    6.0117 H   0  0  0  0  0  0  0  0  0  0  0  0
    3.3226    0.2631    5.5558 H   0  0  0  0  0  0  0  0  0  0  0  0
    4.5605    0.1282    6.8263 H   0  0  0  0  0  0  0  0  0  0  0  0
    4.4345   -2.7222    4.9158 H   0  0  0  0  0  0  0  0  0  0  0  0
    3.1598   -3.3007    3.8370 H   0  0  0  0  0  0  0  0  0  0  0  0
    6.0616   -4.0448    3.9173 H   0  0  0  0  0  0  0  0  0  0  0  0
    3.4482   -5.5659    3.5367 H   0  0  0  0  0  0  0  0  0  0  0  0
    4.3641   -5.4109    5.0242 H   0  0  0  0  0  0  0  0  0  0  0  0
    5.0562   -6.3061    3.6706 H   0  0  0  0  0  0  0  0  0  0  0  0
    4.1516   -3.8993    1.8210 H   0  0  0  0  0  0  0  0  0  0  0  0
    6.3181   -5.1192    0.4334 H   0  0  0  0  0  0  0  0  0  0  0  0
    5.0090   -5.9887    1.1959 H   0  0  0  0  0  0  0  0  0  0  0  0
    4.5651   -5.1925   -1.1889 H   0  0  0  0  0  0  0  0  0  0  0  0
    3.3118   -4.9689   -0.0039 H   0  0  0  0  0  0  0  0  0  0  0  0
    5.3775   -1.6195   -1.8565 H   0  0  0  0  0  0  0  0  0  0  0  0
    4.9846   -3.0365   -2.7876 H   0  0  0  0  0  0  0  0  0  0  0  0
    6.1713   -3.1751   -1.5616 H   0  0  0  0  0  0  0  0  0  0  0  0
    2.6250   -2.0739   -2.0240 H   0  0  0  0  0  0  0  0  0  0  0  0
    1.9327   -3.3432   -1.0398 H   0  0  0  0  0  0  0  0  0  0  0  0
    2.8648   -3.7624   -2.4730 H   0  0  0  0  0  0  0  0  0  0  0  0
    2.8045   -2.0412    0.6459 H   0  0  0  0  0  0  0  0  0  0  0  0
    5.4343   -0.4413   -0.1392 H   0  0  0  0  0  0  0  0  0  0  0  0
    2.9141   -0.0140    3.8615 H   0  0  0  0  0  0  0  0  0  0  0  0
    0.9771   -1.0816    2.0279 H   0  0  0  0  0  0  0  0  0  0  0  0
    1.6925   -2.4576    2.6639 H   0  0  0  0  0  0  0  0  0  0  0  0
    0.3722    0.9617    4.1611 H   0  0  0  0  0  0  0  0  0  0  0  0
   -0.7227   -0.0561    3.2309 H   0  0  0  0  0  0  0  0  0  0  0  0
   -0.7253    0.3383    6.1963 H   0  0  0  0  0  0  0  0  0  0  0  0
   -2.0872    0.1018    5.1057 H   0  0  0  0  0  0  0  0  0  0  0  0
   -0.6129   -1.9059    6.6375 H   0  0  0  0  0  0  0  0  0  0  0  0
   -1.9677   -2.2291    5.5713 H   0  0  0  0  0  0  0  0  0  0  0  0
   -0.5755   -2.6455    3.7338 H   0  0  0  0  0  0  0  0  0  0  0  0
    0.5736   -3.1390    4.9741 H   0  0  0  0  0  0  0  0  0  0  0  0
    6.5656   -2.3636    2.4929 H   0  0  0  0  0  0  0  0  0  0  0  0
    7.5660   -3.2251    0.7986 H   0  0  0  0  0  0  0  0  0  0  0  0
    1.4368   -0.9864    4.9334 H   0  0  0  0  0  0  0  0  0  0  0  0
  1  2  1  0
  1 30  1  0
  1 31  1  0
  1 32  1  0
  2  3  2  0
  2  4  1  0
  5  4  1  1
  5 20  1  0
 27  5  1  1
  5  6  1  0
  6  7  1  0
  6 33  1  0
  6 34  1  0
  7  8  1  0
  7  9  1  0
  7 35  1  1
  8 36  1  0
  8 37  1  0
  8 38  1  0
  9 28  1  0
  9 10  1  0
  9 39  1  6
 10 11  1  0
 10 40  1  0
 10 41  1  0
 11 12  1  0
 11 42  1  0
 11 43  1  0
 12 13  1  0
 12 14  1  0
 12 15  1  0
 13 44  1  0
 13 45  1  0
 13 46  1  0
 14 47  1  0
 14 48  1  0
 14 49  1  0
 15 27  1  0
 15 16  1  0
 15 50  1  1
 16 17  1  0
 16 27  1  0
 16 51  1  6
 17 18  1  0
 18 19  2  0
 18 20  1  0
 20 21  1  0
 20 52  1  1
 21 22  1  0
 21 53  1  0
 21 54  1  0
 22 26  1  0
 22 23  1  0
 22 65  1  0
 23 24  1  0
 23 55  1  0
 23 56  1  0
 24 25  1  0
 24 57  1  0
 24 58  1  0
 25 26  1  0
 25 59  1  0
 25 60  1  0
 26 61  1  0
 26 62  1  0
 27 28  1  0
 28 29  1  0
 28 63  1  1
 29 64  1  0
M  CHG  1  22   1
M  END
>  <i_m_ct_stereo_status>  (381) 
1

>  <s_m_source_file>  (381) 
/var/tmp/pbs.5076255.sched01/tmpxmhsyh4a/135ajud44o5.sdf

>  <i_m_source_file_index>  (381) 
24

>  <i_lp_mmshare_version>  (381) 
48012

>  <i_f3d_flags>  (381) 
0

>  <s_epik_input>  (381) 
W0NIM11DKD1PKU9bQ0BAXTEoW0NAQF0yMzQpW0NIMl1bQ0BASF0oW0NIM10pW0NAQEhdKFtDSF00W09IXSlbQ0gyXVtDSDJdQyhbQ0gzXSkoW0NIM10pW0NAQEhdMltDQEhdM09DKD1PKVtDQEhdMVtDSDJdTjVbQ0gyXVtDSDJdW0NIMl1bQ0gyXTU=

>  <s_epik_cmdline>  (381) 
J2VwaWtfcHl0aG9uJywgJy1waHQnLCAnMi4wJywgJy1waCcsICc3LjAnLCAnLXRuJywgJzgnLCAnLW1hJywgJzIwMCcsICctaW1hZScsICc8aW5maWxlLm1hZT4nLCAnLW9tYWUnLCAnPG91dGZpbGUubWFlPic=

>  <r_epik_Ionization_Penalty>  (381) 
0.017729

>  <r_epik_Ionization_Penalty_Charging>  (381) 
0.0177289

>  <r_epik_Ionization_Penalty_Neutral>  (381) 
7.7054e-08

>  <r_epik_State_Penalty>  (381) 
0.0140682

>  <r_epik_Charging_Adjusted_Penalty>  (381) 
0.0317971

>  <i_epik_Tot_Q>  (381) 
1

>  <i_epik_Tot_abs_Q>  (381) 
1

>  <s_epik_Chemistry_Notes>  (381) 
This compound has an ester and may undergo hydrolysis at high or low pH.

>  <s_lp_Force_Field>  (381) 
OPLS3e

>  <r_lp_Energy>  (381) 
104.315

>  <b_lp_Chiralities_Consistent>  (381) 
1

>  <s_lp_Variant>  (381) 
106:0-1

>  <s_i_glide_gridfile>  (381) 
pfpi4k_grid

>  <i_i_glide_lignum>  (381) 
24

>  <i_i_glide_rotatable_bonds>  (381) 
5

>  <r_i_docking_score>  (381) 
-3.02891

>  <r_i_glide_ligand_efficiency>  (381) 
-0.104445

>  <r_i_glide_ligand_efficiency_sa>  (381) 
-0.320888

>  <r_i_glide_ligand_efficiency_ln>  (381) 
-0.693543

>  <r_i_glide_gscore>  (381) 
-3.02891

>  <r_i_glide_lipo>  (381) 
-0.453582

>  <r_i_glide_hbond>  (381) 
0

>  <r_i_glide_metal>  (381) 
-0

>  <r_i_glide_rewards>  (381) 
-0.830694

>  <r_i_glide_evdw>  (381) 
-29.5744

>  <r_i_glide_ecoul>  (381) 
-4.11893

>  <r_i_glide_erotb>  (381) 
0.356926

>  <r_i_glide_esite>  (381) 
-0.0049997

>  <r_i_glide_emodel>  (381) 
-35.398

>  <r_i_glide_energy>  (381) 
-33.6933

>  <r_i_glide_einternal>  (381) 
6.77195

>  <r_i_glide_intrahb_reward>  (381) 
-0

>  <i_i_glide_confnum>  (381) 
2

>  <i_i_glide_posenum>  (381) 
5

>  <r_i_glide_eff_state_penalty>  (381) 
0

>  <ligand_id>  (381) 
106

>  <original_smiles>  (381) 
CC(=O)OC12CC(C)C3CCC(C)(C)C4C(OC(=O)C1CN1CCCC1)C42C3O

>  <smiles>  (381) 
[H]OC1([H])C2([H])C([H])([H])C([H])([H])C(C([H])([H])[H])(C([H])([H])[H])C3([H])C4([H])OC(=O)C([H])(C([H])([H])[N+]5([H])C([H])([H])C([H])([H])C([H])([H])C5([H])[H])C(OC(=O)C([H])([H])[H])(C([H])([H])C2([H])C([H])([H])[H])C143

$$$$
106:0:1
     RDKit          3D

 65 69  0  0  1  0  0  0  0  0999 V2000
    1.5114    6.2362    3.4712 C   0  0  0  0  0  0  0  0  0  0  0  0
    1.0519    5.3169    4.5849 C   0  0  0  0  0  0  0  0  0  0  0  0
    0.6047    5.7655    5.6452 O   0  0  0  0  0  0  0  0  0  0  0  0
    1.2268    4.0215    4.2519 O   0  0  0  0  0  0  0  0  0  0  0  0
    1.0222    2.8706    5.1087 C   0  0  1  0  0  0  0  0  0  0  0  0
    2.1737    2.9271    6.2546 C   0  0  0  0  0  0  0  0  0  0  0  0
    3.5833    2.2496    5.9730 C   0  0  1  0  0  0  0  0  0  0  0  0
    4.2649    1.8161    7.2870 C   0  0  0  0  0  0  0  0  0  0  0  0
    3.2584    1.0951    5.0313 C   0  0  2  0  0  0  0  0  0  0  0  0
    3.8353   -0.3223    4.8695 C   0  0  0  0  0  0  0  0  0  0  0  0
    2.6525   -1.3663    4.8125 C   0  0  0  0  0  0  0  0  0  0  0  0
    1.3161   -1.0840    4.0037 C   0  0  0  0  0  0  0  0  0  0  0  0
    1.5314   -1.3998    2.5022 C   0  0  0  0  0  0  0  0  0  0  0  0
    0.3089   -2.1537    4.4795 C   0  0  0  0  0  0  0  0  0  0  0  0
    0.6221    0.2884    4.2983 C   0  0  2  0  0  0  0  0  0  0  0  0
    0.1257    1.2501    3.2256 C   0  0  1  0  0  0  0  0  0  0  0  0
   -1.1797    1.7325    3.5303 O   0  0  0  0  0  0  0  0  0  0  0  0
   -1.5079    2.5797    4.5464 C   0  0  0  0  0  0  0  0  0  0  0  0
   -2.6362    3.0480    4.7147 O   0  0  0  0  0  0  0  0  0  0  0  0
   -0.4561    2.8640    5.6155 C   0  0  1  0  0  0  0  0  0  0  0  0
   -0.7799    2.0588    6.9219 C   0  0  0  0  0  0  0  0  0  0  0  0
   -1.3655    2.9402    7.9994 N   0  0  0  0  0  0  0  0  0  0  0  0
   -2.7648    3.3501    7.7822 C   0  0  0  0  0  0  0  0  0  0  0  0
   -3.2460    3.8898    9.1307 C   0  0  0  0  0  0  0  0  0  0  0  0
   -2.3177    3.2524   10.1682 C   0  0  0  0  0  0  0  0  0  0  0  0
   -1.3438    2.3820    9.3615 C   0  0  0  0  0  0  0  0  0  0  0  0
    1.2251    1.7055    4.1167 C   0  0  1  0  0  0  0  0  0  0  0  0
    2.6647    1.7052    3.7635 C   0  0  2  0  0  0  0  0  0  0  0  0
    2.9969    1.1394    2.5399 O   0  0  0  0  0  0  0  0  0  0  0  0
    0.9790    6.0254    2.5439 H   0  0  0  0  0  0  0  0  0  0  0  0
    2.5764    6.1082    3.2881 H   0  0  0  0  0  0  0  0  0  0  0  0
    1.3381    7.2838    3.7219 H   0  0  0  0  0  0  0  0  0  0  0  0
    2.3432    3.9542    6.5639 H   0  0  0  0  0  0  0  0  0  0  0  0
    1.8525    2.4459    7.1797 H   0  0  0  0  0  0  0  0  0  0  0  0
    4.2566    2.9654    5.4732 H   0  0  0  0  0  0  0  0  0  0  0  0
    3.6455    1.1070    7.8484 H   0  0  0  0  0  0  0  0  0  0  0  0
    4.4366    2.6745    7.9398 H   0  0  0  0  0  0  0  0  0  0  0  0
    5.2260    1.3365    7.1070 H   0  0  0  0  0  0  0  0  0  0  0  0
    2.4955    0.7252    5.7142 H   0  0  0  0  0  0  0  0  0  0  0  0
    4.4718   -0.3987    3.9876 H   0  0  0  0  0  0  0  0  0  0  0  0
    4.4708   -0.5779    5.7235 H   0  0  0  0  0  0  0  0  0  0  0  0
    3.0724   -2.3117    4.4596 H   0  0  0  0  0  0  0  0  0  0  0  0
    2.3808   -1.5752    5.8504 H   0  0  0  0  0  0  0  0  0  0  0  0
    0.8208   -0.9077    1.8430 H   0  0  0  0  0  0  0  0  0  0  0  0
    1.4290   -2.4642    2.2969 H   0  0  0  0  0  0  0  0  0  0  0  0
    2.5331   -1.1650    2.1541 H   0  0  0  0  0  0  0  0  0  0  0  0
   -0.6315   -2.0668    3.9419 H   0  0  0  0  0  0  0  0  0  0  0  0
    0.0846   -2.0668    5.5423 H   0  0  0  0  0  0  0  0  0  0  0  0
    0.6834   -3.1665    4.3163 H   0  0  0  0  0  0  0  0  0  0  0  0
    0.0284    0.2242    5.1949 H   0  0  0  0  0  0  0  0  0  0  0  0
    0.3178    1.1097    2.1706 H   0  0  0  0  0  0  0  0  0  0  0  0
   -0.6820    3.8878    5.9152 H   0  0  0  0  0  0  0  0  0  0  0  0
   -1.4633    1.2494    6.7000 H   0  0  0  0  0  0  0  0  0  0  0  0
    0.0600    1.5023    7.3296 H   0  0  0  0  0  0  0  0  0  0  0  0
   -2.8807    4.0956    6.9976 H   0  0  0  0  0  0  0  0  0  0  0  0
   -3.3589    2.4786    7.5190 H   0  0  0  0  0  0  0  0  0  0  0  0
   -3.1402    4.9729    9.1516 H   0  0  0  0  0  0  0  0  0  0  0  0
   -4.2994    3.6563    9.2976 H   0  0  0  0  0  0  0  0  0  0  0  0
   -1.7684    4.0209   10.7077 H   0  0  0  0  0  0  0  0  0  0  0  0
   -2.8611    2.6545   10.9011 H   0  0  0  0  0  0  0  0  0  0  0  0
   -1.7344    1.3735    9.3063 H   0  0  0  0  0  0  0  0  0  0  0  0
   -0.3409    2.3315    9.7960 H   0  0  0  0  0  0  0  0  0  0  0  0
    3.0463    2.7250    3.6315 H   0  0  0  0  0  0  0  0  0  0  0  0
    3.7681    1.5815    2.1955 H   0  0  0  0  0  0  0  0  0  0  0  0
   -0.8337    3.7940    8.0698 H   0  0  0  0  0  0  0  0  0  0  0  0
  1  2  1  0
  1 30  1  0
  1 31  1  0
  1 32  1  0
  2  3  2  0
  2  4  1  0
  5  4  1  6
  5 20  1  0
 27  5  1  1
  5  6  1  0
  6  7  1  0
  6 33  1  0
  6 34  1  0
  7  8  1  0
  7  9  1  0
  7 35  1  6
  8 36  1  0
  8 37  1  0
  8 38  1  0
  9 28  1  0
  9 10  1  0
  9 39  1  1
 10 11  1  0
 10 40  1  0
 10 41  1  0
 11 12  1  0
 11 42  1  0
 11 43  1  0
 12 13  1  0
 12 14  1  0
 12 15  1  0
 13 44  1  0
 13 45  1  0
 13 46  1  0
 14 47  1  0
 14 48  1  0
 14 49  1  0
 15 27  1  0
 15 16  1  0
 15 50  1  1
 16 17  1  0
 16 27  1  0
 16 51  1  6
 17 18  1  0
 18 19  2  0
 18 20  1  0
 20 21  1  0
 20 52  1  1
 21 22  1  0
 21 53  1  0
 21 54  1  0
 22 26  1  0
 22 23  1  0
 22 65  1  0
 23 24  1  0
 23 55  1  0
 23 56  1  0
 24 25  1  0
 24 57  1  0
 24 58  1  0
 25 26  1  0
 25 59  1  0
 25 60  1  0
 26 61  1  0
 26 62  1  0
 27 28  1  0
 28 29  1  0
 28 63  1  6
 29 64  1  0
M  CHG  1  22   1
M  END
>  <i_m_ct_stereo_status>  (382) 
1

>  <s_m_source_file>  (382) 
/var/tmp/pbs.5076255.sched01/tmpxmhsyh4a/135ajud44o5.sdf

>  <i_m_source_file_index>  (382) 
24

>  <i_lp_mmshare_version>  (382) 
48012

>  <i_f3d_flags>  (382) 
0

>  <s_epik_input>  (382) 
W0NIM11DKD1PKU9bQ0BAXTEoW0NAQF0yMzQpW0NIMl1bQ0BASF0oW0NIM10pW0NAQEhdKFtDSF00W09IXSlbQ0gyXVtDSDJdQyhbQ0gzXSkoW0NIM10pW0NAQEhdMltDQEhdM09DKD1PKVtDQEhdMVtDSDJdTjVbQ0gyXVtDSDJdW0NIMl1bQ0gyXTU=

>  <s_epik_cmdline>  (382) 
J2VwaWtfcHl0aG9uJywgJy1waHQnLCAnMi4wJywgJy1waCcsICc3LjAnLCAnLXRuJywgJzgnLCAnLW1hJywgJzIwMCcsICctaW1hZScsICc8aW5maWxlLm1hZT4nLCAnLW9tYWUnLCAnPG91dGZpbGUubWFlPic=

>  <r_epik_Ionization_Penalty>  (382) 
0.017729

>  <r_epik_Ionization_Penalty_Charging>  (382) 
0.0177289

>  <r_epik_Ionization_Penalty_Neutral>  (382) 
7.7054e-08

>  <r_epik_State_Penalty>  (382) 
0.0140682

>  <r_epik_Charging_Adjusted_Penalty>  (382) 
0.0317971

>  <i_epik_Tot_Q>  (382) 
1

>  <i_epik_Tot_abs_Q>  (382) 
1

>  <s_epik_Chemistry_Notes>  (382) 
This compound has an ester and may undergo hydrolysis at high or low pH.

>  <s_lp_Force_Field>  (382) 
OPLS3e

>  <r_lp_Energy>  (382) 
104.315

>  <b_lp_Chiralities_Consistent>  (382) 
1

>  <s_lp_Variant>  (382) 
106:0-1

>  <s_i_glide_gridfile>  (382) 
pfpi4k_grid

>  <i_i_glide_lignum>  (382) 
24

>  <i_i_glide_rotatable_bonds>  (382) 
5

>  <r_i_docking_score>  (382) 
-2.65976

>  <r_i_glide_ligand_efficiency>  (382) 
-0.0917157

>  <r_i_glide_ligand_efficiency_sa>  (382) 
-0.28178

>  <r_i_glide_ligand_efficiency_ln>  (382) 
-0.609016

>  <r_i_glide_gscore>  (382) 
-2.65976

>  <r_i_glide_lipo>  (382) 
-0.223595

>  <r_i_glide_hbond>  (382) 
-0.32

>  <r_i_glide_metal>  (382) 
-0

>  <r_i_glide_rewards>  (382) 
-0.637257

>  <r_i_glide_evdw>  (382) 
-27.2876

>  <r_i_glide_ecoul>  (382) 
-2.82687

>  <r_i_glide_erotb>  (382) 
0.356926

>  <r_i_glide_esite>  (382) 
-0.0474177

>  <r_i_glide_emodel>  (382) 
-33.0452

>  <r_i_glide_energy>  (382) 
-30.1145

>  <r_i_glide_einternal>  (382) 
2.77305

>  <r_i_glide_intrahb_reward>  (382) 
-0

>  <i_i_glide_confnum>  (382) 
2

>  <i_i_glide_posenum>  (382) 
10

>  <r_i_glide_eff_state_penalty>  (382) 
0

>  <ligand_id>  (382) 
106

>  <original_smiles>  (382) 
CC(=O)OC12CC(C)C3CCC(C)(C)C4C(OC(=O)C1CN1CCCC1)C42C3O

>  <smiles>  (382) 
[H]OC1([H])C2([H])C([H])([H])C([H])([H])C(C([H])([H])[H])(C([H])([H])[H])C3([H])C4([H])OC(=O)C([H])(C([H])([H])[N+]5([H])C([H])([H])C([H])([H])C([H])([H])C5([H])[H])C(OC(=O)C([H])([H])[H])(C([H])([H])C2([H])C([H])([H])[H])C143

$$$$
106:0:2
     RDKit          3D

 65 69  0  0  1  0  0  0  0  0999 V2000
    0.6079    7.3262    4.9152 C   0  0  0  0  0  0  0  0  0  0  0  0
    0.5609    6.1277    5.8583 C   0  0  0  0  0  0  0  0  0  0  0  0
    0.4441    6.2620    7.0703 O   0  0  0  0  0  0  0  0  0  0  0  0
    0.6502    4.9659    5.1745 O   0  0  0  0  0  0  0  0  0  0  0  0
    0.7531    3.6380    5.7552 C   0  0  1  0  0  0  0  0  0  0  0  0
    2.1296    3.5421    6.6122 C   0  0  0  0  0  0  0  0  0  0  0  0
    3.4742    3.1336    5.8681 C   0  0  1  0  0  0  0  0  0  0  0  0
    4.4876    2.5098    6.8462 C   0  0  0  0  0  0  0  0  0  0  0  0
    3.0105    2.1938    4.7583 C   0  0  2  0  0  0  0  0  0  0  0  0
    3.6224    0.9263    4.1366 C   0  0  0  0  0  0  0  0  0  0  0  0
    2.5338   -0.2113    4.0829 C   0  0  0  0  0  0  0  0  0  0  0  0
    1.0260    0.0858    3.6831 C   0  0  0  0  0  0  0  0  0  0  0  0
    0.8902    0.1435    2.1397 C   0  0  0  0  0  0  0  0  0  0  0  0
    0.2334   -1.1763    4.0876 C   0  0  0  0  0  0  0  0  0  0  0  0
    0.3333    1.2644    4.4538 C   0  0  2  0  0  0  0  0  0  0  0  0
   -0.4738    2.3723    3.7922 C   0  0  1  0  0  0  0  0  0  0  0  0
   -1.6976    2.6379    4.4828 O   0  0  0  0  0  0  0  0  0  0  0  0
   -1.8191    3.1410    5.7489 C   0  0  0  0  0  0  0  0  0  0  0  0
   -2.8994    3.3448    6.3107 O   0  0  0  0  0  0  0  0  0  0  0  0
   -0.5492    3.3431    6.5641 C   0  0  1  0  0  0  0  0  0  0  0  0
   -0.4680    2.2404    7.6741 C   0  0  0  0  0  0  0  0  0  0  0  0
   -0.3452    2.8221    9.0559 N   0  0  0  0  0  0  0  0  0  0  0  0
   -1.5512    3.4959    9.5830 C   0  0  0  0  0  0  0  0  0  0  0  0
   -1.2740    3.6690   11.0805 C   0  0  0  0  0  0  0  0  0  0  0  0
   -0.2324    2.5952   11.4268 C   0  0  0  0  0  0  0  0  0  0  0  0
    0.0419    1.8626   10.1070 C   0  0  0  0  0  0  0  0  0  0  0  0
    0.7830    2.7497    4.4918 C   0  0  1  0  0  0  0  0  0  0  0  0
    2.0919    3.0043    3.8444 C   0  0  2  0  0  0  0  0  0  0  0  0
    2.1521    2.7646    2.4764 O   0  0  0  0  0  0  0  0  0  0  0  0
   -0.1697    7.2627    4.1549 H   0  0  0  0  0  0  0  0  0  0  0  0
    1.5632    7.3516    4.3968 H   0  0  0  0  0  0  0  0  0  0  0  0
    0.4887    8.2670    5.4537 H   0  0  0  0  0  0  0  0  0  0  0  0
    2.3140    4.4739    7.1396 H   0  0  0  0  0  0  0  0  0  0  0  0
    2.0240    2.8086    7.4232 H   0  0  0  0  0  0  0  0  0  0  0  0
    3.9587    4.0196    5.4245 H   0  0  0  0  0  0  0  0  0  0  0  0
    4.0826    1.6232    7.3449 H   0  0  0  0  0  0  0  0  0  0  0  0
    4.7635    3.2177    7.6310 H   0  0  0  0  0  0  0  0  0  0  0  0
    5.4044    2.2086    6.3435 H   0  0  0  0  0  0  0  0  0  0  0  0
    2.4610    1.5890    5.4784 H   0  0  0  0  0  0  0  0  0  0  0  0
    4.0234    1.1199    3.1438 H   0  0  0  0  0  0  0  0  0  0  0  0
    4.4652    0.5696    4.7358 H   0  0  0  0  0  0  0  0  0  0  0  0
    2.9164   -0.9922    3.4221 H   0  0  0  0  0  0  0  0  0  0  0  0
    2.5381   -0.6818    5.0689 H   0  0  0  0  0  0  0  0  0  0  0  0
    0.0076    0.6757    1.7933 H   0  0  0  0  0  0  0  0  0  0  0  0
    0.8135   -0.8525    1.7039 H   0  0  0  0  0  0  0  0  0  0  0  0
    1.7589    0.5649    1.6426 H   0  0  0  0  0  0  0  0  0  0  0  0
   -0.8148   -1.0799    3.8126 H   0  0  0  0  0  0  0  0  0  0  0  0
    0.2726   -1.3576    5.1622 H   0  0  0  0  0  0  0  0  0  0  0  0
    0.6214   -2.0745    3.6022 H   0  0  0  0  0  0  0  0  0  0  0  0
   -0.0284    0.9202    5.4080 H   0  0  0  0  0  0  0  0  0  0  0  0
   -0.5345    2.4895    2.7171 H   0  0  0  0  0  0  0  0  0  0  0  0
   -0.7767    4.2501    7.1239 H   0  0  0  0  0  0  0  0  0  0  0  0
   -1.3506    1.6070    7.6635 H   0  0  0  0  0  0  0  0  0  0  0  0
    0.3395    1.5305    7.4775 H   0  0  0  0  0  0  0  0  0  0  0  0
   -1.7853    4.4423    9.0897 H   0  0  0  0  0  0  0  0  0  0  0  0
   -2.4065    2.8363    9.4602 H   0  0  0  0  0  0  0  0  0  0  0  0
   -0.8655    4.6608   11.2695 H   0  0  0  0  0  0  0  0  0  0  0  0
   -2.1875    3.5667   11.6691 H   0  0  0  0  0  0  0  0  0  0  0  0
    0.6819    3.0602   11.7899 H   0  0  0  0  0  0  0  0  0  0  0  0
   -0.5851    1.9047   12.1975 H   0  0  0  0  0  0  0  0  0  0  0  0
   -0.6094    0.9932   10.0406 H   0  0  0  0  0  0  0  0  0  0  0  0
    1.0750    1.5135   10.0105 H   0  0  0  0  0  0  0  0  0  0  0  0
    2.3687    4.0636    3.8845 H   0  0  0  0  0  0  0  0  0  0  0  0
    1.5436    3.3299    2.0086 H   0  0  0  0  0  0  0  0  0  0  0  0
    0.3834    3.5210    9.0606 H   0  0  0  0  0  0  0  0  0  0  0  0
  1  2  1  0
  1 30  1  0
  1 31  1  0
  1 32  1  0
  2  3  2  0
  2  4  1  0
  5  4  1  6
  5 20  1  0
 27  5  1  1
  5  6  1  0
  6  7  1  0
  6 33  1  0
  6 34  1  0
  7  8  1  0
  7  9  1  0
  7 35  1  6
  8 36  1  0
  8 37  1  0
  8 38  1  0
  9 28  1  0
  9 10  1  0
  9 39  1  1
 10 11  1  0
 10 40  1  0
 10 41  1  0
 11 12  1  0
 11 42  1  0
 11 43  1  0
 12 13  1  0
 12 14  1  0
 12 15  1  0
 13 44  1  0
 13 45  1  0
 13 46  1  0
 14 47  1  0
 14 48  1  0
 14 49  1  0
 15 27  1  0
 15 16  1  0
 15 50  1  1
 16 17  1  0
 16 27  1  0
 16 51  1  6
 17 18  1  0
 18 19  2  0
 18 20  1  0
 20 21  1  0
 20 52  1  1
 21 22  1  0
 21 53  1  0
 21 54  1  0
 22 26  1  0
 22 23  1  0
 22 65  1  0
 23 24  1  0
 23 55  1  0
 23 56  1  0
 24 25  1  0
 24 57  1  0
 24 58  1  0
 25 26  1  0
 25 59  1  0
 25 60  1  0
 26 61  1  0
 26 62  1  0
 27 28  1  0
 28 29  1  0
 28 63  1  6
 29 64  1  0
M  CHG  1  22   1
M  END
>  <i_m_ct_stereo_status>  (383) 
1

>  <s_m_source_file>  (383) 
/var/tmp/pbs.5076255.sched01/tmpxmhsyh4a/135ajud44o5.sdf

>  <i_m_source_file_index>  (383) 
24

>  <i_lp_mmshare_version>  (383) 
48012

>  <i_f3d_flags>  (383) 
0

>  <s_epik_input>  (383) 
W0NIM11DKD1PKU9bQ0BAXTEoW0NAQF0yMzQpW0NIMl1bQ0BASF0oW0NIM10pW0NAQEhdKFtDSF00W09IXSlbQ0gyXVtDSDJdQyhbQ0gzXSkoW0NIM10pW0NAQEhdMltDQEhdM09DKD1PKVtDQEhdMVtDSDJdTjVbQ0gyXVtDSDJdW0NIMl1bQ0gyXTU=

>  <s_epik_cmdline>  (383) 
J2VwaWtfcHl0aG9uJywgJy1waHQnLCAnMi4wJywgJy1waCcsICc3LjAnLCAnLXRuJywgJzgnLCAnLW1hJywgJzIwMCcsICctaW1hZScsICc8aW5maWxlLm1hZT4nLCAnLW9tYWUnLCAnPG91dGZpbGUubWFlPic=

>  <r_epik_Ionization_Penalty>  (383) 
0.017729

>  <r_epik_Ionization_Penalty_Charging>  (383) 
0.0177289

>  <r_epik_Ionization_Penalty_Neutral>  (383) 
7.7054e-08

>  <r_epik_State_Penalty>  (383) 
0.0140682

>  <r_epik_Charging_Adjusted_Penalty>  (383) 
0.0317971

>  <i_epik_Tot_Q>  (383) 
1

>  <i_epik_Tot_abs_Q>  (383) 
1

>  <s_epik_Chemistry_Notes>  (383) 
This compound has an ester and may undergo hydrolysis at high or low pH.

>  <s_lp_Force_Field>  (383) 
OPLS3e

>  <r_lp_Energy>  (383) 
104.315

>  <b_lp_Chiralities_Consistent>  (383) 
1

>  <s_lp_Variant>  (383) 
106:0-1

>  <s_i_glide_gridfile>  (383) 
pfpi4k_grid

>  <i_i_glide_lignum>  (383) 
24

>  <i_i_glide_rotatable_bonds>  (383) 
5

>  <r_i_docking_score>  (383) 
-2.11474

>  <r_i_glide_ligand_efficiency>  (383) 
-0.072922

>  <r_i_glide_ligand_efficiency_sa>  (383) 
-0.224039

>  <r_i_glide_ligand_efficiency_ln>  (383) 
-0.484221

>  <r_i_glide_gscore>  (383) 
-2.11474

>  <r_i_glide_lipo>  (383) 
-0.00216358

>  <r_i_glide_hbond>  (383) 
-0.111157

>  <r_i_glide_metal>  (383) 
-0

>  <r_i_glide_rewards>  (383) 
-0.663401

>  <r_i_glide_evdw>  (383) 
-24.7606

>  <r_i_glide_ecoul>  (383) 
-2.88132

>  <r_i_glide_erotb>  (383) 
0.356926

>  <r_i_glide_esite>  (383) 
-0.0247164

>  <r_i_glide_emodel>  (383) 
-30.8984

>  <r_i_glide_energy>  (383) 
-27.6419

>  <r_i_glide_einternal>  (383) 
1.00266

>  <r_i_glide_intrahb_reward>  (383) 
-0

>  <i_i_glide_confnum>  (383) 
2

>  <i_i_glide_posenum>  (383) 
4

>  <r_i_glide_eff_state_penalty>  (383) 
0

>  <ligand_id>  (383) 
106

>  <original_smiles>  (383) 
CC(=O)OC12CC(C)C3CCC(C)(C)C4C(OC(=O)C1CN1CCCC1)C42C3O

>  <smiles>  (383) 
[H]OC1([H])C2([H])C([H])([H])C([H])([H])C(C([H])([H])[H])(C([H])([H])[H])C3([H])C4([H])OC(=O)C([H])(C([H])([H])[N+]5([H])C([H])([H])C([H])([H])C([H])([H])C5([H])[H])C(OC(=O)C([H])([H])[H])(C([H])([H])C2([H])C([H])([H])[H])C143

$$$$
106:1:0
     RDKit          3D

 65 69  0  0  1  0  0  0  0  0999 V2000
    6.6078   -8.8739    1.2885 C   0  0  0  0  0  0  0  0  0  0  0  0
    5.9203   -7.7440    2.0454 C   0  0  0  0  0  0  0  0  0  0  0  0
    6.5393   -6.7454    2.4145 O   0  0  0  0  0  0  0  0  0  0  0  0
    4.6144   -8.0228    2.2657 O   0  0  0  0  0  0  0  0  0  0  0  0
    3.7068   -7.2937    3.1269 C   0  0  1  0  0  0  0  0  0  0  0  0
    4.2785   -7.3934    4.6451 C   0  0  0  0  0  0  0  0  0  0  0  0
    3.8190   -8.6030    5.5567 C   0  0  1  0  0  0  0  0  0  0  0  0
    3.8859   -8.2310    7.0489 C   0  0  0  0  0  0  0  0  0  0  0  0
    2.4062   -8.9085    5.0683 C   0  0  2  0  0  0  0  0  0  0  0  0
    1.1489   -9.4243    5.7703 C   0  0  0  0  0  0  0  0  0  0  0  0
   -0.0887   -8.5818    5.2624 C   0  0  0  0  0  0  0  0  0  0  0  0
   -0.2672   -8.1321    3.7456 C   0  0  0  0  0  0  0  0  0  0  0  0
   -0.8646   -9.2736    2.8821 C   0  0  0  0  0  0  0  0  0  0  0  0
   -1.3746   -7.0678    3.7503 C   0  0  0  0  0  0  0  0  0  0  0  0
    0.9720   -7.4271    3.1030 C   0  0  2  0  0  0  0  0  0  0  0  0
    1.5253   -7.7841    1.7432 C   0  0  1  0  0  0  0  0  0  0  0  0
    1.8075   -6.6079    0.9875 O   0  0  0  0  0  0  0  0  0  0  0  0
    2.8185   -5.7203    1.2331 C   0  0  0  0  0  0  0  0  0  0  0  0
    3.0665   -4.7537    0.5173 O   0  0  0  0  0  0  0  0  0  0  0  0
    3.5595   -5.8433    2.5658 C   0  0  1  0  0  0  0  0  0  0  0  0
    3.0329   -4.7335    3.5439 C   0  0  0  0  0  0  0  0  0  0  0  0
    4.0317   -3.6060    3.7119 N   0  0  0  0  0  0  0  0  0  0  0  0
    4.1829   -2.7106    2.5506 C   0  0  0  0  0  0  0  0  0  0  0  0
    4.9317   -1.4803    3.0788 C   0  0  0  0  0  0  0  0  0  0  0  0
    4.6733   -1.4775    4.5900 C   0  0  0  0  0  0  0  0  0  0  0  0
    3.7859   -2.7066    4.8554 C   0  0  0  0  0  0  0  0  0  0  0  0
    2.3766   -8.0547    2.9221 C   0  0  1  0  0  0  0  0  0  0  0  0
    2.4418   -9.3599    3.6167 C   0  0  1  0  0  0  0  0  0  0  0  0
    3.4908  -10.2617    3.2858 O   0  0  0  0  0  0  0  0  0  0  0  0
    6.0956   -9.0765    0.3555 H   0  0  0  0  0  0  0  0  0  0  0  0
    6.5729   -9.7852    1.8894 H   0  0  0  0  0  0  0  0  0  0  0  0
    7.6519   -8.6374    1.0842 H   0  0  0  0  0  0  0  0  0  0  0  0
    5.3631   -7.3754    4.6468 H   0  0  0  0  0  0  0  0  0  0  0  0
    4.0241   -6.5111    5.2424 H   0  0  0  0  0  0  0  0  0  0  0  0
    4.4838   -9.4724    5.4088 H   0  0  0  0  0  0  0  0  0  0  0  0
    3.2562   -7.3620    7.2809 H   0  0  0  0  0  0  0  0  0  0  0  0
    4.9071   -7.9766    7.3477 H   0  0  0  0  0  0  0  0  0  0  0  0
    3.5538   -9.0516    7.6848 H   0  0  0  0  0  0  0  0  0  0  0  0
    2.0891   -7.8690    5.1806 H   0  0  0  0  0  0  0  0  0  0  0  0
    1.0023  -10.4933    5.5904 H   0  0  0  0  0  0  0  0  0  0  0  0
    1.2273   -9.3101    6.8542 H   0  0  0  0  0  0  0  0  0  0  0  0
   -0.9841   -9.1131    5.5671 H   0  0  0  0  0  0  0  0  0  0  0  0
   -0.1135   -7.6811    5.8796 H   0  0  0  0  0  0  0  0  0  0  0  0
   -0.9046   -9.0321    1.8197 H   0  0  0  0  0  0  0  0  0  0  0  0
   -1.8951   -9.4705    3.1768 H   0  0  0  0  0  0  0  0  0  0  0  0
   -0.3783  -10.2379    2.9916 H   0  0  0  0  0  0  0  0  0  0  0  0
   -1.6000   -6.7311    2.7418 H   0  0  0  0  0  0  0  0  0  0  0  0
   -1.0951   -6.2040    4.3484 H   0  0  0  0  0  0  0  0  0  0  0  0
   -2.3008   -7.4551    4.1680 H   0  0  0  0  0  0  0  0  0  0  0  0
    1.0181   -6.3859    3.3863 H   0  0  0  0  0  0  0  0  0  0  0  0
    1.1557   -8.6221    1.1699 H   0  0  0  0  0  0  0  0  0  0  0  0
    4.5719   -5.5022    2.3283 H   0  0  0  0  0  0  0  0  0  0  0  0
    2.0947   -4.3241    3.1904 H   0  0  0  0  0  0  0  0  0  0  0  0
    2.7268   -5.1002    4.5227 H   0  0  0  0  0  0  0  0  0  0  0  0
    4.7066   -3.1719    1.7067 H   0  0  0  0  0  0  0  0  0  0  0  0
    3.1963   -2.4056    2.2092 H   0  0  0  0  0  0  0  0  0  0  0  0
    5.9951   -1.5878    2.8769 H   0  0  0  0  0  0  0  0  0  0  0  0
    4.5863   -0.5714    2.5841 H   0  0  0  0  0  0  0  0  0  0  0  0
    5.6129   -1.5772    5.1295 H   0  0  0  0  0  0  0  0  0  0  0  0
    4.1892   -0.5601    4.9316 H   0  0  0  0  0  0  0  0  0  0  0  0
    2.7405   -2.4057    4.8377 H   0  0  0  0  0  0  0  0  0  0  0  0
    3.9856   -3.1793    5.8231 H   0  0  0  0  0  0  0  0  0  0  0  0
    1.5818   -9.9315    3.3801 H   0  0  0  0  0  0  0  0  0  0  0  0
    3.3616  -10.5819    2.4002 H   0  0  0  0  0  0  0  0  0  0  0  0
    4.9486   -3.9881    3.8811 H   0  0  0  0  0  0  0  0  0  0  0  0
  1  2  1  0
  1 30  1  0
  1 31  1  0
  1 32  1  0
  2  3  2  0
  2  4  1  0
  5  4  1  6
  5 20  1  0
 27  5  1  6
  5  6  1  0
  6  7  1  0
  6 33  1  0
  6 34  1  0
  7  8  1  0
  7  9  1  0
  7 35  1  1
  8 36  1  0
  8 37  1  0
  8 38  1  0
  9 28  1  0
  9 10  1  0
  9 39  1  6
 10 11  1  0
 10 40  1  0
 10 41  1  0
 11 12  1  0
 11 42  1  0
 11 43  1  0
 12 13  1  0
 12 14  1  0
 12 15  1  0
 13 44  1  0
 13 45  1  0
 13 46  1  0
 14 47  1  0
 14 48  1  0
 14 49  1  0
 15 27  1  0
 15 16  1  0
 15 50  1  6
 16 17  1  0
 16 27  1  0
 16 51  1  6
 17 18  1  0
 18 19  2  0
 18 20  1  0
 20 21  1  0
 20 52  1  6
 21 22  1  0
 21 53  1  0
 21 54  1  0
 22 26  1  0
 22 23  1  0
 22 65  1  0
 23 24  1  0
 23 55  1  0
 23 56  1  0
 24 25  1  0
 24 57  1  0
 24 58  1  0
 25 26  1  0
 25 59  1  0
 25 60  1  0
 26 61  1  0
 26 62  1  0
 27 28  1  0
 28 29  1  0
 28 63  1  6
 29 64  1  0
M  CHG  1  22   1
M  END
>  <i_m_ct_stereo_status>  (384) 
1

>  <s_m_source_file>  (384) 
/var/tmp/pbs.5076255.sched01/tmpxmhsyh4a/135ajud44o5.sdf

>  <i_m_source_file_index>  (384) 
25

>  <i_lp_mmshare_version>  (384) 
48012

>  <i_f3d_flags>  (384) 
0

>  <s_epik_input>  (384) 
W0NIM11DKD1PKU9bQ0BAXTEoW0NAQF0yMzQpW0NIMl1bQ0BASF0oW0NIM10pW0NAQEhdKFtDSF00W09IXSlbQ0gyXVtDSDJdQyhbQ0gzXSkoW0NIM10pW0NAQEhdMltDQEhdM09DKD1PKVtDQEhdMVtDSDJdTjVbQ0gyXVtDSDJdW0NIMl1bQ0gyXTU=

>  <s_epik_cmdline>  (384) 
J2VwaWtfcHl0aG9uJywgJy1waHQnLCAnMi4wJywgJy1waCcsICc3LjAnLCAnLXRuJywgJzgnLCAnLW1hJywgJzIwMCcsICctaW1hZScsICc8aW5maWxlLm1hZT4nLCAnLW9tYWUnLCAnPG91dGZpbGUubWFlPic=

>  <r_epik_Ionization_Penalty>  (384) 
0.017729

>  <r_epik_Ionization_Penalty_Charging>  (384) 
0.0177289

>  <r_epik_Ionization_Penalty_Neutral>  (384) 
7.7054e-08

>  <r_epik_State_Penalty>  (384) 
0.0140682

>  <r_epik_Charging_Adjusted_Penalty>  (384) 
0.0317971

>  <i_epik_Tot_Q>  (384) 
1

>  <i_epik_Tot_abs_Q>  (384) 
1

>  <s_epik_Chemistry_Notes>  (384) 
This compound has an ester and may undergo hydrolysis at high or low pH.

>  <s_lp_Force_Field>  (384) 
OPLS3e

>  <r_lp_Energy>  (384) 
98.4197

>  <b_lp_Chiralities_Consistent>  (384) 
1

>  <s_lp_Variant>  (384) 
106:0-2

>  <s_i_glide_gridfile>  (384) 
pfpi4k_grid

>  <i_i_glide_lignum>  (384) 
25

>  <i_i_glide_rotatable_bonds>  (384) 
5

>  <r_i_docking_score>  (384) 
-2.20556

>  <r_i_glide_ligand_efficiency>  (384) 
-0.0760538

>  <r_i_glide_ligand_efficiency_sa>  (384) 
-0.233661

>  <r_i_glide_ligand_efficiency_ln>  (384) 
-0.505018

>  <r_i_glide_gscore>  (384) 
-2.20556

>  <r_i_glide_lipo>  (384) 
-0.203235

>  <r_i_glide_hbond>  (384) 
0

>  <r_i_glide_metal>  (384) 
-0

>  <r_i_glide_rewards>  (384) 
-0.708791

>  <r_i_glide_evdw>  (384) 
-26.8332

>  <r_i_glide_ecoul>  (384) 
-1.99249

>  <r_i_glide_erotb>  (384) 
0.356926

>  <r_i_glide_esite>  (384) 
-0.00992794

>  <r_i_glide_emodel>  (384) 
-30.8137

>  <r_i_glide_energy>  (384) 
-28.8257

>  <r_i_glide_einternal>  (384) 
2.35675

>  <r_i_glide_intrahb_reward>  (384) 
-0

>  <i_i_glide_confnum>  (384) 
1

>  <i_i_glide_posenum>  (384) 
2

>  <r_i_glide_eff_state_penalty>  (384) 
0

>  <ligand_id>  (384) 
106

>  <original_smiles>  (384) 
CC(=O)OC12CC(C)C3CCC(C)(C)C4C(OC(=O)C1CN1CCCC1)C42C3O

>  <smiles>  (384) 
[H]OC1([H])C2([H])C([H])([H])C([H])([H])C(C([H])([H])[H])(C([H])([H])[H])C3([H])C4([H])OC(=O)C([H])(C([H])([H])[N+]5([H])C([H])([H])C([H])([H])C([H])([H])C5([H])[H])C(OC(=O)C([H])([H])[H])(C([H])([H])C2([H])C([H])([H])[H])C143

$$$$
106:1:1
     RDKit          3D

 65 69  0  0  1  0  0  0  0  0999 V2000
    6.6043   -8.8305    1.2938 C   0  0  0  0  0  0  0  0  0  0  0  0
    5.9070   -7.6993    2.0404 C   0  0  0  0  0  0  0  0  0  0  0  0
    6.5118   -6.6900    2.3875 O   0  0  0  0  0  0  0  0  0  0  0  0
    4.6061   -7.9963    2.2765 O   0  0  0  0  0  0  0  0  0  0  0  0
    3.6906   -7.2657    3.1310 C   0  0  1  0  0  0  0  0  0  0  0  0
    4.2567   -7.3531    4.6511 C   0  0  0  0  0  0  0  0  0  0  0  0
    3.7991   -8.5558    5.5753 C   0  0  1  0  0  0  0  0  0  0  0  0
    3.8617   -8.1706    7.0641 C   0  0  0  0  0  0  0  0  0  0  0  0
    2.3873   -8.8736    5.0892 C   0  0  2  0  0  0  0  0  0  0  0  0
    1.1304   -9.3918    5.7888 C   0  0  0  0  0  0  0  0  0  0  0  0
   -0.1082   -8.5587    5.2691 C   0  0  0  0  0  0  0  0  0  0  0  0
   -0.2820   -8.1231    3.7475 C   0  0  0  0  0  0  0  0  0  0  0  0
   -0.8735   -9.2737    2.8917 C   0  0  0  0  0  0  0  0  0  0  0  0
   -1.3928   -7.0637    3.7405 C   0  0  0  0  0  0  0  0  0  0  0  0
    0.9565   -7.4169    3.1019 C   0  0  2  0  0  0  0  0  0  0  0  0
    1.5149   -7.7826    1.7468 C   0  0  1  0  0  0  0  0  0  0  0  0
    1.7862   -6.6120    0.9821 O   0  0  0  0  0  0  0  0  0  0  0  0
    2.7936   -5.7125    1.2243 C   0  0  0  0  0  0  0  0  0  0  0  0
    3.0382   -4.7534    0.5025 O   0  0  0  0  0  0  0  0  0  0  0  0
    3.5317   -5.8232    2.5603 C   0  0  1  0  0  0  0  0  0  0  0  0
    3.0005   -4.7072    3.5275 C   0  0  0  0  0  0  0  0  0  0  0  0
    3.9961   -3.5832    3.6968 N   0  0  0  0  0  0  0  0  0  0  0  0
    4.1637   -2.6968    2.5286 C   0  0  0  0  0  0  0  0  0  0  0  0
    4.9079   -1.4640    3.0553 C   0  0  0  0  0  0  0  0  0  0  0  0
    4.6314   -1.4473    4.5636 C   0  0  0  0  0  0  0  0  0  0  0  0
    3.7400   -2.6722    4.8283 C   0  0  0  0  0  0  0  0  0  0  0  0
    2.3646   -8.0392    2.9330 C   0  0  1  0  0  0  0  0  0  0  0  0
    2.4306   -9.3364    3.6452 C   0  0  1  0  0  0  0  0  0  0  0  0
    3.4927  -10.2234    3.3235 O   0  0  0  0  0  0  0  0  0  0  0  0
    6.0838   -9.0572    0.3673 H   0  0  0  0  0  0  0  0  0  0  0  0
    6.5935   -9.7304    1.9062 H   0  0  0  0  0  0  0  0  0  0  0  0
    7.6432   -8.5753    1.0674 H   0  0  0  0  0  0  0  0  0  0  0  0
    5.3420   -7.3284    4.6510 H   0  0  0  0  0  0  0  0  0  0  0  0
    3.9948   -6.4648    5.2386 H   0  0  0  0  0  0  0  0  0  0  0  0
    4.4710   -9.4216    5.4399 H   0  0  0  0  0  0  0  0  0  0  0  0
    3.2274   -7.3039    7.2867 H   0  0  0  0  0  0  0  0  0  0  0  0
    4.8808   -7.9104    7.3611 H   0  0  0  0  0  0  0  0  0  0  0  0
    3.5325   -8.9886    7.7045 H   0  0  0  0  0  0  0  0  0  0  0  0
    2.0653   -7.8340    5.1893 H   0  0  0  0  0  0  0  0  0  0  0  0
    0.9888  -10.4626    5.6186 H   0  0  0  0  0  0  0  0  0  0  0  0
    1.2048   -9.2671    6.8722 H   0  0  0  0  0  0  0  0  0  0  0  0
   -1.0060   -9.0863    5.5752 H   0  0  0  0  0  0  0  0  0  0  0  0
   -0.1384   -7.6524    5.8778 H   0  0  0  0  0  0  0  0  0  0  0  0
   -0.9120   -9.0398    1.8276 H   0  0  0  0  0  0  0  0  0  0  0  0
   -1.9045   -9.4724    3.1858 H   0  0  0  0  0  0  0  0  0  0  0  0
   -0.3829  -10.2350    3.0102 H   0  0  0  0  0  0  0  0  0  0  0  0
   -1.6185   -6.7358    2.7288 H   0  0  0  0  0  0  0  0  0  0  0  0
   -1.1199   -6.1948    4.3339 H   0  0  0  0  0  0  0  0  0  0  0  0
   -2.3204   -7.4513    4.1571 H   0  0  0  0  0  0  0  0  0  0  0  0
    0.9941   -6.3736    3.3760 H   0  0  0  0  0  0  0  0  0  0  0  0
    1.1498   -8.6299    1.1816 H   0  0  0  0  0  0  0  0  0  0  0  0
    4.5375   -5.4736    2.3183 H   0  0  0  0  0  0  0  0  0  0  0  0
    2.0636   -4.2969    3.1644 H   0  0  0  0  0  0  0  0  0  0  0  0
    2.6861   -5.0723    4.5062 H   0  0  0  0  0  0  0  0  0  0  0  0
    4.6932   -3.1670    1.6936 H   0  0  0  0  0  0  0  0  0  0  0  0
    3.1803   -2.3933    2.1753 H   0  0  0  0  0  0  0  0  0  0  0  0
    5.9740   -1.5750    2.8677 H   0  0  0  0  0  0  0  0  0  0  0  0
    4.5707   -0.5583    2.5492 H   0  0  0  0  0  0  0  0  0  0  0  0
    5.5646   -1.5442    5.1149 H   0  0  0  0  0  0  0  0  0  0  0  0
    4.1454   -0.5266    4.8913 H   0  0  0  0  0  0  0  0  0  0  0  0
    2.6948   -2.3702    4.7945 H   0  0  0  0  0  0  0  0  0  0  0  0
    3.9255   -3.1371    5.8030 H   0  0  0  0  0  0  0  0  0  0  0  0
    1.5786   -9.9129    3.3920 H   0  0  0  0  0  0  0  0  0  0  0  0
    3.2680  -11.0959    3.6250 H   0  0  0  0  0  0  0  0  0  0  0  0
    4.9128   -3.9652    3.8788 H   0  0  0  0  0  0  0  0  0  0  0  0
  1  2  1  0
  1 30  1  0
  1 31  1  0
  1 32  1  0
  2  3  2  0
  2  4  1  0
  5  4  1  6
  5 20  1  0
 27  5  1  6
  5  6  1  0
  6  7  1  0
  6 33  1  0
  6 34  1  0
  7  8  1  0
  7  9  1  0
  7 35  1  1
  8 36  1  0
  8 37  1  0
  8 38  1  0
  9 28  1  0
  9 10  1  0
  9 39  1  6
 10 11  1  0
 10 40  1  0
 10 41  1  0
 11 12  1  0
 11 42  1  0
 11 43  1  0
 12 13  1  0
 12 14  1  0
 12 15  1  0
 13 44  1  0
 13 45  1  0
 13 46  1  0
 14 47  1  0
 14 48  1  0
 14 49  1  0
 15 27  1  0
 15 16  1  0
 15 50  1  6
 16 17  1  0
 16 27  1  0
 16 51  1  6
 17 18  1  0
 18 19  2  0
 18 20  1  0
 20 21  1  0
 20 52  1  6
 21 22  1  0
 21 53  1  0
 21 54  1  0
 22 26  1  0
 22 23  1  0
 22 65  1  0
 23 24  1  0
 23 55  1  0
 23 56  1  0
 24 25  1  0
 24 57  1  0
 24 58  1  0
 25 26  1  0
 25 59  1  0
 25 60  1  0
 26 61  1  0
 26 62  1  0
 27 28  1  0
 28 29  1  0
 28 63  1  6
 29 64  1  0
M  CHG  1  22   1
M  END
>  <i_m_ct_stereo_status>  (385) 
1

>  <s_m_source_file>  (385) 
/var/tmp/pbs.5076255.sched01/tmpxmhsyh4a/135ajud44o5.sdf

>  <i_m_source_file_index>  (385) 
25

>  <i_lp_mmshare_version>  (385) 
48012

>  <i_f3d_flags>  (385) 
0

>  <s_epik_input>  (385) 
W0NIM11DKD1PKU9bQ0BAXTEoW0NAQF0yMzQpW0NIMl1bQ0BASF0oW0NIM10pW0NAQEhdKFtDSF00W09IXSlbQ0gyXVtDSDJdQyhbQ0gzXSkoW0NIM10pW0NAQEhdMltDQEhdM09DKD1PKVtDQEhdMVtDSDJdTjVbQ0gyXVtDSDJdW0NIMl1bQ0gyXTU=

>  <s_epik_cmdline>  (385) 
J2VwaWtfcHl0aG9uJywgJy1waHQnLCAnMi4wJywgJy1waCcsICc3LjAnLCAnLXRuJywgJzgnLCAnLW1hJywgJzIwMCcsICctaW1hZScsICc8aW5maWxlLm1hZT4nLCAnLW9tYWUnLCAnPG91dGZpbGUubWFlPic=

>  <r_epik_Ionization_Penalty>  (385) 
0.017729

>  <r_epik_Ionization_Penalty_Charging>  (385) 
0.0177289

>  <r_epik_Ionization_Penalty_Neutral>  (385) 
7.7054e-08

>  <r_epik_State_Penalty>  (385) 
0.0140682

>  <r_epik_Charging_Adjusted_Penalty>  (385) 
0.0317971

>  <i_epik_Tot_Q>  (385) 
1

>  <i_epik_Tot_abs_Q>  (385) 
1

>  <s_epik_Chemistry_Notes>  (385) 
This compound has an ester and may undergo hydrolysis at high or low pH.

>  <s_lp_Force_Field>  (385) 
OPLS3e

>  <r_lp_Energy>  (385) 
98.4197

>  <b_lp_Chiralities_Consistent>  (385) 
1

>  <s_lp_Variant>  (385) 
106:0-2

>  <s_i_glide_gridfile>  (385) 
pfpi4k_grid

>  <i_i_glide_lignum>  (385) 
25

>  <i_i_glide_rotatable_bonds>  (385) 
5

>  <r_i_docking_score>  (385) 
-2.17132

>  <r_i_glide_ligand_efficiency>  (385) 
-0.074873

>  <r_i_glide_ligand_efficiency_sa>  (385) 
-0.230034

>  <r_i_glide_ligand_efficiency_ln>  (385) 
-0.497176

>  <r_i_glide_gscore>  (385) 
-2.17132

>  <r_i_glide_lipo>  (385) 
-0.203873

>  <r_i_glide_hbond>  (385) 
0

>  <r_i_glide_metal>  (385) 
-0

>  <r_i_glide_rewards>  (385) 
-0.708449

>  <r_i_glide_evdw>  (385) 
-26.8312

>  <r_i_glide_ecoul>  (385) 
-1.75381

>  <r_i_glide_erotb>  (385) 
0.356926

>  <r_i_glide_esite>  (385) 
-0.0112886

>  <r_i_glide_emodel>  (385) 
-30.444

>  <r_i_glide_energy>  (385) 
-28.585

>  <r_i_glide_einternal>  (385) 
2.35565

>  <r_i_glide_intrahb_reward>  (385) 
-0

>  <i_i_glide_confnum>  (385) 
1

>  <i_i_glide_posenum>  (385) 
33

>  <r_i_glide_eff_state_penalty>  (385) 
0

>  <ligand_id>  (385) 
106

>  <original_smiles>  (385) 
CC(=O)OC12CC(C)C3CCC(C)(C)C4C(OC(=O)C1CN1CCCC1)C42C3O

>  <smiles>  (385) 
[H]OC1([H])C2([H])C([H])([H])C([H])([H])C(C([H])([H])[H])(C([H])([H])[H])C3([H])C4([H])OC(=O)C([H])(C([H])([H])[N+]5([H])C([H])([H])C([H])([H])C([H])([H])C5([H])[H])C(OC(=O)C([H])([H])[H])(C([H])([H])C2([H])C([H])([H])[H])C143

$$$$
106:1:2
     RDKit          3D

 65 69  0  0  1  0  0  0  0  0999 V2000
    7.0440   -7.2080    1.8015 C   0  0  0  0  0  0  0  0  0  0  0  0
    6.0076   -6.2544    2.3930 C   0  0  0  0  0  0  0  0  0  0  0  0
    6.2782   -5.0829    2.6125 O   0  0  0  0  0  0  0  0  0  0  0  0
    4.8289   -6.8838    2.6407 O   0  0  0  0  0  0  0  0  0  0  0  0
    3.6664   -6.3146    3.3030 C   0  0  1  0  0  0  0  0  0  0  0  0
    4.0837   -6.0102    4.8449 C   0  0  0  0  0  0  0  0  0  0  0  0
    3.8604   -7.1271    5.9442 C   0  0  1  0  0  0  0  0  0  0  0  0
    3.6552   -6.5077    7.3390 C   0  0  0  0  0  0  0  0  0  0  0  0
    2.6431   -7.8924    5.4361 C   0  0  2  0  0  0  0  0  0  0  0  0
    1.5020   -8.6296    6.1426 C   0  0  0  0  0  0  0  0  0  0  0  0
    0.1444   -8.2826    5.4099 C   0  0  0  0  0  0  0  0  0  0  0  0
    0.0209   -8.1430    3.8296 C   0  0  0  0  0  0  0  0  0  0  0  0
   -0.1307   -9.5343    3.1657 C   0  0  0  0  0  0  0  0  0  0  0  0
   -1.3350   -7.4574    3.5625 C   0  0  0  0  0  0  0  0  0  0  0  0
    1.0919   -7.2348    3.1432 C   0  0  2  0  0  0  0  0  0  0  0  0
    1.8650   -7.6477    1.9104 C   0  0  1  0  0  0  0  0  0  0  0  0
    1.9026   -6.5850    0.9604 O   0  0  0  0  0  0  0  0  0  0  0  0
    2.6130   -5.4270    1.0888 C   0  0  0  0  0  0  0  0  0  0  0  0
    2.6820   -4.6077    0.1852 O   0  0  0  0  0  0  0  0  0  0  0  0
    3.1889   -5.0852    2.4690 C   0  0  1  0  0  0  0  0  0  0  0  0
    2.2774   -4.0149    3.1759 C   0  0  0  0  0  0  0  0  0  0  0  0
    2.8337   -2.6122    3.0581 N   0  0  0  0  0  0  0  0  0  0  0  0
    2.7665   -2.0050    1.7159 C   0  0  0  0  0  0  0  0  0  0  0  0
    3.0141   -0.5117    1.9195 C   0  0  0  0  0  0  0  0  0  0  0  0
    2.6687   -0.2500    3.3873 C   0  0  0  0  0  0  0  0  0  0  0  0
    2.2271   -1.6115    3.9539 C   0  0  0  0  0  0  0  0  0  0  0  0
    2.6246   -7.4577    3.1699 C   0  0  1  0  0  0  0  0  0  0  0  0
    2.9594   -8.5492    4.1049 C   0  0  1  0  0  0  0  0  0  0  0  0
    4.2393   -9.1550    4.0118 O   0  0  0  0  0  0  0  0  0  0  0  0
    6.6691   -7.6696    0.8840 H   0  0  0  0  0  0  0  0  0  0  0  0
    7.2577   -8.0017    2.5126 H   0  0  0  0  0  0  0  0  0  0  0  0
    7.9805   -6.6923    1.5708 H   0  0  0  0  0  0  0  0  0  0  0  0
    5.1179   -5.6834    4.8988 H   0  0  0  0  0  0  0  0  0  0  0  0
    3.5361   -5.1550    5.2595 H   0  0  0  0  0  0  0  0  0  0  0  0
    4.7454   -7.7828    6.0042 H   0  0  0  0  0  0  0  0  0  0  0  0
    2.7915   -5.8314    7.3570 H   0  0  0  0  0  0  0  0  0  0  0  0
    4.5278   -5.9245    7.6438 H   0  0  0  0  0  0  0  0  0  0  0  0
    3.4860   -7.2716    8.0980 H   0  0  0  0  0  0  0  0  0  0  0  0
    2.0455   -6.9822    5.3311 H   0  0  0  0  0  0  0  0  0  0  0  0
    1.6745   -9.7093    6.1585 H   0  0  0  0  0  0  0  0  0  0  0  0
    1.4206   -8.3177    7.1867 H   0  0  0  0  0  0  0  0  0  0  0  0
   -0.5979   -9.0092    5.7409 H   0  0  0  0  0  0  0  0  0  0  0  0
   -0.1923   -7.3387    5.8446 H   0  0  0  0  0  0  0  0  0  0  0  0
   -0.1028   -9.4880    2.0801 H   0  0  0  0  0  0  0  0  0  0  0  0
   -1.1044   -9.9566    3.3960 H   0  0  0  0  0  0  0  0  0  0  0  0
    0.5757  -10.2924    3.4914 H   0  0  0  0  0  0  0  0  0  0  0  0
   -1.5287   -7.3641    2.4950 H   0  0  0  0  0  0  0  0  0  0  0  0
   -1.3739   -6.4628    4.0021 H   0  0  0  0  0  0  0  0  0  0  0  0
   -2.1626   -8.0232    3.9918 H   0  0  0  0  0  0  0  0  0  0  0  0
    0.8215   -6.1934    3.2260 H   0  0  0  0  0  0  0  0  0  0  0  0
    1.7966   -8.6422    1.4772 H   0  0  0  0  0  0  0  0  0  0  0  0
    4.0786   -4.5012    2.2375 H   0  0  0  0  0  0  0  0  0  0  0  0
    1.2714   -4.0481    2.7754 H   0  0  0  0  0  0  0  0  0  0  0  0
    2.0732   -4.2062    4.2294 H   0  0  0  0  0  0  0  0  0  0  0  0
    3.4993   -2.4086    1.0152 H   0  0  0  0  0  0  0  0  0  0  0  0
    1.7680   -2.1511    1.3119 H   0  0  0  0  0  0  0  0  0  0  0  0
    4.0639   -0.2983    1.7297 H   0  0  0  0  0  0  0  0  0  0  0  0
    2.4165    0.0716    1.2180 H   0  0  0  0  0  0  0  0  0  0  0  0
    3.5520    0.1051    3.9149 H   0  0  0  0  0  0  0  0  0  0  0  0
    1.8837    0.4984    3.5012 H   0  0  0  0  0  0  0  0  0  0  0  0
    1.1442   -1.6998    3.8829 H   0  0  0  0  0  0  0  0  0  0  0  0
    2.5085   -1.7507    5.0041 H   0  0  0  0  0  0  0  0  0  0  0  0
    2.3185   -9.3741    3.9280 H   0  0  0  0  0  0  0  0  0  0  0  0
    4.2703   -9.6483    3.2014 H   0  0  0  0  0  0  0  0  0  0  0  0
    3.8126   -2.6119    3.3021 H   0  0  0  0  0  0  0  0  0  0  0  0
  1  2  1  0
  1 30  1  0
  1 31  1  0
  1 32  1  0
  2  3  2  0
  2  4  1  0
  5  4  1  6
  5 20  1  0
 27  5  1  6
  5  6  1  0
  6  7  1  0
  6 33  1  0
  6 34  1  0
  7  8  1  0
  7  9  1  0
  7 35  1  1
  8 36  1  0
  8 37  1  0
  8 38  1  0
  9 28  1  0
  9 10  1  0
  9 39  1  6
 10 11  1  0
 10 40  1  0
 10 41  1  0
 11 12  1  0
 11 42  1  0
 11 43  1  0
 12 13  1  0
 12 14  1  0
 12 15  1  0
 13 44  1  0
 13 45  1  0
 13 46  1  0
 14 47  1  0
 14 48  1  0
 14 49  1  0
 15 27  1  0
 15 16  1  0
 15 50  1  6
 16 17  1  0
 16 27  1  0
 16 51  1  6
 17 18  1  0
 18 19  2  0
 18 20  1  0
 20 21  1  0
 20 52  1  6
 21 22  1  0
 21 53  1  0
 21 54  1  0
 22 26  1  0
 22 23  1  0
 22 65  1  0
 23 24  1  0
 23 55  1  0
 23 56  1  0
 24 25  1  0
 24 57  1  0
 24 58  1  0
 25 26  1  0
 25 59  1  0
 25 60  1  0
 26 61  1  0
 26 62  1  0
 27 28  1  0
 28 29  1  0
 28 63  1  6
 29 64  1  0
M  CHG  1  22   1
M  END
>  <i_m_ct_stereo_status>  (386) 
1

>  <s_m_source_file>  (386) 
/var/tmp/pbs.5076255.sched01/tmpxmhsyh4a/135ajud44o5.sdf

>  <i_m_source_file_index>  (386) 
25

>  <i_lp_mmshare_version>  (386) 
48012

>  <i_f3d_flags>  (386) 
0

>  <s_epik_input>  (386) 
W0NIM11DKD1PKU9bQ0BAXTEoW0NAQF0yMzQpW0NIMl1bQ0BASF0oW0NIM10pW0NAQEhdKFtDSF00W09IXSlbQ0gyXVtDSDJdQyhbQ0gzXSkoW0NIM10pW0NAQEhdMltDQEhdM09DKD1PKVtDQEhdMVtDSDJdTjVbQ0gyXVtDSDJdW0NIMl1bQ0gyXTU=

>  <s_epik_cmdline>  (386) 
J2VwaWtfcHl0aG9uJywgJy1waHQnLCAnMi4wJywgJy1waCcsICc3LjAnLCAnLXRuJywgJzgnLCAnLW1hJywgJzIwMCcsICctaW1hZScsICc8aW5maWxlLm1hZT4nLCAnLW9tYWUnLCAnPG91dGZpbGUubWFlPic=

>  <r_epik_Ionization_Penalty>  (386) 
0.017729

>  <r_epik_Ionization_Penalty_Charging>  (386) 
0.0177289

>  <r_epik_Ionization_Penalty_Neutral>  (386) 
7.7054e-08

>  <r_epik_State_Penalty>  (386) 
0.0140682

>  <r_epik_Charging_Adjusted_Penalty>  (386) 
0.0317971

>  <i_epik_Tot_Q>  (386) 
1

>  <i_epik_Tot_abs_Q>  (386) 
1

>  <s_epik_Chemistry_Notes>  (386) 
This compound has an ester and may undergo hydrolysis at high or low pH.

>  <s_lp_Force_Field>  (386) 
OPLS3e

>  <r_lp_Energy>  (386) 
98.4197

>  <b_lp_Chiralities_Consistent>  (386) 
1

>  <s_lp_Variant>  (386) 
106:0-2

>  <s_i_glide_gridfile>  (386) 
pfpi4k_grid

>  <i_i_glide_lignum>  (386) 
25

>  <i_i_glide_rotatable_bonds>  (386) 
5

>  <r_i_docking_score>  (386) 
-2.12915

>  <r_i_glide_ligand_efficiency>  (386) 
-0.0734189

>  <r_i_glide_ligand_efficiency_sa>  (386) 
-0.225566

>  <r_i_glide_ligand_efficiency_ln>  (386) 
-0.487521

>  <r_i_glide_gscore>  (386) 
-2.12915

>  <r_i_glide_lipo>  (386) 
-0.0640076

>  <r_i_glide_hbond>  (386) 
0

>  <r_i_glide_metal>  (386) 
-0

>  <r_i_glide_rewards>  (386) 
-0.658533

>  <r_i_glide_evdw>  (386) 
-26.0366

>  <r_i_glide_ecoul>  (386) 
-2.89133

>  <r_i_glide_erotb>  (386) 
0.356926

>  <r_i_glide_esite>  (386) 
-0.0280079

>  <r_i_glide_emodel>  (386) 
-30.7454

>  <r_i_glide_energy>  (386) 
-28.9279

>  <r_i_glide_einternal>  (386) 
2.27418

>  <r_i_glide_intrahb_reward>  (386) 
-0

>  <i_i_glide_confnum>  (386) 
1

>  <i_i_glide_posenum>  (386) 
14

>  <r_i_glide_eff_state_penalty>  (386) 
0

>  <ligand_id>  (386) 
106

>  <original_smiles>  (386) 
CC(=O)OC12CC(C)C3CCC(C)(C)C4C(OC(=O)C1CN1CCCC1)C42C3O

>  <smiles>  (386) 
[H]OC1([H])C2([H])C([H])([H])C([H])([H])C(C([H])([H])[H])(C([H])([H])[H])C3([H])C4([H])OC(=O)C([H])(C([H])([H])[N+]5([H])C([H])([H])C([H])([H])C([H])([H])C5([H])[H])C(OC(=O)C([H])([H])[H])(C([H])([H])C2([H])C([H])([H])[H])C143

$$$$
106:2:0
     RDKit          3D

 64 68  0  0  1  0  0  0  0  0999 V2000
    5.3782  -13.3026    3.0632 C   0  0  0  0  0  0  0  0  0  0  0  0
    5.4018  -11.8489    3.5091 C   0  0  0  0  0  0  0  0  0  0  0  0
    6.4575  -11.3057    3.8432 O   0  0  0  0  0  0  0  0  0  0  0  0
    4.1742  -11.2690    3.4920 O   0  0  0  0  0  0  0  0  0  0  0  0
    3.8444   -9.9131    3.8687 C   0  0  1  0  0  0  0  0  0  0  0  0
    4.1351   -9.6960    5.4501 C   0  0  0  0  0  0  0  0  0  0  0  0
    2.9817  -10.0151    6.4857 C   0  0  1  0  0  0  0  0  0  0  0  0
    3.1487   -9.1879    7.7718 C   0  0  0  0  0  0  0  0  0  0  0  0
    1.6863   -9.7015    5.7170 C   0  0  2  0  0  0  0  0  0  0  0  0
    0.3312   -9.1161    6.1180 C   0  0  0  0  0  0  0  0  0  0  0  0
   -0.0836   -7.9789    5.1084 C   0  0  0  0  0  0  0  0  0  0  0  0
    0.1439   -8.1178    3.5440 C   0  0  0  0  0  0  0  0  0  0  0  0
   -1.0036   -8.9456    2.8934 C   0  0  0  0  0  0  0  0  0  0  0  0
   -0.0477   -6.7032    2.9546 C   0  0  0  0  0  0  0  0  0  0  0  0
    1.5800   -8.5530    3.1296 C   0  0  2  0  0  0  0  0  0  0  0  0
    1.8393   -9.6500    2.1081 C   0  0  1  0  0  0  0  0  0  0  0  0
    2.8090   -9.2272    1.1619 O   0  0  0  0  0  0  0  0  0  0  0  0
    4.1332   -9.0122    1.4095 C   0  0  0  0  0  0  0  0  0  0  0  0
    4.9263   -8.8444    0.5004 O   0  0  0  0  0  0  0  0  0  0  0  0
    4.6363   -8.9430    2.8858 C   0  0  1  0  0  0  0  0  0  0  0  0
    4.8747   -7.4577    3.3640 C   0  0  0  0  0  0  0  0  0  0  0  0
    6.2499   -6.9635    3.1936 N   0  0  0  0  0  0  0  0  0  0  0  0
    7.3081   -7.7899    3.7912 C   0  0  0  0  0  0  0  0  0  0  0  0
    8.5935   -7.2298    3.1609 C   0  0  0  0  0  0  0  0  0  0  0  0
    8.1670   -6.5116    1.8790 C   0  0  0  0  0  0  0  0  0  0  0  0
    6.6625   -6.7365    1.8100 C   0  0  0  0  0  0  0  0  0  0  0  0
    2.3328   -9.8545    3.5150 C   0  0  1  0  0  0  0  0  0  0  0  0
    1.6478  -10.6755    4.5383 C   0  0  2  0  0  0  0  0  0  0  0  0
    0.4158  -11.1977    4.0872 O   0  0  0  0  0  0  0  0  0  0  0  0
    4.9141  -13.3910    2.0812 H   0  0  0  0  0  0  0  0  0  0  0  0
    4.7843  -13.8769    3.7730 H   0  0  0  0  0  0  0  0  0  0  0  0
    6.3818  -13.7277    3.0154 H   0  0  0  0  0  0  0  0  0  0  0  0
    5.0170  -10.2781    5.7235 H   0  0  0  0  0  0  0  0  0  0  0  0
    4.4175   -8.6779    5.6718 H   0  0  0  0  0  0  0  0  0  0  0  0
    3.0258  -11.0666    6.7532 H   0  0  0  0  0  0  0  0  0  0  0  0
    3.1486   -8.1208    7.5636 H   0  0  0  0  0  0  0  0  0  0  0  0
    4.0922   -9.4319    8.2596 H   0  0  0  0  0  0  0  0  0  0  0  0
    2.3423   -9.3954    8.4759 H   0  0  0  0  0  0  0  0  0  0  0  0
    2.0718   -8.7144    5.4551 H   0  0  0  0  0  0  0  0  0  0  0  0
   -0.4313   -9.8894    6.1812 H   0  0  0  0  0  0  0  0  0  0  0  0
    0.3951   -8.6842    7.1147 H   0  0  0  0  0  0  0  0  0  0  0  0
   -1.1388   -7.7639    5.2685 H   0  0  0  0  0  0  0  0  0  0  0  0
    0.4382   -7.0783    5.4329 H   0  0  0  0  0  0  0  0  0  0  0  0
   -0.7320   -9.3926    1.9390 H   0  0  0  0  0  0  0  0  0  0  0  0
   -1.8846   -8.3371    2.6944 H   0  0  0  0  0  0  0  0  0  0  0  0
   -1.3648   -9.7330    3.5429 H   0  0  0  0  0  0  0  0  0  0  0  0
    0.0425   -6.7130    1.8649 H   0  0  0  0  0  0  0  0  0  0  0  0
    0.6913   -5.9967    3.3389 H   0  0  0  0  0  0  0  0  0  0  0  0
   -1.0289   -6.3177    3.2222 H   0  0  0  0  0  0  0  0  0  0  0  0
    2.2303   -7.6818    3.0877 H   0  0  0  0  0  0  0  0  0  0  0  0
    1.0363  -10.2962    1.7261 H   0  0  0  0  0  0  0  0  0  0  0  0
    5.6126   -9.3681    2.7583 H   0  0  0  0  0  0  0  0  0  0  0  0
    4.2201   -6.7752    2.8179 H   0  0  0  0  0  0  0  0  0  0  0  0
    4.6169   -7.2670    4.3941 H   0  0  0  0  0  0  0  0  0  0  0  0
    7.3150   -7.7165    4.8874 H   0  0  0  0  0  0  0  0  0  0  0  0
    7.2025   -8.8251    3.4903 H   0  0  0  0  0  0  0  0  0  0  0  0
    9.1206   -6.5392    3.8246 H   0  0  0  0  0  0  0  0  0  0  0  0
    9.2512   -8.0733    2.9459 H   0  0  0  0  0  0  0  0  0  0  0  0
    8.4736   -5.4630    1.8669 H   0  0  0  0  0  0  0  0  0  0  0  0
    8.5758   -6.9992    0.9986 H   0  0  0  0  0  0  0  0  0  0  0  0
    6.5499   -7.6315    1.2507 H   0  0  0  0  0  0  0  0  0  0  0  0
    6.1175   -5.8979    1.3445 H   0  0  0  0  0  0  0  0  0  0  0  0
    2.2194  -11.5746    4.7630 H   0  0  0  0  0  0  0  0  0  0  0  0
   -0.2559  -11.0576    4.7406 H   0  0  0  0  0  0  0  0  0  0  0  0
  1  2  1  0
  1 30  1  0
  1 31  1  0
  1 32  1  0
  2  3  2  0
  2  4  1  0
  5  4  1  6
  5 20  1  0
 27  5  1  6
  5  6  1  0
  6  7  1  0
  6 33  1  0
  6 34  1  0
  7  8  1  0
  7  9  1  0
  7 35  1  1
  8 36  1  0
  8 37  1  0
  8 38  1  0
  9 28  1  0
  9 10  1  0
  9 39  1  6
 10 11  1  0
 10 40  1  0
 10 41  1  0
 11 12  1  0
 11 42  1  0
 11 43  1  0
 12 13  1  0
 12 14  1  0
 12 15  1  0
 13 44  1  0
 13 45  1  0
 13 46  1  0
 14 47  1  0
 14 48  1  0
 14 49  1  0
 15 27  1  0
 15 16  1  0
 15 50  1  6
 16 17  1  0
 16 27  1  0
 16 51  1  6
 17 18  1  0
 18 19  2  0
 18 20  1  0
 20 21  1  0
 20 52  1  6
 21 22  1  0
 21 53  1  0
 21 54  1  0
 22 26  1  0
 22 23  1  0
 23 24  1  0
 23 55  1  0
 23 56  1  0
 24 25  1  0
 24 57  1  0
 24 58  1  0
 25 26  1  0
 25 59  1  0
 25 60  1  0
 26 61  1  0
 26 62  1  0
 27 28  1  0
 28 29  1  0
 28 63  1  1
 29 64  1  0
M  END
>  <i_m_ct_stereo_status>  (387) 
1

>  <s_m_source_file>  (387) 
/var/tmp/pbs.5076255.sched01/tmpxmhsyh4a/135ajud44o5.sdf

>  <i_m_source_file_index>  (387) 
26

>  <i_lp_mmshare_version>  (387) 
48012

>  <i_f3d_flags>  (387) 
0

>  <s_epik_input>  (387) 
W0NIM11DKD1PKU9bQ0BAXTEoW0NAQF0yMzQpW0NIMl1bQ0BASF0oW0NIM10pW0NAQEhdKFtDSF00W09IXSlbQ0gyXVtDSDJdQyhbQ0gzXSkoW0NIM10pW0NAQEhdMltDQEhdM09DKD1PKVtDQEhdMVtDSDJdTjVbQ0gyXVtDSDJdW0NIMl1bQ0gyXTU=

>  <s_epik_cmdline>  (387) 
J2VwaWtfcHl0aG9uJywgJy1waHQnLCAnMi4wJywgJy1waCcsICc3LjAnLCAnLXRuJywgJzgnLCAnLW1hJywgJzIwMCcsICctaW1hZScsICc8aW5maWxlLm1hZT4nLCAnLW9tYWUnLCAnPG91dGZpbGUubWFlPic=

>  <r_epik_Ionization_Penalty>  (387) 
2.08795

>  <r_epik_Ionization_Penalty_Charging>  (387) 
0

>  <r_epik_Ionization_Penalty_Neutral>  (387) 
2.08795

>  <r_epik_State_Penalty>  (387) 
2.22316

>  <r_epik_Charging_Adjusted_Penalty>  (387) 
2.22316

>  <i_epik_Tot_Q>  (387) 
0

>  <i_epik_Tot_abs_Q>  (387) 
0

>  <s_epik_Chemistry_Notes>  (387) 
This compound has an ester and may undergo hydrolysis at high or low pH.

>  <s_lp_Force_Field>  (387) 
OPLS3e

>  <r_lp_Energy>  (387) 
90.539

>  <b_lp_Chiralities_Consistent>  (387) 
1

>  <s_lp_Variant>  (387) 
106:0-3

>  <s_i_glide_gridfile>  (387) 
pfpi4k_grid

>  <i_i_glide_lignum>  (387) 
26

>  <i_i_glide_rotatable_bonds>  (387) 
5

>  <r_i_docking_score>  (387) 
-2.38355

>  <r_i_glide_ligand_efficiency>  (387) 
-0.0821914

>  <r_i_glide_ligand_efficiency_sa>  (387) 
-0.252518

>  <r_i_glide_ligand_efficiency_ln>  (387) 
-0.545773

>  <r_i_glide_gscore>  (387) 
-2.38355

>  <r_i_glide_lipo>  (387) 
-0.147904

>  <r_i_glide_hbond>  (387) 
-0.14696

>  <r_i_glide_metal>  (387) 
-0

>  <r_i_glide_rewards>  (387) 
-0.644129

>  <r_i_glide_evdw>  (387) 
-22.7802

>  <r_i_glide_ecoul>  (387) 
-3.85625

>  <r_i_glide_erotb>  (387) 
0.358527

>  <r_i_glide_esite>  (387) 
-0.0856388

>  <r_i_glide_emodel>  (387) 
-25.8845

>  <r_i_glide_energy>  (387) 
-26.6364

>  <r_i_glide_einternal>  (387) 
6.41124

>  <r_i_glide_intrahb_reward>  (387) 
-0

>  <i_i_glide_confnum>  (387) 
3

>  <i_i_glide_posenum>  (387) 
31

>  <r_i_glide_eff_state_penalty>  (387) 
0

>  <ligand_id>  (387) 
106

>  <original_smiles>  (387) 
CC(=O)OC12CC(C)C3CCC(C)(C)C4C(OC(=O)C1CN1CCCC1)C42C3O

>  <smiles>  (387) 
[H]OC1([H])C2([H])C([H])([H])C([H])([H])C(C([H])([H])[H])(C([H])([H])[H])C3([H])C4([H])OC(=O)C([H])(C([H])([H])N5C([H])([H])C([H])([H])C([H])([H])C5([H])[H])C(OC(=O)C([H])([H])[H])(C([H])([H])C2([H])C([H])([H])[H])C143

$$$$
106:2:1
     RDKit          3D

 64 68  0  0  1  0  0  0  0  0999 V2000
    6.5866  -11.0548    4.4488 C   0  0  0  0  0  0  0  0  0  0  0  0
    6.0534   -9.6228    4.4463 C   0  0  0  0  0  0  0  0  0  0  0  0
    6.7875   -8.6677    4.6736 O   0  0  0  0  0  0  0  0  0  0  0  0
    4.7178   -9.5748    4.1696 O   0  0  0  0  0  0  0  0  0  0  0  0
    3.9072   -8.3751    4.0595 C   0  0  1  0  0  0  0  0  0  0  0  0
    3.8833   -7.6090    5.4866 C   0  0  0  0  0  0  0  0  0  0  0  0
    2.7597   -7.9592    6.5538 C   0  0  1  0  0  0  0  0  0  0  0  0
    2.4652   -6.7565    7.4651 C   0  0  0  0  0  0  0  0  0  0  0  0
    1.5688   -8.4130    5.7090 C   0  0  2  0  0  0  0  0  0  0  0  0
    0.0503   -8.2648    5.8643 C   0  0  0  0  0  0  0  0  0  0  0  0
   -0.5900   -7.7489    4.5184 C   0  0  0  0  0  0  0  0  0  0  0  0
   -0.1173   -8.2935    3.1061 C   0  0  0  0  0  0  0  0  0  0  0  0
   -0.8062   -9.6379    2.7837 C   0  0  0  0  0  0  0  0  0  0  0  0
   -0.6946   -7.3216    2.0526 C   0  0  0  0  0  0  0  0  0  0  0  0
    1.4323   -8.2831    2.8709 C   0  0  2  0  0  0  0  0  0  0  0  0
    2.2082   -9.4555    2.3079 C   0  0  1  0  0  0  0  0  0  0  0  0
    3.1058   -9.0396    1.2816 O   0  0  0  0  0  0  0  0  0  0  0  0
    4.2584   -8.3017    1.5081 C   0  0  0  0  0  0  0  0  0  0  0  0
    5.1036   -8.2496    0.6376 O   0  0  0  0  0  0  0  0  0  0  0  0
    4.4493   -7.5510    2.8366 C   0  0  1  0  0  0  0  0  0  0  0  0
    4.0670   -6.0288    2.7193 C   0  0  0  0  0  0  0  0  0  0  0  0
    5.1225   -5.1435    2.1894 N   0  0  0  0  0  0  0  0  0  0  0  0
    5.3789   -5.3332    0.7661 C   0  0  0  0  0  0  0  0  0  0  0  0
    6.1485   -4.0866    0.3494 C   0  0  0  0  0  0  0  0  0  0  0  0
    5.7570   -3.0235    1.3662 C   0  0  0  0  0  0  0  0  0  0  0  0
    4.7630   -3.7279    2.2941 C   0  0  0  0  0  0  0  0  0  0  0  0
    2.5312   -9.0073    3.6996 C   0  0  1  0  0  0  0  0  0  0  0  0
    2.0217   -9.6522    4.9455 C   0  0  2  0  0  0  0  0  0  0  0  0
    1.1097  -10.6990    4.7609 O   0  0  0  0  0  0  0  0  0  0  0  0
    6.3567  -11.5465    3.5046 H   0  0  0  0  0  0  0  0  0  0  0  0
    6.1213  -11.6219    5.2530 H   0  0  0  0  0  0  0  0  0  0  0  0
    7.6676  -11.0695    4.5929 H   0  0  0  0  0  0  0  0  0  0  0  0
    4.8519   -7.6624    5.9665 H   0  0  0  0  0  0  0  0  0  0  0  0
    3.7341   -6.5309    5.3318 H   0  0  0  0  0  0  0  0  0  0  0  0
    3.0969   -8.7916    7.1867 H   0  0  0  0  0  0  0  0  0  0  0  0
    2.1346   -5.8889    6.8938 H   0  0  0  0  0  0  0  0  0  0  0  0
    3.3584   -6.4625    8.0125 H   0  0  0  0  0  0  0  0  0  0  0  0
    1.6909   -6.9903    8.1912 H   0  0  0  0  0  0  0  0  0  0  0  0
    1.6210   -7.4942    5.1153 H   0  0  0  0  0  0  0  0  0  0  0  0
   -0.4102   -9.2019    6.1851 H   0  0  0  0  0  0  0  0  0  0  0  0
   -0.1804   -7.5393    6.6468 H   0  0  0  0  0  0  0  0  0  0  0  0
   -1.6661   -7.8956    4.5893 H   0  0  0  0  0  0  0  0  0  0  0  0
   -0.4586   -6.6647    4.5135 H   0  0  0  0  0  0  0  0  0  0  0  0
   -0.2684  -10.2551    2.0732 H   0  0  0  0  0  0  0  0  0  0  0  0
   -1.8070   -9.5063    2.3810 H   0  0  0  0  0  0  0  0  0  0  0  0
   -0.9514  -10.2350    3.6733 H   0  0  0  0  0  0  0  0  0  0  0  0
   -0.4597   -7.6532    1.0387 H   0  0  0  0  0  0  0  0  0  0  0  0
   -0.2881   -6.3164    2.1691 H   0  0  0  0  0  0  0  0  0  0  0  0
   -1.7805   -7.2563    2.1333 H   0  0  0  0  0  0  0  0  0  0  0  0
    1.7370   -7.3027    2.5338 H   0  0  0  0  0  0  0  0  0  0  0  0
    1.7780  -10.4475    2.1668 H   0  0  0  0  0  0  0  0  0  0  0  0
    5.5213   -7.5085    2.9492 H   0  0  0  0  0  0  0  0  0  0  0  0
    3.1757   -5.8862    2.1046 H   0  0  0  0  0  0  0  0  0  0  0  0
    3.8220   -5.5771    3.6749 H   0  0  0  0  0  0  0  0  0  0  0  0
    5.9859   -6.2022    0.5786 H   0  0  0  0  0  0  0  0  0  0  0  0
    4.4321   -5.3899    0.2250 H   0  0  0  0  0  0  0  0  0  0  0  0
    7.2109   -4.3157    0.4204 H   0  0  0  0  0  0  0  0  0  0  0  0
    5.9214   -3.8163   -0.6835 H   0  0  0  0  0  0  0  0  0  0  0  0
    6.6377   -2.7110    1.9240 H   0  0  0  0  0  0  0  0  0  0  0  0
    5.3238   -2.1480    0.8862 H   0  0  0  0  0  0  0  0  0  0  0  0
    3.7446   -3.5738    1.9352 H   0  0  0  0  0  0  0  0  0  0  0  0
    4.8187   -3.3605    3.3212 H   0  0  0  0  0  0  0  0  0  0  0  0
    2.8406  -10.1541    5.4645 H   0  0  0  0  0  0  0  0  0  0  0  0
    1.0046  -11.1672    5.5751 H   0  0  0  0  0  0  0  0  0  0  0  0
  1  2  1  0
  1 30  1  0
  1 31  1  0
  1 32  1  0
  2  3  2  0
  2  4  1  0
  5  4  1  1
  5 20  1  0
 27  5  1  1
  5  6  1  0
  6  7  1  0
  6 33  1  0
  6 34  1  0
  7  8  1  0
  7  9  1  0
  7 35  1  1
  8 36  1  0
  8 37  1  0
  8 38  1  0
  9 28  1  0
  9 10  1  0
  9 39  1  6
 10 11  1  0
 10 40  1  0
 10 41  1  0
 11 12  1  0
 11 42  1  0
 11 43  1  0
 12 13  1  0
 12 14  1  0
 12 15  1  0
 13 44  1  0
 13 45  1  0
 13 46  1  0
 14 47  1  0
 14 48  1  0
 14 49  1  0
 15 27  1  0
 15 16  1  0
 15 50  1  6
 16 17  1  0
 16 27  1  0
 16 51  1  1
 17 18  1  0
 18 19  2  0
 18 20  1  0
 20 21  1  0
 20 52  1  1
 21 22  1  0
 21 53  1  0
 21 54  1  0
 22 26  1  0
 22 23  1  0
 23 24  1  0
 23 55  1  0
 23 56  1  0
 24 25  1  0
 24 57  1  0
 24 58  1  0
 25 26  1  0
 25 59  1  0
 25 60  1  0
 26 61  1  0
 26 62  1  0
 27 28  1  0
 28 29  1  0
 28 63  1  1
 29 64  1  0
M  END
>  <i_m_ct_stereo_status>  (388) 
1

>  <s_m_source_file>  (388) 
/var/tmp/pbs.5076255.sched01/tmpxmhsyh4a/135ajud44o5.sdf

>  <i_m_source_file_index>  (388) 
26

>  <i_lp_mmshare_version>  (388) 
48012

>  <i_f3d_flags>  (388) 
0

>  <s_epik_input>  (388) 
W0NIM11DKD1PKU9bQ0BAXTEoW0NAQF0yMzQpW0NIMl1bQ0BASF0oW0NIM10pW0NAQEhdKFtDSF00W09IXSlbQ0gyXVtDSDJdQyhbQ0gzXSkoW0NIM10pW0NAQEhdMltDQEhdM09DKD1PKVtDQEhdMVtDSDJdTjVbQ0gyXVtDSDJdW0NIMl1bQ0gyXTU=

>  <s_epik_cmdline>  (388) 
J2VwaWtfcHl0aG9uJywgJy1waHQnLCAnMi4wJywgJy1waCcsICc3LjAnLCAnLXRuJywgJzgnLCAnLW1hJywgJzIwMCcsICctaW1hZScsICc8aW5maWxlLm1hZT4nLCAnLW9tYWUnLCAnPG91dGZpbGUubWFlPic=

>  <r_epik_Ionization_Penalty>  (388) 
2.08795

>  <r_epik_Ionization_Penalty_Charging>  (388) 
0

>  <r_epik_Ionization_Penalty_Neutral>  (388) 
2.08795

>  <r_epik_State_Penalty>  (388) 
2.22316

>  <r_epik_Charging_Adjusted_Penalty>  (388) 
2.22316

>  <i_epik_Tot_Q>  (388) 
0

>  <i_epik_Tot_abs_Q>  (388) 
0

>  <s_epik_Chemistry_Notes>  (388) 
This compound has an ester and may undergo hydrolysis at high or low pH.

>  <s_lp_Force_Field>  (388) 
OPLS3e

>  <r_lp_Energy>  (388) 
90.539

>  <b_lp_Chiralities_Consistent>  (388) 
1

>  <s_lp_Variant>  (388) 
106:0-3

>  <s_i_glide_gridfile>  (388) 
pfpi4k_grid

>  <i_i_glide_lignum>  (388) 
26

>  <i_i_glide_rotatable_bonds>  (388) 
5

>  <r_i_docking_score>  (388) 
-1.96782

>  <r_i_glide_ligand_efficiency>  (388) 
-0.0678558

>  <r_i_glide_ligand_efficiency_sa>  (388) 
-0.208474

>  <r_i_glide_ligand_efficiency_ln>  (388) 
-0.45058

>  <r_i_glide_gscore>  (388) 
-1.96782

>  <r_i_glide_lipo>  (388) 
-0.344631

>  <r_i_glide_hbond>  (388) 
-0.0193532

>  <r_i_glide_metal>  (388) 
-0

>  <r_i_glide_rewards>  (388) 
-0.644129

>  <r_i_glide_evdw>  (388) 
-20.9504

>  <r_i_glide_ecoul>  (388) 
-1.74173

>  <r_i_glide_erotb>  (388) 
0.358527

>  <r_i_glide_esite>  (388) 
-0.00945061

>  <r_i_glide_emodel>  (388) 
-24.2326

>  <r_i_glide_energy>  (388) 
-22.6921

>  <r_i_glide_einternal>  (388) 
1.69434

>  <r_i_glide_intrahb_reward>  (388) 
-0

>  <i_i_glide_confnum>  (388) 
3

>  <i_i_glide_posenum>  (388) 
37

>  <r_i_glide_eff_state_penalty>  (388) 
0

>  <ligand_id>  (388) 
106

>  <original_smiles>  (388) 
CC(=O)OC12CC(C)C3CCC(C)(C)C4C(OC(=O)C1CN1CCCC1)C42C3O

>  <smiles>  (388) 
[H]OC1([H])C2([H])C([H])([H])C([H])([H])C(C([H])([H])[H])(C([H])([H])[H])C3([H])C4([H])OC(=O)C([H])(C([H])([H])N5C([H])([H])C([H])([H])C([H])([H])C5([H])[H])C(OC(=O)C([H])([H])[H])(C([H])([H])C2([H])C([H])([H])[H])C143

$$$$
106:2:2
     RDKit          3D

 64 68  0  0  1  0  0  0  0  0999 V2000
    6.4528   -8.6590    1.4093 C   0  0  0  0  0  0  0  0  0  0  0  0
    5.7200   -7.5703    2.1993 C   0  0  0  0  0  0  0  0  0  0  0  0
    6.2969   -6.5650    2.5697 O   0  0  0  0  0  0  0  0  0  0  0  0
    4.4167   -7.8922    2.4245 O   0  0  0  0  0  0  0  0  0  0  0  0
    3.4678   -7.1495    3.2319 C   0  0  1  0  0  0  0  0  0  0  0  0
    3.9779   -7.1890    4.7744 C   0  0  0  0  0  0  0  0  0  0  0  0
    3.5205   -8.3852    5.7154 C   0  0  1  0  0  0  0  0  0  0  0  0
    3.4967   -7.9490    7.1895 C   0  0  0  0  0  0  0  0  0  0  0  0
    2.1518   -8.7935    5.1693 C   0  0  2  0  0  0  0  0  0  0  0  0
    0.8644   -9.3074    5.8235 C   0  0  0  0  0  0  0  0  0  0  0  0
   -0.3754   -8.5057    5.2718 C   0  0  0  0  0  0  0  0  0  0  0  0
   -0.5131   -8.1223    3.7372 C   0  0  0  0  0  0  0  0  0  0  0  0
   -1.0825   -9.3149    2.9233 C   0  0  0  0  0  0  0  0  0  0  0  0
   -1.6362   -7.0665    3.6607 C   0  0  0  0  0  0  0  0  0  0  0  0
    0.7458   -7.4356    3.1147 C   0  0  2  0  0  0  0  0  0  0  0  0
    1.3405   -7.8202    1.7754 C   0  0  1  0  0  0  0  0  0  0  0  0
    1.5704   -6.6432    0.9856 O   0  0  0  0  0  0  0  0  0  0  0  0
    2.6034   -5.7694    1.1926 C   0  0  0  0  0  0  0  0  0  0  0  0
    2.9674   -4.9914    0.3036 O   0  0  0  0  0  0  0  0  0  0  0  0
    3.2758   -5.7086    2.5848 C   0  0  1  0  0  0  0  0  0  0  0  0
    2.6714   -4.5726    3.4929 C   0  0  0  0  0  0  0  0  0  0  0  0
    3.2668   -3.2425    3.3057 N   0  0  0  0  0  0  0  0  0  0  0  0
    2.9207   -2.6096    2.0401 C   0  0  0  0  0  0  0  0  0  0  0  0
    3.2511   -1.1424    2.2327 C   0  0  0  0  0  0  0  0  0  0  0  0
    3.2092   -0.9169    3.7386 C   0  0  0  0  0  0  0  0  0  0  0  0
    2.8141   -2.2830    4.3156 C   0  0  0  0  0  0  0  0  0  0  0  0
    2.1829   -7.9907    3.0011 C   0  0  1  0  0  0  0  0  0  0  0  0
    2.3860   -9.2706    3.7390 C   0  0  2  0  0  0  0  0  0  0  0  0
    1.6344  -10.3614    3.2742 O   0  0  0  0  0  0  0  0  0  0  0  0
    5.9268   -8.8904    0.4848 H   0  0  0  0  0  0  0  0  0  0  0  0
    6.4982   -9.5664    2.0080 H   0  0  0  0  0  0  0  0  0  0  0  0
    7.4752   -8.3518    1.1693 H   0  0  0  0  0  0  0  0  0  0  0  0
    5.0658   -7.1268    4.8013 H   0  0  0  0  0  0  0  0  0  0  0  0
    3.6433   -6.3068    5.3112 H   0  0  0  0  0  0  0  0  0  0  0  0
    4.2148   -9.2219    5.6210 H   0  0  0  0  0  0  0  0  0  0  0  0
    2.8218   -7.1054    7.3372 H   0  0  0  0  0  0  0  0  0  0  0  0
    4.4910   -7.6348    7.5115 H   0  0  0  0  0  0  0  0  0  0  0  0
    3.1674   -8.7599    7.8406 H   0  0  0  0  0  0  0  0  0  0  0  0
    1.8070   -7.7613    5.2293 H   0  0  0  0  0  0  0  0  0  0  0  0
    0.7342  -10.3794    5.6703 H   0  0  0  0  0  0  0  0  0  0  0  0
    0.9087   -9.1697    6.9039 H   0  0  0  0  0  0  0  0  0  0  0  0
   -1.2720   -9.0515    5.5729 H   0  0  0  0  0  0  0  0  0  0  0  0
   -0.4051   -7.5729    5.8377 H   0  0  0  0  0  0  0  0  0  0  0  0
   -0.8701   -9.2581    1.8566 H   0  0  0  0  0  0  0  0  0  0  0  0
   -2.1696   -9.3849    3.0074 H   0  0  0  0  0  0  0  0  0  0  0  0
   -0.7291  -10.2694    3.2981 H   0  0  0  0  0  0  0  0  0  0  0  0
   -1.8318   -6.7781    2.6278 H   0  0  0  0  0  0  0  0  0  0  0  0
   -1.3714   -6.1773    4.2274 H   0  0  0  0  0  0  0  0  0  0  0  0
   -2.5748   -7.4353    4.0755 H   0  0  0  0  0  0  0  0  0  0  0  0
    0.7208   -6.3797    3.3354 H   0  0  0  0  0  0  0  0  0  0  0  0
    1.0424   -8.7357    1.2596 H   0  0  0  0  0  0  0  0  0  0  0  0
    4.2779   -5.3412    2.3837 H   0  0  0  0  0  0  0  0  0  0  0  0
    1.5958   -4.4879    3.3388 H   0  0  0  0  0  0  0  0  0  0  0  0
    2.7974   -4.7741    4.5481 H   0  0  0  0  0  0  0  0  0  0  0  0
    3.4976   -3.0088    1.2104 H   0  0  0  0  0  0  0  0  0  0  0  0
    1.8518   -2.7259    1.8538 H   0  0  0  0  0  0  0  0  0  0  0  0
    4.2560   -0.9732    1.8596 H   0  0  0  0  0  0  0  0  0  0  0  0
    2.5675   -0.5008    1.6764 H   0  0  0  0  0  0  0  0  0  0  0  0
    4.2004   -0.6222    4.0954 H   0  0  0  0  0  0  0  0  0  0  0  0
    2.4993   -0.1323    4.0139 H   0  0  0  0  0  0  0  0  0  0  0  0
    1.7300   -2.3439    4.4220 H   0  0  0  0  0  0  0  0  0  0  0  0
    3.2578   -2.4681    5.2976 H   0  0  0  0  0  0  0  0  0  0  0  0
    3.4071   -9.6353    3.6153 H   0  0  0  0  0  0  0  0  0  0  0  0
    1.8478  -11.1297    3.7835 H   0  0  0  0  0  0  0  0  0  0  0  0
  1  2  1  0
  1 30  1  0
  1 31  1  0
  1 32  1  0
  2  3  2  0
  2  4  1  0
  5  4  1  6
  5 20  1  0
 27  5  1  6
  5  6  1  0
  6  7  1  0
  6 33  1  0
  6 34  1  0
  7  8  1  0
  7  9  1  0
  7 35  1  1
  8 36  1  0
  8 37  1  0
  8 38  1  0
  9 28  1  0
  9 10  1  0
  9 39  1  6
 10 11  1  0
 10 40  1  0
 10 41  1  0
 11 12  1  0
 11 42  1  0
 11 43  1  0
 12 13  1  0
 12 14  1  0
 12 15  1  0
 13 44  1  0
 13 45  1  0
 13 46  1  0
 14 47  1  0
 14 48  1  0
 14 49  1  0
 15 27  1  0
 15 16  1  0
 15 50  1  6
 16 17  1  0
 16 27  1  0
 16 51  1  6
 17 18  1  0
 18 19  2  0
 18 20  1  0
 20 21  1  0
 20 52  1  6
 21 22  1  0
 21 53  1  0
 21 54  1  0
 22 26  1  0
 22 23  1  0
 23 24  1  0
 23 55  1  0
 23 56  1  0
 24 25  1  0
 24 57  1  0
 24 58  1  0
 25 26  1  0
 25 59  1  0
 25 60  1  0
 26 61  1  0
 26 62  1  0
 27 28  1  0
 28 29  1  0
 28 63  1  1
 29 64  1  0
M  END
>  <i_m_ct_stereo_status>  (389) 
1

>  <s_m_source_file>  (389) 
/var/tmp/pbs.5076255.sched01/tmpxmhsyh4a/135ajud44o5.sdf

>  <i_m_source_file_index>  (389) 
26

>  <i_lp_mmshare_version>  (389) 
48012

>  <i_f3d_flags>  (389) 
0

>  <s_epik_input>  (389) 
W0NIM11DKD1PKU9bQ0BAXTEoW0NAQF0yMzQpW0NIMl1bQ0BASF0oW0NIM10pW0NAQEhdKFtDSF00W09IXSlbQ0gyXVtDSDJdQyhbQ0gzXSkoW0NIM10pW0NAQEhdMltDQEhdM09DKD1PKVtDQEhdMVtDSDJdTjVbQ0gyXVtDSDJdW0NIMl1bQ0gyXTU=

>  <s_epik_cmdline>  (389) 
J2VwaWtfcHl0aG9uJywgJy1waHQnLCAnMi4wJywgJy1waCcsICc3LjAnLCAnLXRuJywgJzgnLCAnLW1hJywgJzIwMCcsICctaW1hZScsICc8aW5maWxlLm1hZT4nLCAnLW9tYWUnLCAnPG91dGZpbGUubWFlPic=

>  <r_epik_Ionization_Penalty>  (389) 
2.08795

>  <r_epik_Ionization_Penalty_Charging>  (389) 
0

>  <r_epik_Ionization_Penalty_Neutral>  (389) 
2.08795

>  <r_epik_State_Penalty>  (389) 
2.22316

>  <r_epik_Charging_Adjusted_Penalty>  (389) 
2.22316

>  <i_epik_Tot_Q>  (389) 
0

>  <i_epik_Tot_abs_Q>  (389) 
0

>  <s_epik_Chemistry_Notes>  (389) 
This compound has an ester and may undergo hydrolysis at high or low pH.

>  <s_lp_Force_Field>  (389) 
OPLS3e

>  <r_lp_Energy>  (389) 
90.539

>  <b_lp_Chiralities_Consistent>  (389) 
1

>  <s_lp_Variant>  (389) 
106:0-3

>  <s_i_glide_gridfile>  (389) 
pfpi4k_grid

>  <i_i_glide_lignum>  (389) 
26

>  <i_i_glide_rotatable_bonds>  (389) 
5

>  <r_i_docking_score>  (389) 
-1.6503

>  <r_i_glide_ligand_efficiency>  (389) 
-0.0569069

>  <r_i_glide_ligand_efficiency_sa>  (389) 
-0.174836

>  <r_i_glide_ligand_efficiency_ln>  (389) 
-0.377877

>  <r_i_glide_gscore>  (389) 
-1.6503

>  <r_i_glide_lipo>  (389) 
-0.127337

>  <r_i_glide_hbond>  (389) 
0

>  <r_i_glide_metal>  (389) 
-0

>  <r_i_glide_rewards>  (389) 
-0.688423

>  <r_i_glide_evdw>  (389) 
-22.5784

>  <r_i_glide_ecoul>  (389) 
-0.303006

>  <r_i_glide_erotb>  (389) 
0.358527

>  <r_i_glide_esite>  (389) 
-0.0186987

>  <r_i_glide_emodel>  (389) 
-23.8256

>  <r_i_glide_energy>  (389) 
-22.8814

>  <r_i_glide_einternal>  (389) 
1.95243

>  <r_i_glide_intrahb_reward>  (389) 
-0

>  <i_i_glide_confnum>  (389) 
3

>  <i_i_glide_posenum>  (389) 
18

>  <r_i_glide_eff_state_penalty>  (389) 
0

>  <ligand_id>  (389) 
106

>  <original_smiles>  (389) 
CC(=O)OC12CC(C)C3CCC(C)(C)C4C(OC(=O)C1CN1CCCC1)C42C3O

>  <smiles>  (389) 
[H]OC1([H])C2([H])C([H])([H])C([H])([H])C(C([H])([H])[H])(C([H])([H])[H])C3([H])C4([H])OC(=O)C([H])(C([H])([H])N5C([H])([H])C([H])([H])C([H])([H])C5([H])[H])C(OC(=O)C([H])([H])[H])(C([H])([H])C2([H])C([H])([H])[H])C143

$$$$
106:3:0
     RDKit          3D

 64 68  0  0  1  0  0  0  0  0999 V2000
    3.1892   -3.3998    4.8221 C   0  0  0  0  0  0  0  0  0  0  0  0
    4.0451   -4.1798    3.8241 C   0  0  0  0  0  0  0  0  0  0  0  0
    4.7735   -5.0853    4.1924 O   0  0  0  0  0  0  0  0  0  0  0  0
    3.8658   -3.7406    2.5553 O   0  0  0  0  0  0  0  0  0  0  0  0
    4.4857   -4.2921    1.3670 C   0  0  1  0  0  0  0  0  0  0  0  0
    6.1058   -4.1830    1.4802 C   0  0  0  0  0  0  0  0  0  0  0  0
    6.8483   -2.9153    0.9020 C   0  0  1  0  0  0  0  0  0  0  0  0
    8.2951   -3.2290    0.4829 C   0  0  0  0  0  0  0  0  0  0  0  0
    5.9494   -2.4593   -0.2420 C   0  0  2  0  0  0  0  0  0  0  0  0
    6.2265   -1.7864   -1.5756 C   0  0  0  0  0  0  0  0  0  0  0  0
    5.3919   -2.4814   -2.7124 C   0  0  0  0  0  0  0  0  0  0  0  0
    3.9024   -2.9263   -2.4926 C   0  0  0  0  0  0  0  0  0  0  0  0
    2.9201   -1.7443   -2.6539 C   0  0  0  0  0  0  0  0  0  0  0  0
    3.5719   -3.8479   -3.7011 C   0  0  0  0  0  0  0  0  0  0  0  0
    3.6792   -3.7938   -1.1960 C   0  0  2  0  0  0  0  0  0  0  0  0
    2.5041   -3.5991   -0.2683 C   0  0  1  0  0  0  0  0  0  0  0  0
    1.8915   -4.8649   -0.0195 O   0  0  0  0  0  0  0  0  0  0  0  0
    2.4070   -5.8018    0.8283 C   0  0  0  0  0  0  0  0  0  0  0  0
    1.6944   -6.7097    1.2560 O   0  0  0  0  0  0  0  0  0  0  0  0
    3.8987   -5.7244    1.1783 C   0  0  1  0  0  0  0  0  0  0  0  0
    4.7347   -6.7054    0.2744 C   0  0  0  0  0  0  0  0  0  0  0  0
    5.1926   -7.9178    0.9621 N   0  0  0  0  0  0  0  0  0  0  0  0
    4.1338   -8.8564    1.3261 C   0  0  0  0  0  0  0  0  0  0  0  0
    4.8278   -9.8303    2.2676 C   0  0  0  0  0  0  0  0  0  0  0  0
    6.0314   -9.0768    2.8257 C   0  0  0  0  0  0  0  0  0  0  0  0
    6.0044   -7.7074    2.1525 C   0  0  0  0  0  0  0  0  0  0  0  0
    3.8767   -3.3584    0.2675 C   0  0  1  0  0  0  0  0  0  0  0  0
    4.5787   -2.0467    0.2850 C   0  0  1  0  0  0  0  0  0  0  0  0
    4.5813   -1.3252    1.4970 O   0  0  0  0  0  0  0  0  0  0  0  0
    2.1434   -3.4248    4.5218 H   0  0  0  0  0  0  0  0  0  0  0  0
    3.5180   -2.3632    4.8552 H   0  0  0  0  0  0  0  0  0  0  0  0
    3.2723   -3.8257    5.8260 H   0  0  0  0  0  0  0  0  0  0  0  0
    6.4212   -4.3245    2.5058 H   0  0  0  0  0  0  0  0  0  0  0  0
    6.5796   -5.0190    0.9582 H   0  0  0  0  0  0  0  0  0  0  0  0
    6.8942   -2.1462    1.6772 H   0  0  0  0  0  0  0  0  0  0  0  0
    8.3117   -4.0066   -0.2854 H   0  0  0  0  0  0  0  0  0  0  0  0
    8.8759   -3.6019    1.3299 H   0  0  0  0  0  0  0  0  0  0  0  0
    8.8058   -2.3502    0.0857 H   0  0  0  0  0  0  0  0  0  0  0  0
    5.9774   -3.4546   -0.6897 H   0  0  0  0  0  0  0  0  0  0  0  0
    5.9630   -0.7313   -1.5070 H   0  0  0  0  0  0  0  0  0  0  0  0
    7.2818   -1.8768   -1.8279 H   0  0  0  0  0  0  0  0  0  0  0  0
    5.3895   -1.8348   -3.5857 H   0  0  0  0  0  0  0  0  0  0  0  0
    5.9751   -3.3547   -3.0173 H   0  0  0  0  0  0  0  0  0  0  0  0
    1.9092   -2.0502   -2.3884 H   0  0  0  0  0  0  0  0  0  0  0  0
    2.8596   -1.4147   -3.6972 H   0  0  0  0  0  0  0  0  0  0  0  0
    3.1679   -0.8424   -2.0940 H   0  0  0  0  0  0  0  0  0  0  0  0
    2.5536   -4.2145   -3.6642 H   0  0  0  0  0  0  0  0  0  0  0  0
    4.2519   -4.6683   -3.7614 H   0  0  0  0  0  0  0  0  0  0  0  0
    3.6764   -3.2869   -4.6476 H   0  0  0  0  0  0  0  0  0  0  0  0
    4.1374   -4.7602   -1.3352 H   0  0  0  0  0  0  0  0  0  0  0  0
    1.8266   -2.7333   -0.3103 H   0  0  0  0  0  0  0  0  0  0  0  0
    3.8949   -6.1755    2.1803 H   0  0  0  0  0  0  0  0  0  0  0  0
    4.1369   -7.0247   -0.5787 H   0  0  0  0  0  0  0  0  0  0  0  0
    5.5819   -6.2199   -0.2238 H   0  0  0  0  0  0  0  0  0  0  0  0
    3.3420   -8.3667    1.8867 H   0  0  0  0  0  0  0  0  0  0  0  0
    3.6988   -9.3501    0.4572 H   0  0  0  0  0  0  0  0  0  0  0  0
    4.1278  -10.1340    3.0433 H   0  0  0  0  0  0  0  0  0  0  0  0
    5.1547  -10.7214    1.7379 H   0  0  0  0  0  0  0  0  0  0  0  0
    5.9582   -8.9533    3.9032 H   0  0  0  0  0  0  0  0  0  0  0  0
    6.9596   -9.6144    2.6088 H   0  0  0  0  0  0  0  0  0  0  0  0
    7.0055   -7.3370    1.9057 H   0  0  0  0  0  0  0  0  0  0  0  0
    5.5271   -7.0131    2.8597 H   0  0  0  0  0  0  0  0  0  0  0  0
    4.0773   -1.3779   -0.3815 H   0  0  0  0  0  0  0  0  0  0  0  0
    4.8457   -0.4097    1.3084 H   0  0  0  0  0  0  0  0  0  0  0  0
  1  2  1  0
  1 30  1  0
  1 31  1  0
  1 32  1  0
  2  3  2  0
  2  4  1  0
  5  4  1  1
  5 20  1  0
 27  5  1  1
  5  6  1  0
  6  7  1  0
  6 33  1  0
  6 34  1  0
  7  8  1  0
  7  9  1  0
  7 35  1  1
  8 36  1  0
  8 37  1  0
  8 38  1  0
  9 28  1  0
  9 10  1  0
  9 39  1  6
 10 11  1  0
 10 40  1  0
 10 41  1  0
 11 12  1  0
 11 42  1  0
 11 43  1  0
 12 13  1  0
 12 14  1  0
 12 15  1  0
 13 44  1  0
 13 45  1  0
 13 46  1  0
 14 47  1  0
 14 48  1  0
 14 49  1  0
 15 27  1  0
 15 16  1  0
 15 50  1  6
 16 17  1  0
 16 27  1  0
 16 51  1  6
 17 18  1  0
 18 19  2  0
 18 20  1  0
 20 21  1  0
 20 52  1  1
 21 22  1  0
 21 53  1  0
 21 54  1  0
 22 26  1  0
 22 23  1  0
 23 24  1  0
 23 55  1  0
 23 56  1  0
 24 25  1  0
 24 57  1  0
 24 58  1  0
 25 26  1  0
 25 59  1  0
 25 60  1  0
 26 61  1  0
 26 62  1  0
 27 28  1  0
 28 29  1  0
 28 63  1  6
 29 64  1  0
M  END
>  <i_m_ct_stereo_status>  (390) 
1

>  <s_m_source_file>  (390) 
/var/tmp/pbs.5076255.sched01/tmpxmhsyh4a/135ajud44o5.sdf

>  <i_m_source_file_index>  (390) 
27

>  <i_lp_mmshare_version>  (390) 
48012

>  <i_f3d_flags>  (390) 
0

>  <s_epik_input>  (390) 
W0NIM11DKD1PKU9bQ0BAXTEoW0NAQF0yMzQpW0NIMl1bQ0BASF0oW0NIM10pW0NAQEhdKFtDSF00W09IXSlbQ0gyXVtDSDJdQyhbQ0gzXSkoW0NIM10pW0NAQEhdMltDQEhdM09DKD1PKVtDQEhdMVtDSDJdTjVbQ0gyXVtDSDJdW0NIMl1bQ0gyXTU=

>  <s_epik_cmdline>  (390) 
J2VwaWtfcHl0aG9uJywgJy1waHQnLCAnMi4wJywgJy1waCcsICc3LjAnLCAnLXRuJywgJzgnLCAnLW1hJywgJzIwMCcsICctaW1hZScsICc8aW5maWxlLm1hZT4nLCAnLW9tYWUnLCAnPG91dGZpbGUubWFlPic=

>  <r_epik_Ionization_Penalty>  (390) 
2.08795

>  <r_epik_Ionization_Penalty_Charging>  (390) 
0

>  <r_epik_Ionization_Penalty_Neutral>  (390) 
2.08795

>  <r_epik_State_Penalty>  (390) 
2.22316

>  <r_epik_Charging_Adjusted_Penalty>  (390) 
2.22316

>  <i_epik_Tot_Q>  (390) 
0

>  <i_epik_Tot_abs_Q>  (390) 
0

>  <s_epik_Chemistry_Notes>  (390) 
This compound has an ester and may undergo hydrolysis at high or low pH.

>  <s_lp_Force_Field>  (390) 
OPLS3e

>  <r_lp_Energy>  (390) 
84.9254

>  <b_lp_Chiralities_Consistent>  (390) 
1

>  <s_lp_Variant>  (390) 
106:0-4

>  <s_i_glide_gridfile>  (390) 
pfpi4k_grid

>  <i_i_glide_lignum>  (390) 
27

>  <i_i_glide_rotatable_bonds>  (390) 
5

>  <r_i_docking_score>  (390) 
-2.58788

>  <r_i_glide_ligand_efficiency>  (390) 
-0.0892372

>  <r_i_glide_ligand_efficiency_sa>  (390) 
-0.274165

>  <r_i_glide_ligand_efficiency_ln>  (390) 
-0.592559

>  <r_i_glide_gscore>  (390) 
-2.58788

>  <r_i_glide_lipo>  (390) 
-0.723216

>  <r_i_glide_hbond>  (390) 
-0.0446968

>  <r_i_glide_metal>  (390) 
-0

>  <r_i_glide_rewards>  (390) 
-0.644129

>  <r_i_glide_evdw>  (390) 
-22.2731

>  <r_i_glide_ecoul>  (390) 
-2.58078

>  <r_i_glide_erotb>  (390) 
0.358527

>  <r_i_glide_esite>  (390) 
-0.0335898

>  <r_i_glide_emodel>  (390) 
-26.4779

>  <r_i_glide_energy>  (390) 
-24.8539

>  <r_i_glide_einternal>  (390) 
4.23812

>  <r_i_glide_intrahb_reward>  (390) 
-0

>  <i_i_glide_confnum>  (390) 
2

>  <i_i_glide_posenum>  (390) 
11

>  <r_i_glide_eff_state_penalty>  (390) 
0

>  <ligand_id>  (390) 
106

>  <original_smiles>  (390) 
CC(=O)OC12CC(C)C3CCC(C)(C)C4C(OC(=O)C1CN1CCCC1)C42C3O

>  <smiles>  (390) 
[H]OC1([H])C2([H])C([H])([H])C([H])([H])C(C([H])([H])[H])(C([H])([H])[H])C3([H])C4([H])OC(=O)C([H])(C([H])([H])N5C([H])([H])C([H])([H])C([H])([H])C5([H])[H])C(OC(=O)C([H])([H])[H])(C([H])([H])C2([H])C([H])([H])[H])C143

$$$$
106:3:1
     RDKit          3D

 64 68  0  0  1  0  0  0  0  0999 V2000
    4.8685  -13.3038    3.4106 C   0  0  0  0  0  0  0  0  0  0  0  0
    4.9094  -11.8252    3.7844 C   0  0  0  0  0  0  0  0  0  0  0  0
    5.9531  -11.2897    4.1555 O   0  0  0  0  0  0  0  0  0  0  0  0
    3.6929  -11.2262    3.6562 O   0  0  0  0  0  0  0  0  0  0  0  0
    3.3761   -9.8356    3.9213 C   0  0  1  0  0  0  0  0  0  0  0  0
    3.6140   -9.4994    5.4882 C   0  0  0  0  0  0  0  0  0  0  0  0
    2.4198   -9.6398    6.5015 C   0  0  1  0  0  0  0  0  0  0  0  0
    2.5842   -8.7062    7.7036 C   0  0  0  0  0  0  0  0  0  0  0  0
    1.1716   -9.3517    5.6703 C   0  0  2  0  0  0  0  0  0  0  0  0
   -0.1799   -8.7083    5.9779 C   0  0  0  0  0  0  0  0  0  0  0  0
   -0.5803   -7.7289    4.8047 C   0  0  0  0  0  0  0  0  0  0  0  0
   -0.3065   -8.0634    3.2784 C   0  0  0  0  0  0  0  0  0  0  0  0
   -1.4173   -8.9765    2.6823 C   0  0  0  0  0  0  0  0  0  0  0  0
   -0.4830   -6.7396    2.5133 C   0  0  0  0  0  0  0  0  0  0  0  0
    1.1467   -8.5218    2.9623 C   0  0  2  0  0  0  0  0  0  0  0  0
    1.4502   -9.7242    2.0978 C   0  0  1  0  0  0  0  0  0  0  0  0
    2.4756   -9.4103    1.1480 O   0  0  0  0  0  0  0  0  0  0  0  0
    3.8122   -9.2263    1.4576 C   0  0  0  0  0  0  0  0  0  0  0  0
    4.6556   -9.2471    0.5854 O   0  0  0  0  0  0  0  0  0  0  0  0
    4.2242   -8.9643    2.9185 C   0  0  1  0  0  0  0  0  0  0  0  0
    4.4242   -7.4295    3.2009 C   0  0  0  0  0  0  0  0  0  0  0  0
    5.6913   -6.8422    2.7330 N   0  0  0  0  0  0  0  0  0  0  0  0
    5.8165   -6.7918    1.2857 C   0  0  0  0  0  0  0  0  0  0  0  0
    6.9264   -5.8064    1.0097 C   0  0  0  0  0  0  0  0  0  0  0  0
    6.9615   -4.9229    2.2437 C   0  0  0  0  0  0  0  0  0  0  0  0
    5.8281   -5.4371    3.1367 C   0  0  0  0  0  0  0  0  0  0  0  0
    1.8674   -9.7803    3.5318 C   0  0  1  0  0  0  0  0  0  0  0  0
    1.0347  -10.3937    4.5774 C   0  0  1  0  0  0  0  0  0  0  0  0
    1.3496  -11.7325    4.9332 O   0  0  0  0  0  0  0  0  0  0  0  0
    4.4524  -13.4323    2.4109 H   0  0  0  0  0  0  0  0  0  0  0  0
    4.2323  -13.8387    4.1149 H   0  0  0  0  0  0  0  0  0  0  0  0
    5.8653  -13.7442    3.4330 H   0  0  0  0  0  0  0  0  0  0  0  0
    4.4637  -10.0620    5.8564 H   0  0  0  0  0  0  0  0  0  0  0  0
    3.9056   -8.4548    5.6191 H   0  0  0  0  0  0  0  0  0  0  0  0
    2.3996  -10.6551    6.8879 H   0  0  0  0  0  0  0  0  0  0  0  0
    2.6366   -7.6637    7.3994 H   0  0  0  0  0  0  0  0  0  0  0  0
    3.4969   -8.9362    8.2468 H   0  0  0  0  0  0  0  0  0  0  0  0
    1.7550   -8.8082    8.3999 H   0  0  0  0  0  0  0  0  0  0  0  0
    1.5832   -8.4049    5.3059 H   0  0  0  0  0  0  0  0  0  0  0  0
   -0.9562   -9.4574    6.1265 H   0  0  0  0  0  0  0  0  0  0  0  0
   -0.1229   -8.1486    6.9082 H   0  0  0  0  0  0  0  0  0  0  0  0
   -1.6426   -7.5104    4.8854 H   0  0  0  0  0  0  0  0  0  0  0  0
   -0.0848   -6.7827    5.0297 H   0  0  0  0  0  0  0  0  0  0  0  0
   -1.1753   -9.3121    1.6761 H   0  0  0  0  0  0  0  0  0  0  0  0
   -2.3605   -8.4371    2.5986 H   0  0  0  0  0  0  0  0  0  0  0  0
   -1.6473   -9.8583    3.2655 H   0  0  0  0  0  0  0  0  0  0  0  0
   -0.3522   -6.8695    1.4358 H   0  0  0  0  0  0  0  0  0  0  0  0
    0.2240   -5.9722    2.8417 H   0  0  0  0  0  0  0  0  0  0  0  0
   -1.4924   -6.3820    2.6927 H   0  0  0  0  0  0  0  0  0  0  0  0
    1.7853   -7.6624    2.8295 H   0  0  0  0  0  0  0  0  0  0  0  0
    0.6711  -10.4173    1.7672 H   0  0  0  0  0  0  0  0  0  0  0  0
    5.2357   -9.3351    2.9540 H   0  0  0  0  0  0  0  0  0  0  0  0
    3.6160   -6.8291    2.7848 H   0  0  0  0  0  0  0  0  0  0  0  0
    4.4353   -7.1926    4.2626 H   0  0  0  0  0  0  0  0  0  0  0  0
    6.1477   -7.7261    0.8918 H   0  0  0  0  0  0  0  0  0  0  0  0
    4.8747   -6.4449    0.8394 H   0  0  0  0  0  0  0  0  0  0  0  0
    7.8432   -6.3809    0.9155 H   0  0  0  0  0  0  0  0  0  0  0  0
    6.7446   -5.2609    0.0817 H   0  0  0  0  0  0  0  0  0  0  0  0
    7.9334   -5.0571    2.7236 H   0  0  0  0  0  0  0  0  0  0  0  0
    6.8228   -3.8782    1.9693 H   0  0  0  0  0  0  0  0  0  0  0  0
    4.9027   -4.9001    2.9214 H   0  0  0  0  0  0  0  0  0  0  0  0
    6.0481   -5.3328    4.2031 H   0  0  0  0  0  0  0  0  0  0  0  0
    0.0270  -10.4651    4.2159 H   0  0  0  0  0  0  0  0  0  0  0  0
    1.2228  -11.8739    5.8434 H   0  0  0  0  0  0  0  0  0  0  0  0
  1  2  1  0
  1 30  1  0
  1 31  1  0
  1 32  1  0
  2  3  2  0
  2  4  1  0
  5  4  1  1
  5 20  1  0
 27  5  1  6
  5  6  1  0
  6  7  1  0
  6 33  1  0
  6 34  1  0
  7  8  1  0
  7  9  1  0
  7 35  1  1
  8 36  1  0
  8 37  1  0
  8 38  1  0
  9 28  1  0
  9 10  1  0
  9 39  1  6
 10 11  1  0
 10 40  1  0
 10 41  1  0
 11 12  1  0
 11 42  1  0
 11 43  1  0
 12 13  1  0
 12 14  1  0
 12 15  1  0
 13 44  1  0
 13 45  1  0
 13 46  1  0
 14 47  1  0
 14 48  1  0
 14 49  1  0
 15 27  1  0
 15 16  1  0
 15 50  1  6
 16 17  1  0
 16 27  1  0
 16 51  1  6
 17 18  1  0
 18 19  2  0
 18 20  1  0
 20 21  1  0
 20 52  1  6
 21 22  1  0
 21 53  1  0
 21 54  1  0
 22 26  1  0
 22 23  1  0
 23 24  1  0
 23 55  1  0
 23 56  1  0
 24 25  1  0
 24 57  1  0
 24 58  1  0
 25 26  1  0
 25 59  1  0
 25 60  1  0
 26 61  1  0
 26 62  1  0
 27 28  1  0
 28 29  1  0
 28 63  1  6
 29 64  1  0
M  END
>  <i_m_ct_stereo_status>  (391) 
1

>  <s_m_source_file>  (391) 
/var/tmp/pbs.5076255.sched01/tmpxmhsyh4a/135ajud44o5.sdf

>  <i_m_source_file_index>  (391) 
27

>  <i_lp_mmshare_version>  (391) 
48012

>  <i_f3d_flags>  (391) 
0

>  <s_epik_input>  (391) 
W0NIM11DKD1PKU9bQ0BAXTEoW0NAQF0yMzQpW0NIMl1bQ0BASF0oW0NIM10pW0NAQEhdKFtDSF00W09IXSlbQ0gyXVtDSDJdQyhbQ0gzXSkoW0NIM10pW0NAQEhdMltDQEhdM09DKD1PKVtDQEhdMVtDSDJdTjVbQ0gyXVtDSDJdW0NIMl1bQ0gyXTU=

>  <s_epik_cmdline>  (391) 
J2VwaWtfcHl0aG9uJywgJy1waHQnLCAnMi4wJywgJy1waCcsICc3LjAnLCAnLXRuJywgJzgnLCAnLW1hJywgJzIwMCcsICctaW1hZScsICc8aW5maWxlLm1hZT4nLCAnLW9tYWUnLCAnPG91dGZpbGUubWFlPic=

>  <r_epik_Ionization_Penalty>  (391) 
2.08795

>  <r_epik_Ionization_Penalty_Charging>  (391) 
0

>  <r_epik_Ionization_Penalty_Neutral>  (391) 
2.08795

>  <r_epik_State_Penalty>  (391) 
2.22316

>  <r_epik_Charging_Adjusted_Penalty>  (391) 
2.22316

>  <i_epik_Tot_Q>  (391) 
0

>  <i_epik_Tot_abs_Q>  (391) 
0

>  <s_epik_Chemistry_Notes>  (391) 
This compound has an ester and may undergo hydrolysis at high or low pH.

>  <s_lp_Force_Field>  (391) 
OPLS3e

>  <r_lp_Energy>  (391) 
84.9254

>  <b_lp_Chiralities_Consistent>  (391) 
1

>  <s_lp_Variant>  (391) 
106:0-4

>  <s_i_glide_gridfile>  (391) 
pfpi4k_grid

>  <i_i_glide_lignum>  (391) 
27

>  <i_i_glide_rotatable_bonds>  (391) 
5

>  <r_i_docking_score>  (391) 
-2.25107

>  <r_i_glide_ligand_efficiency>  (391) 
-0.077623

>  <r_i_glide_ligand_efficiency_sa>  (391) 
-0.238482

>  <r_i_glide_ligand_efficiency_ln>  (391) 
-0.515437

>  <r_i_glide_gscore>  (391) 
-2.25107

>  <r_i_glide_lipo>  (391) 
-0.355052

>  <r_i_glide_hbond>  (391) 
0

>  <r_i_glide_metal>  (391) 
-0

>  <r_i_glide_rewards>  (391) 
-0.644129

>  <r_i_glide_evdw>  (391) 
-20.2064

>  <r_i_glide_ecoul>  (391) 
-3.4052

>  <r_i_glide_erotb>  (391) 
0.358527

>  <r_i_glide_esite>  (391) 
-0.0893108

>  <r_i_glide_emodel>  (391) 
-24.3138

>  <r_i_glide_energy>  (391) 
-23.6116

>  <r_i_glide_einternal>  (391) 
2.51337

>  <r_i_glide_intrahb_reward>  (391) 
-0

>  <i_i_glide_confnum>  (391) 
3

>  <i_i_glide_posenum>  (391) 
1

>  <r_i_glide_eff_state_penalty>  (391) 
0

>  <ligand_id>  (391) 
106

>  <original_smiles>  (391) 
CC(=O)OC12CC(C)C3CCC(C)(C)C4C(OC(=O)C1CN1CCCC1)C42C3O

>  <smiles>  (391) 
[H]OC1([H])C2([H])C([H])([H])C([H])([H])C(C([H])([H])[H])(C([H])([H])[H])C3([H])C4([H])OC(=O)C([H])(C([H])([H])N5C([H])([H])C([H])([H])C([H])([H])C5([H])[H])C(OC(=O)C([H])([H])[H])(C([H])([H])C2([H])C([H])([H])[H])C143

$$$$
106:3:2
     RDKit          3D

 64 68  0  0  1  0  0  0  0  0999 V2000
    5.2119  -13.1823    3.2539 C   0  0  0  0  0  0  0  0  0  0  0  0
    5.2156  -11.7232    3.6999 C   0  0  0  0  0  0  0  0  0  0  0  0
    6.2503  -11.1778    4.0787 O   0  0  0  0  0  0  0  0  0  0  0  0
    3.9830  -11.1521    3.6120 O   0  0  0  0  0  0  0  0  0  0  0  0
    3.6360   -9.7833    3.9253 C   0  0  1  0  0  0  0  0  0  0  0  0
    3.9170   -9.4759    5.4988 C   0  0  0  0  0  0  0  0  0  0  0  0
    2.7556   -9.6883    6.5476 C   0  0  1  0  0  0  0  0  0  0  0  0
    2.9367   -8.7771    7.7742 C   0  0  0  0  0  0  0  0  0  0  0  0
    1.4883   -9.3818    5.7464 C   0  0  2  0  0  0  0  0  0  0  0  0
    0.1309   -8.7860    6.1107 C   0  0  0  0  0  0  0  0  0  0  0  0
   -0.3075   -7.7672    4.9855 C   0  0  0  0  0  0  0  0  0  0  0  0
   -0.0636   -8.0374    3.4369 C   0  0  0  0  0  0  0  0  0  0  0  0
   -1.1714   -8.9530    2.8375 C   0  0  0  0  0  0  0  0  0  0  0  0
   -0.2811   -6.6890    2.7266 C   0  0  0  0  0  0  0  0  0  0  0  0
    1.3827   -8.4712    3.0624 C   0  0  2  0  0  0  0  0  0  0  0  0
    1.6531   -9.6428    2.1328 C   0  0  1  0  0  0  0  0  0  0  0  0
    2.6262   -9.3015    1.1578 O   0  0  0  0  0  0  0  0  0  0  0  0
    3.9529   -9.0686    1.4178 C   0  0  0  0  0  0  0  0  0  0  0  0
    4.7585   -9.0067    0.5083 O   0  0  0  0  0  0  0  0  0  0  0  0
    4.4364   -8.8843    2.8920 C   0  0  1  0  0  0  0  0  0  0  0  0
    4.6484   -7.3608    3.2832 C   0  0  0  0  0  0  0  0  0  0  0  0
    6.0109   -6.8388    3.0724 N   0  0  0  0  0  0  0  0  0  0  0  0
    7.0903   -7.6064    3.7091 C   0  0  0  0  0  0  0  0  0  0  0  0
    8.3587   -7.0641    3.0226 C   0  0  0  0  0  0  0  0  0  0  0  0
    7.9018   -6.4518    1.6959 C   0  0  0  0  0  0  0  0  0  0  0  0
    6.3959   -6.7066    1.6675 C   0  0  0  0  0  0  0  0  0  0  0  0
    2.1137   -9.7393    3.5580 C   0  0  1  0  0  0  0  0  0  0  0  0
    1.3324  -10.3899    4.6181 C   0  0  1  0  0  0  0  0  0  0  0  0
    1.6661  -11.7322    4.8838 O   0  0  0  0  0  0  0  0  0  0  0  0
    4.7864  -13.2656    2.2541 H   0  0  0  0  0  0  0  0  0  0  0  0
    4.5954  -13.7657    3.9351 H   0  0  0  0  0  0  0  0  0  0  0  0
    6.2186  -13.5991    3.2385 H   0  0  0  0  0  0  0  0  0  0  0  0
    4.7830  -10.0520    5.8267 H   0  0  0  0  0  0  0  0  0  0  0  0
    4.2307   -8.4523    5.6631 H   0  0  0  0  0  0  0  0  0  0  0  0
    2.7511  -10.7172    6.9040 H   0  0  0  0  0  0  0  0  0  0  0  0
    2.9633   -7.7243    7.4991 H   0  0  0  0  0  0  0  0  0  0  0  0
    3.8686   -9.0099    8.2869 H   0  0  0  0  0  0  0  0  0  0  0  0
    2.1238   -8.9183    8.4856 H   0  0  0  0  0  0  0  0  0  0  0  0
    1.8745   -8.4175    5.4064 H   0  0  0  0  0  0  0  0  0  0  0  0
   -0.6092   -9.5743    6.2449 H   0  0  0  0  0  0  0  0  0  0  0  0
    0.1940   -8.2553    7.0583 H   0  0  0  0  0  0  0  0  0  0  0  0
   -1.3703   -7.5693    5.1128 H   0  0  0  0  0  0  0  0  0  0  0  0
    0.1796   -6.8225    5.2304 H   0  0  0  0  0  0  0  0  0  0  0  0
   -0.9555   -9.2532    1.8114 H   0  0  0  0  0  0  0  0  0  0  0  0
   -2.1284   -8.4335    2.7999 H   0  0  0  0  0  0  0  0  0  0  0  0
   -1.3629   -9.8562    3.4048 H   0  0  0  0  0  0  0  0  0  0  0  0
   -0.1812   -6.7849    1.6417 H   0  0  0  0  0  0  0  0  0  0  0  0
    0.4283   -5.9268    3.0585 H   0  0  0  0  0  0  0  0  0  0  0  0
   -1.2813   -6.3365    2.9582 H   0  0  0  0  0  0  0  0  0  0  0  0
    2.0246   -7.6000    2.9682 H   0  0  0  0  0  0  0  0  0  0  0  0
    0.8628  -10.3201    1.7831 H   0  0  0  0  0  0  0  0  0  0  0  0
    5.4030   -9.3061    2.8314 H   0  0  0  0  0  0  0  0  0  0  0  0
    3.9750   -6.7170    2.7125 H   0  0  0  0  0  0  0  0  0  0  0  0
    4.4043   -7.0995    4.3050 H   0  0  0  0  0  0  0  0  0  0  0  0
    7.1071   -7.4568    4.8010 H   0  0  0  0  0  0  0  0  0  0  0  0
    7.0241   -8.6539    3.4865 H   0  0  0  0  0  0  0  0  0  0  0  0
    8.8680   -6.3112    3.6306 H   0  0  0  0  0  0  0  0  0  0  0  0
    9.0316   -7.9054    2.8664 H   0  0  0  0  0  0  0  0  0  0  0  0
    8.1828   -5.3948    1.6051 H   0  0  0  0  0  0  0  0  0  0  0  0
    8.3045   -6.9950    0.8478 H   0  0  0  0  0  0  0  0  0  0  0  0
    6.3103   -7.6340    1.1911 H   0  0  0  0  0  0  0  0  0  0  0  0
    5.8257   -5.9142    1.1437 H   0  0  0  0  0  0  0  0  0  0  0  0
    0.3074  -10.4799    4.2956 H   0  0  0  0  0  0  0  0  0  0  0  0
    1.4334  -11.9252    5.7921 H   0  0  0  0  0  0  0  0  0  0  0  0
  1  2  1  0
  1 30  1  0
  1 31  1  0
  1 32  1  0
  2  3  2  0
  2  4  1  0
  5  4  1  6
  5 20  1  0
 27  5  1  6
  5  6  1  0
  6  7  1  0
  6 33  1  0
  6 34  1  0
  7  8  1  0
  7  9  1  0
  7 35  1  1
  8 36  1  0
  8 37  1  0
  8 38  1  0
  9 28  1  0
  9 10  1  0
  9 39  1  6
 10 11  1  0
 10 40  1  0
 10 41  1  0
 11 12  1  0
 11 42  1  0
 11 43  1  0
 12 13  1  0
 12 14  1  0
 12 15  1  0
 13 44  1  0
 13 45  1  0
 13 46  1  0
 14 47  1  0
 14 48  1  0
 14 49  1  0
 15 27  1  0
 15 16  1  0
 15 50  1  6
 16 17  1  0
 16 27  1  0
 16 51  1  6
 17 18  1  0
 18 19  2  0
 18 20  1  0
 20 21  1  0
 20 52  1  6
 21 22  1  0
 21 53  1  0
 21 54  1  0
 22 26  1  0
 22 23  1  0
 23 24  1  0
 23 55  1  0
 23 56  1  0
 24 25  1  0
 24 57  1  0
 24 58  1  0
 25 26  1  0
 25 59  1  0
 25 60  1  0
 26 61  1  0
 26 62  1  0
 27 28  1  0
 28 29  1  0
 28 63  1  6
 29 64  1  0
M  END
>  <i_m_ct_stereo_status>  (392) 
1

>  <s_m_source_file>  (392) 
/var/tmp/pbs.5076255.sched01/tmpxmhsyh4a/135ajud44o5.sdf

>  <i_m_source_file_index>  (392) 
27

>  <i_lp_mmshare_version>  (392) 
48012

>  <i_f3d_flags>  (392) 
0

>  <s_epik_input>  (392) 
W0NIM11DKD1PKU9bQ0BAXTEoW0NAQF0yMzQpW0NIMl1bQ0BASF0oW0NIM10pW0NAQEhdKFtDSF00W09IXSlbQ0gyXVtDSDJdQyhbQ0gzXSkoW0NIM10pW0NAQEhdMltDQEhdM09DKD1PKVtDQEhdMVtDSDJdTjVbQ0gyXVtDSDJdW0NIMl1bQ0gyXTU=

>  <s_epik_cmdline>  (392) 
J2VwaWtfcHl0aG9uJywgJy1waHQnLCAnMi4wJywgJy1waCcsICc3LjAnLCAnLXRuJywgJzgnLCAnLW1hJywgJzIwMCcsICctaW1hZScsICc8aW5maWxlLm1hZT4nLCAnLW9tYWUnLCAnPG91dGZpbGUubWFlPic=

>  <r_epik_Ionization_Penalty>  (392) 
2.08795

>  <r_epik_Ionization_Penalty_Charging>  (392) 
0

>  <r_epik_Ionization_Penalty_Neutral>  (392) 
2.08795

>  <r_epik_State_Penalty>  (392) 
2.22316

>  <r_epik_Charging_Adjusted_Penalty>  (392) 
2.22316

>  <i_epik_Tot_Q>  (392) 
0

>  <i_epik_Tot_abs_Q>  (392) 
0

>  <s_epik_Chemistry_Notes>  (392) 
This compound has an ester and may undergo hydrolysis at high or low pH.

>  <s_lp_Force_Field>  (392) 
OPLS3e

>  <r_lp_Energy>  (392) 
84.9254

>  <b_lp_Chiralities_Consistent>  (392) 
1

>  <s_lp_Variant>  (392) 
106:0-4

>  <s_i_glide_gridfile>  (392) 
pfpi4k_grid

>  <i_i_glide_lignum>  (392) 
27

>  <i_i_glide_rotatable_bonds>  (392) 
5

>  <r_i_docking_score>  (392) 
-2.19822

>  <r_i_glide_ligand_efficiency>  (392) 
-0.0758007

>  <r_i_glide_ligand_efficiency_sa>  (392) 
-0.232884

>  <r_i_glide_ligand_efficiency_ln>  (392) 
-0.503337

>  <r_i_glide_gscore>  (392) 
-2.19822

>  <r_i_glide_lipo>  (392) 
-0.166116

>  <r_i_glide_hbond>  (392) 
0

>  <r_i_glide_metal>  (392) 
-0

>  <r_i_glide_rewards>  (392) 
-0.644129

>  <r_i_glide_evdw>  (392) 
-22.948

>  <r_i_glide_ecoul>  (392) 
-3.43564

>  <r_i_glide_erotb>  (392) 
0.358527

>  <r_i_glide_esite>  (392) 
-0.0837576

>  <r_i_glide_emodel>  (392) 
-26.2214

>  <r_i_glide_energy>  (392) 
-26.3836

>  <r_i_glide_einternal>  (392) 
5.13165

>  <r_i_glide_intrahb_reward>  (392) 
-0

>  <i_i_glide_confnum>  (392) 
3

>  <i_i_glide_posenum>  (392) 
33

>  <r_i_glide_eff_state_penalty>  (392) 
0

>  <ligand_id>  (392) 
106

>  <original_smiles>  (392) 
CC(=O)OC12CC(C)C3CCC(C)(C)C4C(OC(=O)C1CN1CCCC1)C42C3O

>  <smiles>  (392) 
[H]OC1([H])C2([H])C([H])([H])C([H])([H])C(C([H])([H])[H])(C([H])([H])[H])C3([H])C4([H])OC(=O)C([H])(C([H])([H])N5C([H])([H])C([H])([H])C([H])([H])C5([H])[H])C(OC(=O)C([H])([H])[H])(C([H])([H])C2([H])C([H])([H])[H])C143

$$$$
107:0:0
     RDKit          3D

 80 85  0  0  1  0  0  0  0  0999 V2000
   -0.2281   -6.8287    4.0838 C   0  0  0  0  0  0  0  0  0  0  0  0
    0.3440   -6.7192    2.8930 C   0  0  0  0  0  0  0  0  0  0  0  0
   -0.2402   -7.4482    1.6858 C   0  0  0  0  0  0  0  0  0  0  0  0
    1.6090   -5.8969    2.5886 C   0  0  2  0  0  0  0  0  0  0  0  0
    2.2516   -6.3273    1.3769 O   0  0  0  0  0  0  0  0  0  0  0  0
    3.5644   -6.0220    1.4778 C   0  0  0  0  0  0  0  0  0  0  0  0
    4.3265   -5.9948    0.1545 C   0  0  0  0  0  0  0  0  0  0  0  0
    3.9049   -5.6929    2.7257 C   0  0  0  0  0  0  0  0  0  0  0  0
    5.0537   -4.9116    3.2854 C   0  0  1  0  0  0  0  0  0  0  0  0
    6.0218   -4.5117    2.3221 O   0  0  0  0  0  0  0  0  0  0  0  0
    4.2589   -3.8084    3.9813 C   0  0  0  0  0  0  0  0  0  0  0  0
    4.4261   -2.4695    3.8187 C   0  0  0  0  0  0  0  0  0  0  0  0
    5.3321   -1.9684    2.9375 O   0  0  0  0  0  0  0  0  0  0  0  0
    4.8116   -0.7974    2.3239 C   0  0  1  0  0  0  0  0  0  0  0  0
    4.9963   -1.0315    0.8233 C   0  0  0  0  0  0  0  0  0  0  0  0
    3.3644   -0.6306    2.8663 C   0  0  1  0  0  0  0  0  0  0  0  0
    2.3101   -1.1939    1.8963 C   0  0  0  0  0  0  0  0  0  0  0  0
    3.4709   -1.3453    4.2314 C   0  0  2  0  0  0  0  0  0  0  0  0
    4.1956   -0.3914    5.2276 C   0  0  0  0  0  0  0  0  0  0  0  0
    2.2351   -1.9767    4.9561 C   0  0  2  0  0  0  0  0  0  0  0  0
    1.8272   -3.3679    4.4104 C   0  0  2  0  0  0  0  0  0  0  0  0
    0.4106   -3.6313    4.9653 C   0  0  0  0  0  0  0  0  0  0  0  0
   -0.1304   -2.2082    4.9075 C   0  0  1  0  0  0  0  0  0  0  0  0
   -1.3319   -1.7064    5.4566 O   0  0  0  0  0  0  0  0  0  0  0  0
   -1.2229   -0.3833    5.6962 C   0  0  0  0  0  0  0  0  0  0  0  0
   -2.1211    0.3444    6.1382 O   0  0  0  0  0  0  0  0  0  0  0  0
    0.2182    0.0759    5.3651 C   0  0  1  0  0  0  0  0  0  0  0  0
    0.1810    0.6601    3.9347 C   0  0  0  0  0  0  0  0  0  0  0  0
    0.7186    1.1795    6.3449 C   0  0  0  0  0  0  0  0  0  0  0  0
    1.7089    1.0127    7.0533 O   0  0  0  0  0  0  0  0  0  0  0  0
   -0.0177    2.3025    6.3438 O   0  0  0  0  0  0  0  0  0  0  0  0
    0.3901    3.3794    7.1745 C   0  0  0  0  0  0  0  0  0  0  0  0
    0.9155   -1.3198    5.5337 C   0  0  2  0  0  0  0  0  0  0  0  0
    0.9125   -1.6838    6.9218 O   0  0  0  0  0  0  0  0  0  0  0  0
    2.9625   -4.4397    4.5556 C   0  0  2  0  0  0  0  0  0  0  0  0
    3.2900   -4.7081    6.0565 C   0  0  0  0  0  0  0  0  0  0  0  0
    2.7472   -5.7899    3.6836 C   0  0  1  0  0  0  0  0  0  0  0  0
    2.9531   -7.1815    4.3784 C   0  0  0  0  0  0  0  0  0  0  0  0
    3.4811   -8.3738    3.5531 C   0  0  0  0  0  0  0  0  0  0  0  0
    2.5920   -7.4152    5.5287 O   0  0  0  0  0  0  0  0  0  0  0  0
   -1.1385   -7.4005    4.2275 H   0  0  0  0  0  0  0  0  0  0  0  0
    0.1846   -6.3532    4.9657 H   0  0  0  0  0  0  0  0  0  0  0  0
   -0.4182   -6.7657    0.8550 H   0  0  0  0  0  0  0  0  0  0  0  0
   -1.1891   -7.9303    1.9365 H   0  0  0  0  0  0  0  0  0  0  0  0
    0.4449   -8.2265    1.3494 H   0  0  0  0  0  0  0  0  0  0  0  0
    1.2384   -4.9166    2.3124 H   0  0  0  0  0  0  0  0  0  0  0  0
    5.3259   -5.5813    0.1972 H   0  0  0  0  0  0  0  0  0  0  0  0
    3.7455   -5.4083   -0.5557 H   0  0  0  0  0  0  0  0  0  0  0  0
    4.3853   -7.0089   -0.2485 H   0  0  0  0  0  0  0  0  0  0  0  0
    5.5365   -5.5024    4.0645 H   0  0  0  0  0  0  0  0  0  0  0  0
    5.6227   -3.9235    1.6935 H   0  0  0  0  0  0  0  0  0  0  0  0
    5.4018    0.0661    2.6240 H   0  0  0  0  0  0  0  0  0  0  0  0
    4.5540   -0.2493    0.2083 H   0  0  0  0  0  0  0  0  0  0  0  0
    4.5780   -1.9952    0.5328 H   0  0  0  0  0  0  0  0  0  0  0  0
    6.0642   -1.0794    0.6037 H   0  0  0  0  0  0  0  0  0  0  0  0
    3.1608    0.4311    2.9881 H   0  0  0  0  0  0  0  0  0  0  0  0
    2.5472   -2.2075    1.5760 H   0  0  0  0  0  0  0  0  0  0  0  0
    2.2500   -0.5761    0.9990 H   0  0  0  0  0  0  0  0  0  0  0  0
    1.3092   -1.2131    2.3167 H   0  0  0  0  0  0  0  0  0  0  0  0
    3.5765    0.4844    5.4333 H   0  0  0  0  0  0  0  0  0  0  0  0
    5.1401   -0.0130    4.8384 H   0  0  0  0  0  0  0  0  0  0  0  0
    4.4290   -0.8894    6.1756 H   0  0  0  0  0  0  0  0  0  0  0  0
    2.7443   -2.2175    5.8790 H   0  0  0  0  0  0  0  0  0  0  0  0
    1.6776   -3.2081    3.3546 H   0  0  0  0  0  0  0  0  0  0  0  0
   -0.1867   -4.2430    4.3066 H   0  0  0  0  0  0  0  0  0  0  0  0
    0.4032   -4.0547    5.9684 H   0  0  0  0  0  0  0  0  0  0  0  0
   -0.1922   -1.9775    3.8466 H   0  0  0  0  0  0  0  0  0  0  0  0
   -0.3767    1.5965    3.9006 H   0  0  0  0  0  0  0  0  0  0  0  0
   -0.3279    0.0044    3.2232 H   0  0  0  0  0  0  0  0  0  0  0  0
    1.1774    0.8782    3.5648 H   0  0  0  0  0  0  0  0  0  0  0  0
   -0.3394    4.1858    7.1210 H   0  0  0  0  0  0  0  0  0  0  0  0
    1.3596    3.7636    6.8473 H   0  0  0  0  0  0  0  0  0  0  0  0
    0.4869    3.0640    8.2150 H   0  0  0  0  0  0  0  0  0  0  0  0
    1.5937   -1.1634    7.3475 H   0  0  0  0  0  0  0  0  0  0  0  0
    2.4190   -5.0643    6.6117 H   0  0  0  0  0  0  0  0  0  0  0  0
    3.6830   -3.8424    6.5899 H   0  0  0  0  0  0  0  0  0  0  0  0
    4.0970   -5.4354    6.1614 H   0  0  0  0  0  0  0  0  0  0  0  0
    2.8168   -8.5880    2.7137 H   0  0  0  0  0  0  0  0  0  0  0  0
    3.5256   -9.2612    4.1894 H   0  0  0  0  0  0  0  0  0  0  0  0
    4.4926   -8.2013    3.1653 H   0  0  0  0  0  0  0  0  0  0  0  0
  1  2  2  0
  1 41  1  0
  1 42  1  0
  2  3  1  0
  2  4  1  0
  3 43  1  0
  3 44  1  0
  3 45  1  0
  4 37  1  0
  4  5  1  0
  4 46  1  6
  5  6  1  0
  6  7  1  0
  6  8  2  0
  7 47  1  0
  7 48  1  0
  7 49  1  0
  8 37  1  0
  8  9  1  0
  9 10  1  0
  9 11  1  0
  9 50  1  1
 10 51  1  0
 11 35  1  0
 11 12  2  0
 12 18  1  0
 12 13  1  0
 13 14  1  0
 14 15  1  0
 14 16  1  0
 14 52  1  1
 15 53  1  0
 15 54  1  0
 15 55  1  0
 16 17  1  0
 16 18  1  0
 16 56  1  1
 17 57  1  0
 17 58  1  0
 17 59  1  0
 18 19  1  1
 18 20  1  0
 19 60  1  0
 19 61  1  0
 19 62  1  0
 20 33  1  0
 20 21  1  0
 20 63  1  1
 21 22  1  0
 21 35  1  0
 21 64  1  6
 22 23  1  0
 22 65  1  0
 22 66  1  0
 23 33  1  0
 23 24  1  0
 23 67  1  6
 24 25  1  0
 25 26  2  0
 25 27  1  0
 27 28  1  6
 27 29  1  0
 27 33  1  0
 28 68  1  0
 28 69  1  0
 28 70  1  0
 29 30  2  0
 29 31  1  0
 31 32  1  0
 32 71  1  0
 32 72  1  0
 32 73  1  0
 33 34  1  1
 34 74  1  0
 35 36  1  1
 35 37  1  0
 36 75  1  0
 36 76  1  0
 36 77  1  0
 37 38  1  1
 38 39  1  0
 38 40  2  0
 39 78  1  0
 39 79  1  0
 39 80  1  0
M  END
>  <i_m_ct_stereo_status>  (393) 
1

>  <s_m_source_file>  (393) 
/var/tmp/pbs.5076255.sched01/tmpxmhsyh4a/135ajud44o5.sdf

>  <i_m_source_file_index>  (393) 
28

>  <i_lp_mmshare_version>  (393) 
48012

>  <i_f3d_flags>  (393) 
0

>  <s_epik_input>  (393) 
W0NIMl09QyhbQ0gzXSlbQ0BASF0xT0MoW0NIM10pPUMoW0NASF0yW09IXSlbQ0BAXTEoQyg9TylbQ0gzXSlbQ0BAXShbQ0gzXSkoQzI9QyhbQ0BAXTM0W0NIM10pT1tDQEBIXShbQ0gzXSlbQ0BIXTNbQ0gzXSlbQ0BASF01W0NAQEhdNFtDQF02KFtPSF0pW0NAQEhdKFtDSDJdNSlPQyg9TylbQ0BAXTYoW0NIM10pQyg9TylPW0NIM10=

>  <s_epik_cmdline>  (393) 
J2VwaWtfcHl0aG9uJywgJy1waHQnLCAnMi4wJywgJy1waCcsICc3LjAnLCAnLXRuJywgJzgnLCAnLW1hJywgJzIwMCcsICctaW1hZScsICc8aW5maWxlLm1hZT4nLCAnLW9tYWUnLCAnPG91dGZpbGUubWFlPic=

>  <r_lp_tautomer_probability>  (393) 
1

>  <r_epik_Ionization_Penalty>  (393) 
3.05717e-05

>  <r_epik_Ionization_Penalty_Charging>  (393) 
0

>  <r_epik_Ionization_Penalty_Neutral>  (393) 
3.05717e-05

>  <r_epik_State_Penalty>  (393) 
-0

>  <r_epik_Charging_Adjusted_Penalty>  (393) 
0

>  <i_epik_Tot_Q>  (393) 
0

>  <i_epik_Tot_abs_Q>  (393) 
0

>  <s_epik_Chemistry_Notes>  (393) 
This compound has an ester and may undergo hydrolysis at high or low pH.

>  <s_lp_Force_Field>  (393) 
OPLS3e

>  <r_lp_Energy>  (393) 
69.9378

>  <b_lp_Chiralities_Consistent>  (393) 
1

>  <s_lp_Variant>  (393) 
107:0-1

>  <s_i_glide_gridfile>  (393) 
pfpi4k_grid

>  <i_i_glide_lignum>  (393) 
28

>  <i_i_glide_rotatable_bonds>  (393) 
6

>  <r_i_docking_score>  (393) 
-3.37407

>  <r_i_glide_ligand_efficiency>  (393) 
-0.0843519

>  <r_i_glide_ligand_efficiency_sa>  (393) 
-0.288479

>  <r_i_glide_ligand_efficiency_ln>  (393) 
-0.719591

>  <r_i_glide_gscore>  (393) 
-3.37407

>  <r_i_glide_lipo>  (393) 
-0.33196

>  <r_i_glide_hbond>  (393) 
-0.16

>  <r_i_glide_metal>  (393) 
-0

>  <r_i_glide_rewards>  (393) 
-0.5

>  <r_i_glide_evdw>  (393) 
-30.2794

>  <r_i_glide_ecoul>  (393) 
-5.75721

>  <r_i_glide_erotb>  (393) 
0.0581218

>  <r_i_glide_esite>  (393) 
-0.0626844

>  <r_i_glide_emodel>  (393) 
-47.3744

>  <r_i_glide_energy>  (393) 
-36.0366

>  <r_i_glide_einternal>  (393) 
1.58391

>  <r_i_glide_intrahb_reward>  (393) 
-0.5

>  <i_i_glide_confnum>  (393) 
4

>  <i_i_glide_posenum>  (393) 
10

>  <r_i_glide_eff_state_penalty>  (393) 
0

>  <ligand_id>  (393) 
107

>  <original_smiles>  (393) 
C=C(C)C1OC(C)=C2C(O)C3=C4OC(C)C(C)C4(C)C4C(CC5OC(=O)C(C)(C(=O)OC)C54O)C3(C)C21C(C)=O

>  <smiles>  (393) 
[H]OC1([H])C2=C(C([H])([H])[H])OC([H])(C(=C([H])[H])C([H])([H])[H])C2(C(=O)C([H])([H])[H])C2(C([H])([H])[H])C1=C1OC([H])(C([H])([H])[H])C([H])(C([H])([H])[H])C1(C([H])([H])[H])C1([H])C2([H])C([H])([H])C2([H])OC(=O)C(C(=O)OC([H])([H])[H])(C([H])([H])[H])C21O[H]

$$$$
107:0:1
     RDKit          3D

 80 85  0  0  1  0  0  0  0  0999 V2000
   -0.2342   -6.8256    4.0819 C   0  0  0  0  0  0  0  0  0  0  0  0
    0.3396   -6.7188    2.8911 C   0  0  0  0  0  0  0  0  0  0  0  0
   -0.2440   -7.4479    1.6844 C   0  0  0  0  0  0  0  0  0  0  0  0
    1.6051   -5.8987    2.5880 C   0  0  2  0  0  0  0  0  0  0  0  0
    2.2457   -6.3327    1.3763 O   0  0  0  0  0  0  0  0  0  0  0  0
    3.5577   -6.0246    1.4758 C   0  0  0  0  0  0  0  0  0  0  0  0
    4.3181   -5.9973    0.1516 C   0  0  0  0  0  0  0  0  0  0  0  0
    3.8946   -5.6946    2.7254 C   0  0  0  0  0  0  0  0  0  0  0  0
    5.0406   -4.9158    3.2884 C   0  0  1  0  0  0  0  0  0  0  0  0
    5.9735   -4.4967    2.3065 O   0  0  0  0  0  0  0  0  0  0  0  0
    4.2517   -3.8062    3.9819 C   0  0  0  0  0  0  0  0  0  0  0  0
    4.4224   -2.4655    3.8248 C   0  0  0  0  0  0  0  0  0  0  0  0
    5.3383   -1.9529    2.9593 O   0  0  0  0  0  0  0  0  0  0  0  0
    4.8100   -0.7924    2.3289 C   0  0  1  0  0  0  0  0  0  0  0  0
    4.9968   -1.0347    0.8287 C   0  0  0  0  0  0  0  0  0  0  0  0
    3.3606   -0.6293    2.8689 C   0  0  1  0  0  0  0  0  0  0  0  0
    2.3071   -1.1938    1.8969 C   0  0  0  0  0  0  0  0  0  0  0  0
    3.4658   -1.3460    4.2346 C   0  0  2  0  0  0  0  0  0  0  0  0
    4.1902   -0.3921    5.2322 C   0  0  0  0  0  0  0  0  0  0  0  0
    2.2308   -1.9774    4.9578 C   0  0  2  0  0  0  0  0  0  0  0  0
    1.8240   -3.3682    4.4109 C   0  0  2  0  0  0  0  0  0  0  0  0
    0.4068   -3.6321    4.9645 C   0  0  0  0  0  0  0  0  0  0  0  0
   -0.1341   -2.2097    4.9098 C   0  0  1  0  0  0  0  0  0  0  0  0
   -1.3349   -1.7086    5.4576 O   0  0  0  0  0  0  0  0  0  0  0  0
   -1.2271   -0.3847    5.6953 C   0  0  0  0  0  0  0  0  0  0  0  0
   -2.1246    0.3440    6.1331 O   0  0  0  0  0  0  0  0  0  0  0  0
    0.2160    0.0744    5.3655 C   0  0  1  0  0  0  0  0  0  0  0  0
    0.1794    0.6583    3.9352 C   0  0  0  0  0  0  0  0  0  0  0  0
    0.7189    1.1774    6.3446 C   0  0  0  0  0  0  0  0  0  0  0  0
    1.7137    1.0131    7.0478 O   0  0  0  0  0  0  0  0  0  0  0  0
   -0.0175    2.3006    6.3463 O   0  0  0  0  0  0  0  0  0  0  0  0
    0.3890    3.3768    7.1793 C   0  0  0  0  0  0  0  0  0  0  0  0
    0.9127   -1.3212    5.5355 C   0  0  2  0  0  0  0  0  0  0  0  0
    0.9120   -1.6841    6.9257 O   0  0  0  0  0  0  0  0  0  0  0  0
    2.9573   -4.4404    4.5549 C   0  0  2  0  0  0  0  0  0  0  0  0
    3.2871   -4.7104    6.0548 C   0  0  0  0  0  0  0  0  0  0  0  0
    2.7406   -5.7901    3.6839 C   0  0  1  0  0  0  0  0  0  0  0  0
    2.9523   -7.1813    4.3771 C   0  0  0  0  0  0  0  0  0  0  0  0
    3.4757   -8.3755    3.5517 C   0  0  0  0  0  0  0  0  0  0  0  0
    2.6003   -7.4142    5.5299 O   0  0  0  0  0  0  0  0  0  0  0  0
   -1.1444   -7.3974    4.2249 H   0  0  0  0  0  0  0  0  0  0  0  0
    0.1764   -6.3476    4.9628 H   0  0  0  0  0  0  0  0  0  0  0  0
   -0.4215   -6.7648    0.8541 H   0  0  0  0  0  0  0  0  0  0  0  0
   -1.1937   -7.9290    1.9342 H   0  0  0  0  0  0  0  0  0  0  0  0
    0.4399   -8.2264    1.3473 H   0  0  0  0  0  0  0  0  0  0  0  0
    1.2384   -4.9187    2.3075 H   0  0  0  0  0  0  0  0  0  0  0  0
    5.3147   -5.5786    0.1902 H   0  0  0  0  0  0  0  0  0  0  0  0
    3.7378   -5.4131   -0.5613 H   0  0  0  0  0  0  0  0  0  0  0  0
    4.3788   -7.0119   -0.2506 H   0  0  0  0  0  0  0  0  0  0  0  0
    5.5342   -5.4940    4.0633 H   0  0  0  0  0  0  0  0  0  0  0  0
    6.5919   -5.2112    2.1941 H   0  0  0  0  0  0  0  0  0  0  0  0
    5.3949    0.0763    2.6212 H   0  0  0  0  0  0  0  0  0  0  0  0
    4.5546   -0.2558    0.2095 H   0  0  0  0  0  0  0  0  0  0  0  0
    4.5812   -2.0012    0.5414 H   0  0  0  0  0  0  0  0  0  0  0  0
    6.0645   -1.0839    0.6077 H   0  0  0  0  0  0  0  0  0  0  0  0
    3.1564    0.4325    2.9910 H   0  0  0  0  0  0  0  0  0  0  0  0
    2.5444   -2.2073    1.5757 H   0  0  0  0  0  0  0  0  0  0  0  0
    2.2465   -0.5762    0.9991 H   0  0  0  0  0  0  0  0  0  0  0  0
    1.3058   -1.2143    2.3170 H   0  0  0  0  0  0  0  0  0  0  0  0
    3.5735    0.4826    5.4418 H   0  0  0  0  0  0  0  0  0  0  0  0
    5.1331   -0.0100    4.8431 H   0  0  0  0  0  0  0  0  0  0  0  0
    4.4266   -0.8916    6.1782 H   0  0  0  0  0  0  0  0  0  0  0  0
    2.7403   -2.2216    5.8807 H   0  0  0  0  0  0  0  0  0  0  0  0
    1.6752   -3.2096    3.3543 H   0  0  0  0  0  0  0  0  0  0  0  0
   -0.1876   -4.2437    4.3007 H   0  0  0  0  0  0  0  0  0  0  0  0
    0.3967   -4.0591    5.9663 H   0  0  0  0  0  0  0  0  0  0  0  0
   -0.1962   -1.9782    3.8490 H   0  0  0  0  0  0  0  0  0  0  0  0
   -0.3774    1.5948    3.9009 H   0  0  0  0  0  0  0  0  0  0  0  0
   -0.3297    0.0046    3.2219 H   0  0  0  0  0  0  0  0  0  0  0  0
    1.1745    0.8774    3.5633 H   0  0  0  0  0  0  0  0  0  0  0  0
   -0.3383    4.1841    7.1211 H   0  0  0  0  0  0  0  0  0  0  0  0
    1.3609    3.7614    6.8592 H   0  0  0  0  0  0  0  0  0  0  0  0
    0.4776    3.0626    8.2207 H   0  0  0  0  0  0  0  0  0  0  0  0
    1.5952   -1.1686    7.3514 H   0  0  0  0  0  0  0  0  0  0  0  0
    2.4164   -5.0656    6.6103 H   0  0  0  0  0  0  0  0  0  0  0  0
    3.6823   -3.8468    6.5907 H   0  0  0  0  0  0  0  0  0  0  0  0
    4.0927   -5.4389    6.1623 H   0  0  0  0  0  0  0  0  0  0  0  0
    2.8102   -8.5900    2.7146 H   0  0  0  0  0  0  0  0  0  0  0  0
    3.5195   -9.2623    4.1892 H   0  0  0  0  0  0  0  0  0  0  0  0
    4.4869   -8.2049    3.1641 H   0  0  0  0  0  0  0  0  0  0  0  0
  1  2  2  0
  1 41  1  0
  1 42  1  0
  2  3  1  0
  2  4  1  0
  3 43  1  0
  3 44  1  0
  3 45  1  0
  4 37  1  0
  4  5  1  0
  4 46  1  6
  5  6  1  0
  6  7  1  0
  6  8  2  0
  7 47  1  0
  7 48  1  0
  7 49  1  0
  8 37  1  0
  8  9  1  0
  9 10  1  0
  9 11  1  0
  9 50  1  1
 10 51  1  0
 11 35  1  0
 11 12  2  0
 12 18  1  0
 12 13  1  0
 13 14  1  0
 14 15  1  0
 14 16  1  0
 14 52  1  1
 15 53  1  0
 15 54  1  0
 15 55  1  0
 16 17  1  0
 16 18  1  0
 16 56  1  1
 17 57  1  0
 17 58  1  0
 17 59  1  0
 18 19  1  1
 18 20  1  0
 19 60  1  0
 19 61  1  0
 19 62  1  0
 20 33  1  0
 20 21  1  0
 20 63  1  1
 21 22  1  0
 21 35  1  0
 21 64  1  6
 22 23  1  0
 22 65  1  0
 22 66  1  0
 23 33  1  0
 23 24  1  0
 23 67  1  6
 24 25  1  0
 25 26  2  0
 25 27  1  0
 27 28  1  6
 27 29  1  0
 27 33  1  0
 28 68  1  0
 28 69  1  0
 28 70  1  0
 29 30  2  0
 29 31  1  0
 31 32  1  0
 32 71  1  0
 32 72  1  0
 32 73  1  0
 33 34  1  1
 34 74  1  0
 35 36  1  1
 35 37  1  0
 36 75  1  0
 36 76  1  0
 36 77  1  0
 37 38  1  1
 38 39  1  0
 38 40  2  0
 39 78  1  0
 39 79  1  0
 39 80  1  0
M  END
>  <i_m_ct_stereo_status>  (394) 
1

>  <s_m_source_file>  (394) 
/var/tmp/pbs.5076255.sched01/tmpxmhsyh4a/135ajud44o5.sdf

>  <i_m_source_file_index>  (394) 
28

>  <i_lp_mmshare_version>  (394) 
48012

>  <i_f3d_flags>  (394) 
0

>  <s_epik_input>  (394) 
W0NIMl09QyhbQ0gzXSlbQ0BASF0xT0MoW0NIM10pPUMoW0NASF0yW09IXSlbQ0BAXTEoQyg9TylbQ0gzXSlbQ0BAXShbQ0gzXSkoQzI9QyhbQ0BAXTM0W0NIM10pT1tDQEBIXShbQ0gzXSlbQ0BIXTNbQ0gzXSlbQ0BASF01W0NAQEhdNFtDQF02KFtPSF0pW0NAQEhdKFtDSDJdNSlPQyg9TylbQ0BAXTYoW0NIM10pQyg9TylPW0NIM10=

>  <s_epik_cmdline>  (394) 
J2VwaWtfcHl0aG9uJywgJy1waHQnLCAnMi4wJywgJy1waCcsICc3LjAnLCAnLXRuJywgJzgnLCAnLW1hJywgJzIwMCcsICctaW1hZScsICc8aW5maWxlLm1hZT4nLCAnLW9tYWUnLCAnPG91dGZpbGUubWFlPic=

>  <r_lp_tautomer_probability>  (394) 
1

>  <r_epik_Ionization_Penalty>  (394) 
3.05717e-05

>  <r_epik_Ionization_Penalty_Charging>  (394) 
0

>  <r_epik_Ionization_Penalty_Neutral>  (394) 
3.05717e-05

>  <r_epik_State_Penalty>  (394) 
-0

>  <r_epik_Charging_Adjusted_Penalty>  (394) 
0

>  <i_epik_Tot_Q>  (394) 
0

>  <i_epik_Tot_abs_Q>  (394) 
0

>  <s_epik_Chemistry_Notes>  (394) 
This compound has an ester and may undergo hydrolysis at high or low pH.

>  <s_lp_Force_Field>  (394) 
OPLS3e

>  <r_lp_Energy>  (394) 
69.9378

>  <b_lp_Chiralities_Consistent>  (394) 
1

>  <s_lp_Variant>  (394) 
107:0-1

>  <s_i_glide_gridfile>  (394) 
pfpi4k_grid

>  <i_i_glide_lignum>  (394) 
28

>  <i_i_glide_rotatable_bonds>  (394) 
6

>  <r_i_docking_score>  (394) 
-3.34025

>  <r_i_glide_ligand_efficiency>  (394) 
-0.0835063

>  <r_i_glide_ligand_efficiency_sa>  (394) 
-0.285587

>  <r_i_glide_ligand_efficiency_ln>  (394) 
-0.712377

>  <r_i_glide_gscore>  (394) 
-3.34025

>  <r_i_glide_lipo>  (394) 
-0.329925

>  <r_i_glide_hbond>  (394) 
-0.16

>  <r_i_glide_metal>  (394) 
-0

>  <r_i_glide_rewards>  (394) 
-0.5

>  <r_i_glide_evdw>  (394) 
-30.3341

>  <r_i_glide_ecoul>  (394) 
-5.52612

>  <r_i_glide_erotb>  (394) 
0.0581218

>  <r_i_glide_esite>  (394) 
-0.0628248

>  <r_i_glide_emodel>  (394) 
-46.958

>  <r_i_glide_energy>  (394) 
-35.8602

>  <r_i_glide_einternal>  (394) 
1.91372

>  <r_i_glide_intrahb_reward>  (394) 
-0.5

>  <i_i_glide_confnum>  (394) 
4

>  <i_i_glide_posenum>  (394) 
1

>  <r_i_glide_eff_state_penalty>  (394) 
0

>  <ligand_id>  (394) 
107

>  <original_smiles>  (394) 
C=C(C)C1OC(C)=C2C(O)C3=C4OC(C)C(C)C4(C)C4C(CC5OC(=O)C(C)(C(=O)OC)C54O)C3(C)C21C(C)=O

>  <smiles>  (394) 
[H]OC1([H])C2=C(C([H])([H])[H])OC([H])(C(=C([H])[H])C([H])([H])[H])C2(C(=O)C([H])([H])[H])C2(C([H])([H])[H])C1=C1OC([H])(C([H])([H])[H])C([H])(C([H])([H])[H])C1(C([H])([H])[H])C1([H])C2([H])C([H])([H])C2([H])OC(=O)C(C(=O)OC([H])([H])[H])(C([H])([H])[H])C21O[H]

$$$$
107:0:2
     RDKit          3D

 80 85  0  0  1  0  0  0  0  0999 V2000
    1.8813   -7.5671    3.2027 C   0  0  0  0  0  0  0  0  0  0  0  0
    1.5303   -6.7102    2.2105 C   0  0  0  0  0  0  0  0  0  0  0  0
    0.3820   -7.0539    1.2827 C   0  0  0  0  0  0  0  0  0  0  0  0
    2.2185   -5.3723    1.9315 C   0  0  2  0  0  0  0  0  0  0  0  0
    2.2173   -5.0705    0.5267 O   0  0  0  0  0  0  0  0  0  0  0  0
    3.2475   -4.1965    0.2849 C   0  0  0  0  0  0  0  0  0  0  0  0
    3.1399   -3.4169   -1.0054 C   0  0  0  0  0  0  0  0  0  0  0  0
    4.0890   -4.1735    1.3241 C   0  0  0  0  0  0  0  0  0  0  0  0
    5.1418   -3.1620    1.7373 C   0  0  1  0  0  0  0  0  0  0  0  0
    5.3210   -2.0846    0.8513 O   0  0  0  0  0  0  0  0  0  0  0  0
    4.5649   -2.8593    3.1289 C   0  0  0  0  0  0  0  0  0  0  0  0
    4.2829   -1.6153    3.6144 C   0  0  0  0  0  0  0  0  0  0  0  0
    4.4394   -0.4945    2.8569 O   0  0  0  0  0  0  0  0  0  0  0  0
    3.3896    0.4129    3.1331 C   0  0  1  0  0  0  0  0  0  0  0  0
    2.7994    0.7666    1.7710 C   0  0  0  0  0  0  0  0  0  0  0  0
    2.4542   -0.2876    4.1637 C   0  0  1  0  0  0  0  0  0  0  0  0
    1.2249   -0.9314    3.4848 C   0  0  0  0  0  0  0  0  0  0  0  0
    3.4426   -1.2643    4.8377 C   0  0  2  0  0  0  0  0  0  0  0  0
    4.3193   -0.4515    5.8503 C   0  0  0  0  0  0  0  0  0  0  0  0
    2.9813   -2.5948    5.5261 C   0  0  2  0  0  0  0  0  0  0  0  0
    2.7112   -3.7640    4.5412 C   0  0  2  0  0  0  0  0  0  0  0  0
    1.9134   -4.8201    5.3450 C   0  0  0  0  0  0  0  0  0  0  0  0
    1.0990   -3.8723    6.2223 C   0  0  1  0  0  0  0  0  0  0  0  0
    0.3053   -4.1739    7.3433 O   0  0  0  0  0  0  0  0  0  0  0  0
    0.1908   -3.1116    8.1639 C   0  0  0  0  0  0  0  0  0  0  0  0
   -0.5202   -3.0252    9.1612 O   0  0  0  0  0  0  0  0  0  0  0  0
    1.0740   -1.9488    7.6039 C   0  0  1  0  0  0  0  0  0  0  0  0
    0.1302   -1.0321    6.7877 C   0  0  0  0  0  0  0  0  0  0  0  0
    1.7105   -1.1141    8.7480 C   0  0  0  0  0  0  0  0  0  0  0  0
    2.9323   -1.0058    8.8709 O   0  0  0  0  0  0  0  0  0  0  0  0
    0.8234   -0.5158    9.5687 O   0  0  0  0  0  0  0  0  0  0  0  0
    1.3095    0.2868   10.6359 C   0  0  0  0  0  0  0  0  0  0  0  0
    2.0644   -2.8470    6.7819 C   0  0  2  0  0  0  0  0  0  0  0  0
    2.9124   -3.5770    7.6918 O   0  0  0  0  0  0  0  0  0  0  0  0
    3.9863   -4.1589    3.7161 C   0  0  2  0  0  0  0  0  0  0  0  0
    5.1099   -4.7012    4.6609 C   0  0  0  0  0  0  0  0  0  0  0  0
    3.6974   -5.0925    2.4270 C   0  0  1  0  0  0  0  0  0  0  0  0
    4.5935   -6.3687    2.1904 C   0  0  0  0  0  0  0  0  0  0  0  0
    4.7719   -6.9118    0.7694 C   0  0  0  0  0  0  0  0  0  0  0  0
    5.0728   -7.0392    3.1079 O   0  0  0  0  0  0  0  0  0  0  0  0
    1.3607   -8.4993    3.3353 H   0  0  0  0  0  0  0  0  0  0  0  0
    2.6792   -7.3471    3.8857 H   0  0  0  0  0  0  0  0  0  0  0  0
   -0.3682   -6.2600    1.2883 H   0  0  0  0  0  0  0  0  0  0  0  0
   -0.1201   -7.9783    1.5904 H   0  0  0  0  0  0  0  0  0  0  0  0
    0.7301   -7.1891    0.2613 H   0  0  0  0  0  0  0  0  0  0  0  0
    1.5231   -4.6327    2.3300 H   0  0  0  0  0  0  0  0  0  0  0  0
    3.8577   -2.6116   -1.1095 H   0  0  0  0  0  0  0  0  0  0  0  0
    2.1309   -3.0041   -1.0917 H   0  0  0  0  0  0  0  0  0  0  0  0
    3.2689   -4.0874   -1.8554 H   0  0  0  0  0  0  0  0  0  0  0  0
    6.0846   -3.7005    1.8917 H   0  0  0  0  0  0  0  0  0  0  0  0
    4.5400   -1.5628    0.8146 H   0  0  0  0  0  0  0  0  0  0  0  0
    3.8012    1.3141    3.5888 H   0  0  0  0  0  0  0  0  0  0  0  0
    1.9303    1.4165    1.8256 H   0  0  0  0  0  0  0  0  0  0  0  0
    2.5502   -0.1273    1.1986 H   0  0  0  0  0  0  0  0  0  0  0  0
    3.5743    1.2870    1.2044 H   0  0  0  0  0  0  0  0  0  0  0  0
    2.0944    0.4581    4.8595 H   0  0  0  0  0  0  0  0  0  0  0  0
    1.5053   -1.5549    2.6406 H   0  0  0  0  0  0  0  0  0  0  0  0
    0.5447   -0.1639    3.1114 H   0  0  0  0  0  0  0  0  0  0  0  0
    0.6465   -1.5470    4.1671 H   0  0  0  0  0  0  0  0  0  0  0  0
    3.7094   -0.0851    6.6733 H   0  0  0  0  0  0  0  0  0  0  0  0
    4.7839    0.4200    5.3938 H   0  0  0  0  0  0  0  0  0  0  0  0
    5.1359   -1.0583    6.2565 H   0  0  0  0  0  0  0  0  0  0  0  0
    3.9471   -2.8375    5.9419 H   0  0  0  0  0  0  0  0  0  0  0  0
    1.9955   -3.3536    3.8439 H   0  0  0  0  0  0  0  0  0  0  0  0
    1.2558   -5.4283    4.7333 H   0  0  0  0  0  0  0  0  0  0  0  0
    2.5481   -5.4882    5.9302 H   0  0  0  0  0  0  0  0  0  0  0  0
    0.4241   -3.3649    5.5264 H   0  0  0  0  0  0  0  0  0  0  0  0
   -0.5631   -0.4926    7.4312 H   0  0  0  0  0  0  0  0  0  0  0  0
   -0.4988   -1.5844    6.0841 H   0  0  0  0  0  0  0  0  0  0  0  0
    0.6862   -0.2769    6.2451 H   0  0  0  0  0  0  0  0  0  0  0  0
    0.4848    0.6442   11.2493 H   0  0  0  0  0  0  0  0  0  0  0  0
    1.8515    1.1512   10.2400 H   0  0  0  0  0  0  0  0  0  0  0  0
    1.9968   -0.2783   11.2668 H   0  0  0  0  0  0  0  0  0  0  0  0
    3.4918   -2.9524    8.0974 H   0  0  0  0  0  0  0  0  0  0  0  0
    4.7838   -5.5775    5.2224 H   0  0  0  0  0  0  0  0  0  0  0  0
    5.4823   -3.9715    5.3773 H   0  0  0  0  0  0  0  0  0  0  0  0
    6.0080   -4.9518    4.0937 H   0  0  0  0  0  0  0  0  0  0  0  0
    3.8100   -7.1600    0.3262 H   0  0  0  0  0  0  0  0  0  0  0  0
    5.3740   -7.8234    0.8166 H   0  0  0  0  0  0  0  0  0  0  0  0
    5.2983   -6.2031    0.1124 H   0  0  0  0  0  0  0  0  0  0  0  0
  1  2  2  0
  1 41  1  0
  1 42  1  0
  2  3  1  0
  2  4  1  0
  3 43  1  0
  3 44  1  0
  3 45  1  0
  4 37  1  0
  4  5  1  0
  4 46  1  1
  5  6  1  0
  6  7  1  0
  6  8  2  0
  7 47  1  0
  7 48  1  0
  7 49  1  0
  8 37  1  0
  8  9  1  0
  9 10  1  0
  9 11  1  0
  9 50  1  1
 10 51  1  0
 11 35  1  0
 11 12  2  0
 12 18  1  0
 12 13  1  0
 13 14  1  0
 14 15  1  0
 14 16  1  0
 14 52  1  1
 15 53  1  0
 15 54  1  0
 15 55  1  0
 16 17  1  0
 16 18  1  0
 16 56  1  1
 17 57  1  0
 17 58  1  0
 17 59  1  0
 18 19  1  1
 18 20  1  0
 19 60  1  0
 19 61  1  0
 19 62  1  0
 20 33  1  0
 20 21  1  0
 20 63  1  1
 21 22  1  0
 21 35  1  0
 21 64  1  6
 22 23  1  0
 22 65  1  0
 22 66  1  0
 23 33  1  0
 23 24  1  0
 23 67  1  6
 24 25  1  0
 25 26  2  0
 25 27  1  0
 27 28  1  6
 27 29  1  0
 27 33  1  0
 28 68  1  0
 28 69  1  0
 28 70  1  0
 29 30  2  0
 29 31  1  0
 31 32  1  0
 32 71  1  0
 32 72  1  0
 32 73  1  0
 33 34  1  1
 34 74  1  0
 35 36  1  1
 35 37  1  0
 36 75  1  0
 36 76  1  0
 36 77  1  0
 37 38  1  1
 38 39  1  0
 38 40  2  0
 39 78  1  0
 39 79  1  0
 39 80  1  0
M  END
>  <i_m_ct_stereo_status>  (395) 
1

>  <s_m_source_file>  (395) 
/var/tmp/pbs.5076255.sched01/tmpxmhsyh4a/135ajud44o5.sdf

>  <i_m_source_file_index>  (395) 
28

>  <i_lp_mmshare_version>  (395) 
48012

>  <i_f3d_flags>  (395) 
0

>  <s_epik_input>  (395) 
W0NIMl09QyhbQ0gzXSlbQ0BASF0xT0MoW0NIM10pPUMoW0NASF0yW09IXSlbQ0BAXTEoQyg9TylbQ0gzXSlbQ0BAXShbQ0gzXSkoQzI9QyhbQ0BAXTM0W0NIM10pT1tDQEBIXShbQ0gzXSlbQ0BIXTNbQ0gzXSlbQ0BASF01W0NAQEhdNFtDQF02KFtPSF0pW0NAQEhdKFtDSDJdNSlPQyg9TylbQ0BAXTYoW0NIM10pQyg9TylPW0NIM10=

>  <s_epik_cmdline>  (395) 
J2VwaWtfcHl0aG9uJywgJy1waHQnLCAnMi4wJywgJy1waCcsICc3LjAnLCAnLXRuJywgJzgnLCAnLW1hJywgJzIwMCcsICctaW1hZScsICc8aW5maWxlLm1hZT4nLCAnLW9tYWUnLCAnPG91dGZpbGUubWFlPic=

>  <r_lp_tautomer_probability>  (395) 
1

>  <r_epik_Ionization_Penalty>  (395) 
3.05717e-05

>  <r_epik_Ionization_Penalty_Charging>  (395) 
0

>  <r_epik_Ionization_Penalty_Neutral>  (395) 
3.05717e-05

>  <r_epik_State_Penalty>  (395) 
-0

>  <r_epik_Charging_Adjusted_Penalty>  (395) 
0

>  <i_epik_Tot_Q>  (395) 
0

>  <i_epik_Tot_abs_Q>  (395) 
0

>  <s_epik_Chemistry_Notes>  (395) 
This compound has an ester and may undergo hydrolysis at high or low pH.

>  <s_lp_Force_Field>  (395) 
OPLS3e

>  <r_lp_Energy>  (395) 
69.9378

>  <b_lp_Chiralities_Consistent>  (395) 
1

>  <s_lp_Variant>  (395) 
107:0-1

>  <s_i_glide_gridfile>  (395) 
pfpi4k_grid

>  <i_i_glide_lignum>  (395) 
28

>  <i_i_glide_rotatable_bonds>  (395) 
6

>  <r_i_docking_score>  (395) 
-2.92566

>  <r_i_glide_ligand_efficiency>  (395) 
-0.0731416

>  <r_i_glide_ligand_efficiency_sa>  (395) 
-0.250141

>  <r_i_glide_ligand_efficiency_ln>  (395) 
-0.623958

>  <r_i_glide_gscore>  (395) 
-2.92566

>  <r_i_glide_lipo>  (395) 
-0.351029

>  <r_i_glide_hbond>  (395) 
-0.179125

>  <r_i_glide_metal>  (395) 
-0

>  <r_i_glide_rewards>  (395) 
-0.519042

>  <r_i_glide_evdw>  (395) 
-26.1105

>  <r_i_glide_ecoul>  (395) 
-3.92346

>  <r_i_glide_erotb>  (395) 
0.0581218

>  <r_i_glide_esite>  (395) 
-0.0405439

>  <r_i_glide_emodel>  (395) 
-40.5177

>  <r_i_glide_energy>  (395) 
-30.034

>  <r_i_glide_einternal>  (395) 
1.3355

>  <r_i_glide_intrahb_reward>  (395) 
-0.5

>  <i_i_glide_confnum>  (395) 
4

>  <i_i_glide_posenum>  (395) 
25

>  <r_i_glide_eff_state_penalty>  (395) 
0

>  <ligand_id>  (395) 
107

>  <original_smiles>  (395) 
C=C(C)C1OC(C)=C2C(O)C3=C4OC(C)C(C)C4(C)C4C(CC5OC(=O)C(C)(C(=O)OC)C54O)C3(C)C21C(C)=O

>  <smiles>  (395) 
[H]OC1([H])C2=C(C([H])([H])[H])OC([H])(C(=C([H])[H])C([H])([H])[H])C2(C(=O)C([H])([H])[H])C2(C([H])([H])[H])C1=C1OC([H])(C([H])([H])[H])C([H])(C([H])([H])[H])C1(C([H])([H])[H])C1([H])C2([H])C([H])([H])C2([H])OC(=O)C(C(=O)OC([H])([H])[H])(C([H])([H])[H])C21O[H]

$$$$
108:0:0
     RDKit          3D

 34 37  0  0  1  0  0  0  0  0999 V2000
    8.7255   -1.9613    0.0901 N   0  0  0  0  0  0  0  0  0  0  0  0
    8.1806   -2.9334    0.3558 C   0  0  0  0  0  0  0  0  0  0  0  0
    7.4635   -4.1577    0.6922 C   0  0  0  0  0  0  0  0  0  0  0  0
    8.0060   -5.0230    1.6638 C   0  0  0  0  0  0  0  0  0  0  0  0
    7.4549   -6.1620    2.1167 N   0  0  0  0  0  0  0  0  0  0  0  0
    6.2844   -6.4297    1.5074 N   0  0  0  0  0  0  0  0  0  0  0  0
    5.5313   -7.5474    1.7705 C   0  0  0  0  0  0  0  0  0  0  0  0
    4.4510   -7.4638    0.9437 C   0  0  0  0  0  0  0  0  0  0  0  0
    4.4641   -6.2932    0.1995 N   0  0  0  0  0  0  0  0  0  0  0  0
    5.6040   -5.6731    0.5147 C   0  0  0  0  0  0  0  0  0  0  0  0
    6.2647   -4.4620    0.0864 C   0  0  0  0  0  0  0  0  0  0  0  0
    5.7734   -3.5968   -0.9041 N   0  0  0  0  0  0  0  0  0  0  0  0
    4.5368   -3.8200   -1.6487 C   0  0  2  0  0  0  0  0  0  0  0  0
    4.6579   -3.5752   -3.1704 C   0  0  0  0  0  0  0  0  0  0  0  0
    3.5284   -2.5592   -3.4215 C   0  0  2  0  0  0  0  0  0  0  0  0
    3.9795   -1.2031   -2.8454 C   0  0  0  0  0  0  0  0  0  0  0  0
    3.8350   -1.4023   -1.3170 C   0  0  0  0  0  0  0  0  0  0  0  0
    3.3919   -2.8714   -1.2261 C   0  0  1  0  0  0  0  0  0  0  0  0
    2.4593   -2.9902   -2.4212 C   0  0  0  0  0  0  0  0  0  0  0  0
    8.9546   -4.7408    2.1510 H   0  0  0  0  0  0  0  0  0  0  0  0
    5.8601   -8.2711    2.5015 H   0  0  0  0  0  0  0  0  0  0  0  0
    3.6271   -8.1599    0.8219 H   0  0  0  0  0  0  0  0  0  0  0  0
    4.2120   -4.8308   -1.5328 H   0  0  0  0  0  0  0  0  0  0  0  0
    5.6430   -3.2739   -3.5181 H   0  0  0  0  0  0  0  0  0  0  0  0
    4.4158   -4.5209   -3.6554 H   0  0  0  0  0  0  0  0  0  0  0  0
    3.1863   -2.5372   -4.4575 H   0  0  0  0  0  0  0  0  0  0  0  0
    5.0134   -0.9886   -3.1256 H   0  0  0  0  0  0  0  0  0  0  0  0
    3.3259   -0.3980   -3.1878 H   0  0  0  0  0  0  0  0  0  0  0  0
    4.7559   -1.1830   -0.7751 H   0  0  0  0  0  0  0  0  0  0  0  0
    3.0610   -0.7492   -0.9061 H   0  0  0  0  0  0  0  0  0  0  0  0
    2.9399   -3.1309   -0.2682 H   0  0  0  0  0  0  0  0  0  0  0  0
    1.6268   -2.2915   -2.3840 H   0  0  0  0  0  0  0  0  0  0  0  0
    2.0525   -3.9915   -2.5738 H   0  0  0  0  0  0  0  0  0  0  0  0
    6.1037   -2.6326   -0.8976 H   0  0  0  0  0  0  0  0  0  0  0  0
  1  2  3  0
  2  3  1  0
  3 11  2  0
  3  4  1  0
  4  5  2  0
  4 20  1  0
  5  6  1  0
  6 10  1  0
  6  7  1  0
  7  8  2  0
  7 21  1  0
  8  9  1  0
  8 22  1  0
  9 10  2  0
 10 11  1  0
 11 12  1  0
 12 13  1  0
 12 34  1  0
 13 18  1  0
 13 14  1  0
 13 23  1  6
 14 15  1  0
 14 24  1  0
 14 25  1  0
 15 19  1  0
 15 16  1  0
 15 26  1  6
 16 17  1  0
 16 27  1  0
 16 28  1  0
 17 18  1  0
 17 29  1  0
 17 30  1  0
 18 19  1  0
 18 31  1  1
 19 32  1  0
 19 33  1  0
M  END
>  <i_m_ct_stereo_status>  (396) 
1

>  <s_m_source_file>  (396) 
/var/tmp/pbs.5076255.sched01/tmpxmhsyh4a/135ajud44o5.sdf

>  <i_m_source_file_index>  (396) 
29

>  <i_lp_mmshare_version>  (396) 
48012

>  <i_f3d_flags>  (396) 
0

>  <s_epik_input>  (396) 
W2NIXTFbY0hdbmMobjEyKWMoXGMoQyNOKVtjSF1bbkhdMik9Ti9bQ0BIXShbQ0gyXVtDQEhdMzQpW0NASF0oW0NIMl00KVtDSDJdW0NIMl0z

>  <s_epik_cmdline>  (396) 
J2VwaWtfcHl0aG9uJywgJy1waHQnLCAnMi4wJywgJy1waCcsICc3LjAnLCAnLXRuJywgJzgnLCAnLW1hJywgJzIwMCcsICctaW1hZScsICc8aW5maWxlLm1hZT4nLCAnLW9tYWUnLCAnPG91dGZpbGUubWFlPic=

>  <r_epik_Ionization_Penalty>  (396) 
0.00069321

>  <r_epik_Ionization_Penalty_Charging>  (396) 
0

>  <r_epik_Ionization_Penalty_Neutral>  (396) 
0.00069321

>  <r_epik_State_Penalty>  (396) 
0.000431104

>  <r_epik_Charging_Adjusted_Penalty>  (396) 
0.000431104

>  <i_epik_Tot_Q>  (396) 
0

>  <i_epik_Tot_abs_Q>  (396) 
0

>  <s_lp_Force_Field>  (396) 
OPLS3e

>  <r_lp_Energy>  (396) 
50.7774

>  <b_lp_Chiralities_Consistent>  (396) 
1

>  <s_lp_Variant>  (396) 
108:0-1

>  <s_i_glide_gridfile>  (396) 
pfpi4k_grid

>  <i_i_glide_lignum>  (396) 
29

>  <i_i_glide_rotatable_bonds>  (396) 
3

>  <r_i_docking_score>  (396) 
-3.72512

>  <r_i_glide_ligand_efficiency>  (396) 
-0.196059

>  <r_i_glide_ligand_efficiency_sa>  (396) 
-0.523164

>  <r_i_glide_ligand_efficiency_ln>  (396) 
-0.944397

>  <r_i_glide_gscore>  (396) 
-3.72512

>  <r_i_glide_lipo>  (396) 
-0.754943

>  <r_i_glide_hbond>  (396) 
-0.00757554

>  <r_i_glide_metal>  (396) 
-0

>  <r_i_glide_rewards>  (396) 
-2.26014

>  <r_i_glide_evdw>  (396) 
-25.7805

>  <r_i_glide_ecoul>  (396) 
0.26024

>  <r_i_glide_erotb>  (396) 
0.547533

>  <r_i_glide_esite>  (396) 
0

>  <r_i_glide_emodel>  (396) 
-29.2412

>  <r_i_glide_energy>  (396) 
-25.5203

>  <r_i_glide_einternal>  (396) 
5.71514

>  <r_i_glide_intrahb_reward>  (396) 
-0

>  <i_i_glide_confnum>  (396) 
1

>  <i_i_glide_posenum>  (396) 
32

>  <r_i_glide_eff_state_penalty>  (396) 
0

>  <ligand_id>  (396) 
108

>  <original_smiles>  (396) 
N#Cc1c[nH]n2ccnc2c1=NC1CC2CCC1C2

>  <smiles>  (396) 
[H]c1nn2c([H])c([H])nc2c(N([H])C2([H])C([H])([H])C3([H])C([H])([H])C([H])([H])C2([H])C3([H])[H])c1C#N

$$$$
108:0:1
     RDKit          3D

 34 37  0  0  1  0  0  0  0  0999 V2000
    9.0292   -4.5464    1.0588 N   0  0  0  0  0  0  0  0  0  0  0  0
    8.1791   -5.3126    1.1727 C   0  0  0  0  0  0  0  0  0  0  0  0
    7.0986   -6.2634    1.2950 C   0  0  0  0  0  0  0  0  0  0  0  0
    7.4075   -7.6125    1.5907 C   0  0  0  0  0  0  0  0  0  0  0  0
    6.5478   -8.6149    1.7541 N   0  0  0  0  0  0  0  0  0  0  0  0
    5.2600   -8.1968    1.6224 N   0  0  0  0  0  0  0  0  0  0  0  0
    4.1563   -9.0157    1.7560 C   0  0  0  0  0  0  0  0  0  0  0  0
    3.0572   -8.2250    1.5629 C   0  0  0  0  0  0  0  0  0  0  0  0
    3.4352   -6.9069    1.2976 N   0  0  0  0  0  0  0  0  0  0  0  0
    4.7785   -6.8914    1.3422 C   0  0  0  0  0  0  0  0  0  0  0  0
    5.7645   -5.8858    1.1622 C   0  0  0  0  0  0  0  0  0  0  0  0
    5.3599   -4.5634    0.9244 N   0  0  0  0  0  0  0  0  0  0  0  0
    5.8491   -3.8220   -0.2473 C   0  0  2  0  0  0  0  0  0  0  0  0
    6.0079   -2.3160    0.0394 C   0  0  0  0  0  0  0  0  0  0  0  0
    5.1501   -1.6822   -1.0695 C   0  0  2  0  0  0  0  0  0  0  0  0
    3.6660   -1.9537   -0.7635 C   0  0  0  0  0  0  0  0  0  0  0  0
    3.4976   -3.4481   -1.0987 C   0  0  0  0  0  0  0  0  0  0  0  0
    4.9288   -3.8529   -1.4796 C   0  0  1  0  0  0  0  0  0  0  0  0
    5.4099   -2.6188   -2.2431 C   0  0  0  0  0  0  0  0  0  0  0  0
    8.4547   -7.8863    1.6887 H   0  0  0  0  0  0  0  0  0  0  0  0
    4.2780  -10.0729    1.9559 H   0  0  0  0  0  0  0  0  0  0  0  0
    2.0165   -8.5182    1.5628 H   0  0  0  0  0  0  0  0  0  0  0  0
    6.7946   -4.1878   -0.6409 H   0  0  0  0  0  0  0  0  0  0  0  0
    5.6816   -2.0269    1.0413 H   0  0  0  0  0  0  0  0  0  0  0  0
    7.0589   -2.0277   -0.0562 H   0  0  0  0  0  0  0  0  0  0  0  0
    5.3760   -0.6308   -1.2416 H   0  0  0  0  0  0  0  0  0  0  0  0
    3.4139   -1.7397    0.2750 H   0  0  0  0  0  0  0  0  0  0  0  0
    3.0163   -1.3502   -1.3956 H   0  0  0  0  0  0  0  0  0  0  0  0
    3.0935   -4.0339   -0.2723 H   0  0  0  0  0  0  0  0  0  0  0  0
    2.8293   -3.5825   -1.9505 H   0  0  0  0  0  0  0  0  0  0  0  0
    4.9956   -4.7826   -2.0483 H   0  0  0  0  0  0  0  0  0  0  0  0
    4.8019   -2.3855   -3.1171 H   0  0  0  0  0  0  0  0  0  0  0  0
    6.4598   -2.6669   -2.5417 H   0  0  0  0  0  0  0  0  0  0  0  0
    4.3889   -4.3742    1.1418 H   0  0  0  0  0  0  0  0  0  0  0  0
  1  2  3  0
  2  3  1  0
  3 11  2  0
  3  4  1  0
  4  5  2  0
  4 20  1  0
  5  6  1  0
  6 10  1  0
  6  7  1  0
  7  8  2  0
  7 21  1  0
  8  9  1  0
  8 22  1  0
  9 10  2  0
 10 11  1  0
 11 12  1  0
 12 13  1  0
 12 34  1  0
 13 18  1  0
 13 14  1  0
 13 23  1  6
 14 15  1  0
 14 24  1  0
 14 25  1  0
 15 19  1  0
 15 16  1  0
 15 26  1  6
 16 17  1  0
 16 27  1  0
 16 28  1  0
 17 18  1  0
 17 29  1  0
 17 30  1  0
 18 19  1  0
 18 31  1  6
 19 32  1  0
 19 33  1  0
M  END
>  <i_m_ct_stereo_status>  (397) 
1

>  <s_m_source_file>  (397) 
/var/tmp/pbs.5076255.sched01/tmpxmhsyh4a/135ajud44o5.sdf

>  <i_m_source_file_index>  (397) 
29

>  <i_lp_mmshare_version>  (397) 
48012

>  <i_f3d_flags>  (397) 
0

>  <s_epik_input>  (397) 
W2NIXTFbY0hdbmMobjEyKWMoXGMoQyNOKVtjSF1bbkhdMik9Ti9bQ0BIXShbQ0gyXVtDQEhdMzQpW0NASF0oW0NIMl00KVtDSDJdW0NIMl0z

>  <s_epik_cmdline>  (397) 
J2VwaWtfcHl0aG9uJywgJy1waHQnLCAnMi4wJywgJy1waCcsICc3LjAnLCAnLXRuJywgJzgnLCAnLW1hJywgJzIwMCcsICctaW1hZScsICc8aW5maWxlLm1hZT4nLCAnLW9tYWUnLCAnPG91dGZpbGUubWFlPic=

>  <r_epik_Ionization_Penalty>  (397) 
0.00069321

>  <r_epik_Ionization_Penalty_Charging>  (397) 
0

>  <r_epik_Ionization_Penalty_Neutral>  (397) 
0.00069321

>  <r_epik_State_Penalty>  (397) 
0.000431104

>  <r_epik_Charging_Adjusted_Penalty>  (397) 
0.000431104

>  <i_epik_Tot_Q>  (397) 
0

>  <i_epik_Tot_abs_Q>  (397) 
0

>  <s_lp_Force_Field>  (397) 
OPLS3e

>  <r_lp_Energy>  (397) 
50.7774

>  <b_lp_Chiralities_Consistent>  (397) 
1

>  <s_lp_Variant>  (397) 
108:0-1

>  <s_i_glide_gridfile>  (397) 
pfpi4k_grid

>  <i_i_glide_lignum>  (397) 
29

>  <i_i_glide_rotatable_bonds>  (397) 
3

>  <r_i_docking_score>  (397) 
-3.48271

>  <r_i_glide_ligand_efficiency>  (397) 
-0.183301

>  <r_i_glide_ligand_efficiency_sa>  (397) 
-0.48912

>  <r_i_glide_ligand_efficiency_ln>  (397) 
-0.882943

>  <r_i_glide_gscore>  (397) 
-3.48271

>  <r_i_glide_lipo>  (397) 
-0.357125

>  <r_i_glide_hbond>  (397) 
0

>  <r_i_glide_metal>  (397) 
-0

>  <r_i_glide_rewards>  (397) 
-2.02757

>  <r_i_glide_evdw>  (397) 
-25.7956

>  <r_i_glide_ecoul>  (397) 
-2.37177

>  <r_i_glide_erotb>  (397) 
0.547533

>  <r_i_glide_esite>  (397) 
0

>  <r_i_glide_emodel>  (397) 
-31.143

>  <r_i_glide_energy>  (397) 
-28.1674

>  <r_i_glide_einternal>  (397) 
6.7969

>  <r_i_glide_intrahb_reward>  (397) 
-0

>  <i_i_glide_confnum>  (397) 
2

>  <i_i_glide_posenum>  (397) 
13

>  <r_i_glide_eff_state_penalty>  (397) 
0

>  <ligand_id>  (397) 
108

>  <original_smiles>  (397) 
N#Cc1c[nH]n2ccnc2c1=NC1CC2CCC1C2

>  <smiles>  (397) 
[H]c1nn2c([H])c([H])nc2c(N([H])C2([H])C([H])([H])C3([H])C([H])([H])C([H])([H])C2([H])C3([H])[H])c1C#N

$$$$
108:0:2
     RDKit          3D

 34 37  0  0  1  0  0  0  0  0999 V2000
    8.2792   -4.9367    1.1345 N   0  0  0  0  0  0  0  0  0  0  0  0
    7.2292   -5.4198    1.2032 C   0  0  0  0  0  0  0  0  0  0  0  0
    5.9115   -6.0419    1.2803 C   0  0  0  0  0  0  0  0  0  0  0  0
    5.8498   -7.4008    1.6759 C   0  0  0  0  0  0  0  0  0  0  0  0
    4.7580   -8.1459    1.8409 N   0  0  0  0  0  0  0  0  0  0  0  0
    3.6252   -7.4507    1.5771 N   0  0  0  0  0  0  0  0  0  0  0  0
    2.3464   -7.9721    1.6770 C   0  0  0  0  0  0  0  0  0  0  0  0
    1.4889   -6.9697    1.3204 C   0  0  0  0  0  0  0  0  0  0  0  0
    2.1859   -5.8007    1.0177 N   0  0  0  0  0  0  0  0  0  0  0  0
    3.4888   -6.0956    1.1776 C   0  0  0  0  0  0  0  0  0  0  0  0
    4.7158   -5.3715    1.0283 C   0  0  0  0  0  0  0  0  0  0  0  0
    4.6706   -4.0099    0.6830 N   0  0  0  0  0  0  0  0  0  0  0  0
    5.3766   -3.5194   -0.5079 C   0  0  2  0  0  0  0  0  0  0  0  0
    5.6648   -2.0089   -0.4378 C   0  0  0  0  0  0  0  0  0  0  0  0
    5.0310   -1.4946   -1.7420 C   0  0  2  0  0  0  0  0  0  0  0  0
    3.4988   -1.5635   -1.6121 C   0  0  0  0  0  0  0  0  0  0  0  0
    3.1986   -3.0677   -1.7306 C   0  0  0  0  0  0  0  0  0  0  0  0
    4.6099   -3.6652   -1.8339 C   0  0  1  0  0  0  0  0  0  0  0  0
    5.3205   -2.6374   -2.7065 C   0  0  0  0  0  0  0  0  0  0  0  0
    6.7786   -7.9226    1.8849 H   0  0  0  0  0  0  0  0  0  0  0  0
    2.1996   -9.0002    1.9689 H   0  0  0  0  0  0  0  0  0  0  0  0
    0.4167   -7.0135    1.2530 H   0  0  0  0  0  0  0  0  0  0  0  0
    6.3237   -4.0235   -0.6915 H   0  0  0  0  0  0  0  0  0  0  0  0
    5.2547   -1.5290    0.4538 H   0  0  0  0  0  0  0  0  0  0  0  0
    6.7465   -1.8542   -0.4302 H   0  0  0  0  0  0  0  0  0  0  0  0
    5.4022   -0.5167   -2.0426 H   0  0  0  0  0  0  0  0  0  0  0  0
    3.1521   -1.1584   -0.6597 H   0  0  0  0  0  0  0  0  0  0  0  0
    3.0048   -1.0149   -2.4125 H   0  0  0  0  0  0  0  0  0  0  0  0
    2.6330   -3.4623   -0.8849 H   0  0  0  0  0  0  0  0  0  0  0  0
    2.6261   -3.2855   -2.6347 H   0  0  0  0  0  0  0  0  0  0  0  0
    4.6373   -4.6722   -2.2414 H   0  0  0  0  0  0  0  0  0  0  0  0
    4.8552   -2.5031   -3.6832 H   0  0  0  0  0  0  0  0  0  0  0  0
    6.3844   -2.8386   -2.8424 H   0  0  0  0  0  0  0  0  0  0  0  0
    3.7680   -3.5785    0.8196 H   0  0  0  0  0  0  0  0  0  0  0  0
  1  2  3  0
  2  3  1  0
  3 11  2  0
  3  4  1  0
  4  5  2  0
  4 20  1  0
  5  6  1  0
  6 10  1  0
  6  7  1  0
  7  8  2  0
  7 21  1  0
  8  9  1  0
  8 22  1  0
  9 10  2  0
 10 11  1  0
 11 12  1  0
 12 13  1  0
 12 34  1  0
 13 18  1  0
 13 14  1  0
 13 23  1  6
 14 15  1  0
 14 24  1  0
 14 25  1  0
 15 19  1  0
 15 16  1  0
 15 26  1  6
 16 17  1  0
 16 27  1  0
 16 28  1  0
 17 18  1  0
 17 29  1  0
 17 30  1  0
 18 19  1  0
 18 31  1  6
 19 32  1  0
 19 33  1  0
M  END
>  <i_m_ct_stereo_status>  (398) 
1

>  <s_m_source_file>  (398) 
/var/tmp/pbs.5076255.sched01/tmpxmhsyh4a/135ajud44o5.sdf

>  <i_m_source_file_index>  (398) 
29

>  <i_lp_mmshare_version>  (398) 
48012

>  <i_f3d_flags>  (398) 
0

>  <s_epik_input>  (398) 
W2NIXTFbY0hdbmMobjEyKWMoXGMoQyNOKVtjSF1bbkhdMik9Ti9bQ0BIXShbQ0gyXVtDQEhdMzQpW0NASF0oW0NIMl00KVtDSDJdW0NIMl0z

>  <s_epik_cmdline>  (398) 
J2VwaWtfcHl0aG9uJywgJy1waHQnLCAnMi4wJywgJy1waCcsICc3LjAnLCAnLXRuJywgJzgnLCAnLW1hJywgJzIwMCcsICctaW1hZScsICc8aW5maWxlLm1hZT4nLCAnLW9tYWUnLCAnPG91dGZpbGUubWFlPic=

>  <r_epik_Ionization_Penalty>  (398) 
0.00069321

>  <r_epik_Ionization_Penalty_Charging>  (398) 
0

>  <r_epik_Ionization_Penalty_Neutral>  (398) 
0.00069321

>  <r_epik_State_Penalty>  (398) 
0.000431104

>  <r_epik_Charging_Adjusted_Penalty>  (398) 
0.000431104

>  <i_epik_Tot_Q>  (398) 
0

>  <i_epik_Tot_abs_Q>  (398) 
0

>  <s_lp_Force_Field>  (398) 
OPLS3e

>  <r_lp_Energy>  (398) 
50.7774

>  <b_lp_Chiralities_Consistent>  (398) 
1

>  <s_lp_Variant>  (398) 
108:0-1

>  <s_i_glide_gridfile>  (398) 
pfpi4k_grid

>  <i_i_glide_lignum>  (398) 
29

>  <i_i_glide_rotatable_bonds>  (398) 
3

>  <r_i_docking_score>  (398) 
-3.24572

>  <r_i_glide_ligand_efficiency>  (398) 
-0.170827

>  <r_i_glide_ligand_efficiency_sa>  (398) 
-0.455836

>  <r_i_glide_ligand_efficiency_ln>  (398) 
-0.822859

>  <r_i_glide_gscore>  (398) 
-3.24572

>  <r_i_glide_lipo>  (398) 
-0.428239

>  <r_i_glide_hbond>  (398) 
0

>  <r_i_glide_metal>  (398) 
-0

>  <r_i_glide_rewards>  (398) 
-1.9425

>  <r_i_glide_evdw>  (398) 
-26.3955

>  <r_i_glide_ecoul>  (398) 
-0.684913

>  <r_i_glide_erotb>  (398) 
0.547533

>  <r_i_glide_esite>  (398) 
0

>  <r_i_glide_emodel>  (398) 
-29.9817

>  <r_i_glide_energy>  (398) 
-27.0804

>  <r_i_glide_einternal>  (398) 
6.10231

>  <r_i_glide_intrahb_reward>  (398) 
-0

>  <i_i_glide_confnum>  (398) 
3

>  <i_i_glide_posenum>  (398) 
33

>  <r_i_glide_eff_state_penalty>  (398) 
0

>  <ligand_id>  (398) 
108

>  <original_smiles>  (398) 
N#Cc1c[nH]n2ccnc2c1=NC1CC2CCC1C2

>  <smiles>  (398) 
[H]c1nn2c([H])c([H])nc2c(N([H])C2([H])C([H])([H])C3([H])C([H])([H])C([H])([H])C2([H])C3([H])[H])c1C#N

$$$$
109:0:0
     RDKit          3D

 18 20  0  0  1  0  0  0  0  0999 V2000
    6.4411   -4.1499    0.1493 C   0  0  0  0  0  0  0  0  0  0  0  0
    5.5269   -3.2663   -0.4351 C   0  0  0  0  0  0  0  0  0  0  0  0
    4.2027   -3.4838   -0.4239 N   0  0  0  0  0  0  0  0  0  0  0  0
    3.6867   -4.5949    0.1580 C   0  0  0  0  0  0  0  0  0  0  0  0
    2.3456   -4.7787    0.1417 N   0  0  0  0  0  0  0  0  0  0  0  0
    1.9222   -5.8782    0.7468 N   0  0  0  0  0  0  0  0  0  0  0  0
    0.6205   -6.2861    0.8710 N   0  0  0  0  0  0  0  0  0  0  0  0
    0.6452   -7.4446    1.5430 C   0  0  0  0  0  0  0  0  0  0  0  0
    1.9571   -7.8793    1.9106 C   0  0  0  0  0  0  0  0  0  0  0  0
    2.7169   -6.8171    1.3625 C   0  0  0  0  0  0  0  0  0  0  0  0
    4.0671   -6.6932    1.4006 N   0  0  0  0  0  0  0  0  0  0  0  0
    4.5441   -5.5639    0.7921 C   0  0  0  0  0  0  0  0  0  0  0  0
    5.9353   -5.3091    0.7675 C   0  0  0  0  0  0  0  0  0  0  0  0
    7.5037   -3.9364    0.1140 H   0  0  0  0  0  0  0  0  0  0  0  0
    5.8523   -2.3616   -0.9277 H   0  0  0  0  0  0  0  0  0  0  0  0
   -0.3118   -7.9118    1.7211 H   0  0  0  0  0  0  0  0  0  0  0  0
    2.4024   -8.7293    2.4290 H   0  0  0  0  0  0  0  0  0  0  0  0
    6.6350   -5.9981    1.2187 H   0  0  0  0  0  0  0  0  0  0  0  0
  1 13  2  0
  1  2  1  0
  1 14  1  0
  2  3  2  0
  2 15  1  0
  3  4  1  0
  4 12  1  0
  4  5  2  0
  5  6  1  0
  6 10  1  0
  6  7  1  0
  7  8  2  0
  8  9  1  0
  8 16  1  0
  9 10  2  0
  9 17  1  0
 10 11  1  0
 11 12  2  0
 12 13  1  0
 13 18  1  0
M  END
>  <i_m_ct_stereo_status>  (399) 
1

>  <s_m_source_file>  (399) 
/var/tmp/pbs.5076255.sched01/tmpxmhsyh4a/135ajud44o5.sdf

>  <i_m_source_file_index>  (399) 
30

>  <i_lp_mmshare_version>  (399) 
48012

>  <i_f3d_flags>  (399) 
0

>  <s_epik_input>  (399) 
bjFbY0hdW2NIXVtjSF1jKGMxMiluYzNuKG4yKW5bY0hdW2NIXTM=

>  <s_epik_cmdline>  (399) 
J2VwaWtfcHl0aG9uJywgJy1waHQnLCAnMi4wJywgJy1waCcsICc3LjAnLCAnLXRuJywgJzgnLCAnLW1hJywgJzIwMCcsICctaW1hZScsICc8aW5maWxlLm1hZT4nLCAnLW9tYWUnLCAnPG91dGZpbGUubWFlPic=

>  <r_lp_tautomer_probability>  (399) 
1

>  <r_epik_Ionization_Penalty>  (399) 
1.07866e-10

>  <r_epik_Ionization_Penalty_Charging>  (399) 
0

>  <r_epik_Ionization_Penalty_Neutral>  (399) 
1.07866e-10

>  <r_epik_State_Penalty>  (399) 
-0

>  <r_epik_Charging_Adjusted_Penalty>  (399) 
0

>  <i_epik_Tot_Q>  (399) 
0

>  <i_epik_Tot_abs_Q>  (399) 
0

>  <s_lp_Force_Field>  (399) 
OPLS3e

>  <r_lp_Energy>  (399) 
25.663

>  <b_lp_Chiralities_Consistent>  (399) 
1

>  <s_lp_Variant>  (399) 
109:0-1

>  <s_i_glide_gridfile>  (399) 
pfpi4k_grid

>  <i_i_glide_lignum>  (399) 
30

>  <i_i_glide_rotatable_bonds>  (399) 
0

>  <r_i_docking_score>  (399) 
-4.15599

>  <r_i_glide_ligand_efficiency>  (399) 
-0.319692

>  <r_i_glide_ligand_efficiency_sa>  (399) 
-0.751702

>  <r_i_glide_ligand_efficiency_ln>  (399) 
-1.16579

>  <r_i_glide_gscore>  (399) 
-4.15599

>  <r_i_glide_lipo>  (399) 
-0.322725

>  <r_i_glide_hbond>  (399) 
-0.16

>  <r_i_glide_metal>  (399) 
-0

>  <r_i_glide_rewards>  (399) 
-2.25326

>  <r_i_glide_evdw>  (399) 
-14.5589

>  <r_i_glide_ecoul>  (399) 
-4.1419

>  <r_i_glide_erotb>  (399) 
0

>  <r_i_glide_esite>  (399) 
-0.0707767

>  <r_i_glide_emodel>  (399) 
-24.7648

>  <r_i_glide_energy>  (399) 
-18.7008

>  <r_i_glide_einternal>  (399) 
0

>  <r_i_glide_intrahb_reward>  (399) 
-0

>  <i_i_glide_confnum>  (399) 
2

>  <i_i_glide_posenum>  (399) 
9

>  <r_i_glide_eff_state_penalty>  (399) 
0

>  <ligand_id>  (399) 
109

>  <original_smiles>  (399) 
c1cnc2nn3nccc3nc2c1

>  <smiles>  (399) 
[H]c1nc2nn3nc([H])c([H])c3nc2c([H])c1[H]

$$$$
109:0:1
     RDKit          3D

 18 20  0  0  1  0  0  0  0  0999 V2000
   -0.4555   -9.4090    2.8813 C   0  0  0  0  0  0  0  0  0  0  0  0
   -1.1304   -8.2164    2.5958 C   0  0  0  0  0  0  0  0  0  0  0  0
   -0.5160   -7.1341    2.0887 N   0  0  0  0  0  0  0  0  0  0  0  0
    0.8109   -7.1718    1.8151 C   0  0  0  0  0  0  0  0  0  0  0  0
    1.3946   -6.0701    1.2879 N   0  0  0  0  0  0  0  0  0  0  0  0
    2.6870   -6.1756    1.0576 N   0  0  0  0  0  0  0  0  0  0  0  0
    3.4882   -5.1998    0.5492 N   0  0  0  0  0  0  0  0  0  0  0  0
    4.7213   -5.7194    0.4674 C   0  0  0  0  0  0  0  0  0  0  0  0
    4.8129   -7.0762    0.9323 C   0  0  0  0  0  0  0  0  0  0  0  0
    3.4657   -7.2841    1.2917 C   0  0  0  0  0  0  0  0  0  0  0  0
    2.9415   -8.4255    1.8100 N   0  0  0  0  0  0  0  0  0  0  0  0
    1.5983   -8.3528    2.0765 C   0  0  0  0  0  0  0  0  0  0  0  0
    0.9277   -9.4700    2.6126 C   0  0  0  0  0  0  0  0  0  0  0  0
   -0.9897  -10.2593    3.2814 H   0  0  0  0  0  0  0  0  0  0  0  0
   -2.1943   -8.1182    2.7760 H   0  0  0  0  0  0  0  0  0  0  0  0
    5.4846   -5.0644    0.0701 H   0  0  0  0  0  0  0  0  0  0  0  0
    5.5892   -7.8231    1.0344 H   0  0  0  0  0  0  0  0  0  0  0  0
    1.4490  -10.3944    2.8184 H   0  0  0  0  0  0  0  0  0  0  0  0
  1 13  2  0
  1  2  1  0
  1 14  1  0
  2  3  2  0
  2 15  1  0
  3  4  1  0
  4 12  1  0
  4  5  2  0
  5  6  1  0
  6 10  1  0
  6  7  1  0
  7  8  2  0
  8  9  1  0
  8 16  1  0
  9 10  2  0
  9 17  1  0
 10 11  1  0
 11 12  2  0
 12 13  1  0
 13 18  1  0
M  END
>  <i_m_ct_stereo_status>  (400) 
1

>  <s_m_source_file>  (400) 
/var/tmp/pbs.5076255.sched01/tmpxmhsyh4a/135ajud44o5.sdf

>  <i_m_source_file_index>  (400) 
30

>  <i_lp_mmshare_version>  (400) 
48012

>  <i_f3d_flags>  (400) 
0

>  <s_epik_input>  (400) 
bjFbY0hdW2NIXVtjSF1jKGMxMiluYzNuKG4yKW5bY0hdW2NIXTM=

>  <s_epik_cmdline>  (400) 
J2VwaWtfcHl0aG9uJywgJy1waHQnLCAnMi4wJywgJy1waCcsICc3LjAnLCAnLXRuJywgJzgnLCAnLW1hJywgJzIwMCcsICctaW1hZScsICc8aW5maWxlLm1hZT4nLCAnLW9tYWUnLCAnPG91dGZpbGUubWFlPic=

>  <r_lp_tautomer_probability>  (400) 
1

>  <r_epik_Ionization_Penalty>  (400) 
1.07866e-10

>  <r_epik_Ionization_Penalty_Charging>  (400) 
0

>  <r_epik_Ionization_Penalty_Neutral>  (400) 
1.07866e-10

>  <r_epik_State_Penalty>  (400) 
-0

>  <r_epik_Charging_Adjusted_Penalty>  (400) 
0

>  <i_epik_Tot_Q>  (400) 
0

>  <i_epik_Tot_abs_Q>  (400) 
0

>  <s_lp_Force_Field>  (400) 
OPLS3e

>  <r_lp_Energy>  (400) 
25.663

>  <b_lp_Chiralities_Consistent>  (400) 
1

>  <s_lp_Variant>  (400) 
109:0-1

>  <s_i_glide_gridfile>  (400) 
pfpi4k_grid

>  <i_i_glide_lignum>  (400) 
30

>  <i_i_glide_rotatable_bonds>  (400) 
0

>  <r_i_docking_score>  (400) 
-4.04889

>  <r_i_glide_ligand_efficiency>  (400) 
-0.311453

>  <r_i_glide_ligand_efficiency_sa>  (400) 
-0.73233

>  <r_i_glide_ligand_efficiency_ln>  (400) 
-1.13575

>  <r_i_glide_gscore>  (400) 
-4.04889

>  <r_i_glide_lipo>  (400) 
-0.235373

>  <r_i_glide_hbond>  (400) 
-0.220278

>  <r_i_glide_metal>  (400) 
-0

>  <r_i_glide_rewards>  (400) 
-2.34546

>  <r_i_glide_evdw>  (400) 
-18.9355

>  <r_i_glide_ecoul>  (400) 
-1.5275

>  <r_i_glide_erotb>  (400) 
0

>  <r_i_glide_esite>  (400) 
-0.0718768

>  <r_i_glide_emodel>  (400) 
-26.3661

>  <r_i_glide_energy>  (400) 
-20.463

>  <r_i_glide_einternal>  (400) 
0

>  <r_i_glide_intrahb_reward>  (400) 
-0

>  <i_i_glide_confnum>  (400) 
2

>  <i_i_glide_posenum>  (400) 
17

>  <r_i_glide_eff_state_penalty>  (400) 
0

>  <ligand_id>  (400) 
109

>  <original_smiles>  (400) 
c1cnc2nn3nccc3nc2c1

>  <smiles>  (400) 
[H]c1nc2nn3nc([H])c([H])c3nc2c([H])c1[H]

$$$$
109:0:2
     RDKit          3D

 18 20  0  0  1  0  0  0  0  0999 V2000
    1.3349   -8.4251    2.1234 C   0  0  0  0  0  0  0  0  0  0  0  0
    0.4559   -7.4344    1.6746 C   0  0  0  0  0  0  0  0  0  0  0  0
    0.8741   -6.2744    1.1340 N   0  0  0  0  0  0  0  0  0  0  0  0
    2.2046   -6.0265    0.9941 C   0  0  0  0  0  0  0  0  0  0  0  0
    2.5897   -4.8540    0.4431 N   0  0  0  0  0  0  0  0  0  0  0  0
    3.8928   -4.6903    0.3399 N   0  0  0  0  0  0  0  0  0  0  0  0
    4.5265   -3.5966   -0.1671 N   0  0  0  0  0  0  0  0  0  0  0  0
    5.8435   -3.8358   -0.0812 C   0  0  0  0  0  0  0  0  0  0  0  0
    6.1612   -5.1089    0.5027 C   0  0  0  0  0  0  0  0  0  0  0  0
    4.8570   -5.5883    0.7359 C   0  0  0  0  0  0  0  0  0  0  0  0
    4.5360   -6.7847    1.2932 N   0  0  0  0  0  0  0  0  0  0  0  0
    3.1900   -6.9929    1.4213 C   0  0  0  0  0  0  0  0  0  0  0  0
    2.7173   -8.1949    1.9874 C   0  0  0  0  0  0  0  0  0  0  0  0
    0.9483   -9.3463    2.5434 H   0  0  0  0  0  0  0  0  0  0  0  0
   -0.6178   -7.5671    1.7426 H   0  0  0  0  0  0  0  0  0  0  0  0
    6.4904   -3.0525   -0.4533 H   0  0  0  0  0  0  0  0  0  0  0  0
    7.0652   -5.6577    0.7454 H   0  0  0  0  0  0  0  0  0  0  0  0
    3.4003   -8.9663    2.3233 H   0  0  0  0  0  0  0  0  0  0  0  0
  1 13  2  0
  1  2  1  0
  1 14  1  0
  2  3  2  0
  2 15  1  0
  3  4  1  0
  4 12  1  0
  4  5  2  0
  5  6  1  0
  6 10  1  0
  6  7  1  0
  7  8  2  0
  8  9  1  0
  8 16  1  0
  9 10  2  0
  9 17  1  0
 10 11  1  0
 11 12  2  0
 12 13  1  0
 13 18  1  0
M  END
>  <i_m_ct_stereo_status>  (401) 
1

>  <s_m_source_file>  (401) 
/var/tmp/pbs.5076255.sched01/tmpxmhsyh4a/135ajud44o5.sdf

>  <i_m_source_file_index>  (401) 
30

>  <i_lp_mmshare_version>  (401) 
48012

>  <i_f3d_flags>  (401) 
0

>  <s_epik_input>  (401) 
bjFbY0hdW2NIXVtjSF1jKGMxMiluYzNuKG4yKW5bY0hdW2NIXTM=

>  <s_epik_cmdline>  (401) 
J2VwaWtfcHl0aG9uJywgJy1waHQnLCAnMi4wJywgJy1waCcsICc3LjAnLCAnLXRuJywgJzgnLCAnLW1hJywgJzIwMCcsICctaW1hZScsICc8aW5maWxlLm1hZT4nLCAnLW9tYWUnLCAnPG91dGZpbGUubWFlPic=

>  <r_lp_tautomer_probability>  (401) 
1

>  <r_epik_Ionization_Penalty>  (401) 
1.07866e-10

>  <r_epik_Ionization_Penalty_Charging>  (401) 
0

>  <r_epik_Ionization_Penalty_Neutral>  (401) 
1.07866e-10

>  <r_epik_State_Penalty>  (401) 
-0

>  <r_epik_Charging_Adjusted_Penalty>  (401) 
0

>  <i_epik_Tot_Q>  (401) 
0

>  <i_epik_Tot_abs_Q>  (401) 
0

>  <s_lp_Force_Field>  (401) 
OPLS3e

>  <r_lp_Energy>  (401) 
25.663

>  <b_lp_Chiralities_Consistent>  (401) 
1

>  <s_lp_Variant>  (401) 
109:0-1

>  <s_i_glide_gridfile>  (401) 
pfpi4k_grid

>  <i_i_glide_lignum>  (401) 
30

>  <i_i_glide_rotatable_bonds>  (401) 
0

>  <r_i_docking_score>  (401) 
-4.008

>  <r_i_glide_ligand_efficiency>  (401) 
-0.308307

>  <r_i_glide_ligand_efficiency_sa>  (401) 
-0.724934

>  <r_i_glide_ligand_efficiency_ln>  (401) 
-1.12428

>  <r_i_glide_gscore>  (401) 
-4.008

>  <r_i_glide_lipo>  (401) 
-0.251738

>  <r_i_glide_hbond>  (401) 
-0.16

>  <r_i_glide_metal>  (401) 
-0

>  <r_i_glide_rewards>  (401) 
-2.36652

>  <r_i_glide_evdw>  (401) 
-15.503

>  <r_i_glide_ecoul>  (401) 
-2.81678

>  <r_i_glide_erotb>  (401) 
0

>  <r_i_glide_esite>  (401) 
-0.0320689

>  <r_i_glide_emodel>  (401) 
-24.1669

>  <r_i_glide_energy>  (401) 
-18.3197

>  <r_i_glide_einternal>  (401) 
0

>  <r_i_glide_intrahb_reward>  (401) 
-0

>  <i_i_glide_confnum>  (401) 
2

>  <i_i_glide_posenum>  (401) 
21

>  <r_i_glide_eff_state_penalty>  (401) 
0

>  <ligand_id>  (401) 
109

>  <original_smiles>  (401) 
c1cnc2nn3nccc3nc2c1

>  <smiles>  (401) 
[H]c1nc2nn3nc([H])c([H])c3nc2c([H])c1[H]

$$$$
110:0:0
     RDKit          3D

 28 31  0  0  1  0  0  0  0  0999 V2000
    3.4520   -1.5601   -4.0404 C   0  0  0  0  0  0  0  0  0  0  0  0
    3.9827   -0.3571   -3.5459 C   0  0  0  0  0  0  0  0  0  0  0  0
    4.5939   -0.2602   -2.3553 N   0  0  0  0  0  0  0  0  0  0  0  0
    4.6657   -1.3213   -1.5417 C   0  0  0  0  0  0  0  0  0  0  0  0
    5.2482   -1.1943   -0.2573 C   0  0  0  0  0  0  0  0  0  0  0  0
    5.3139   -2.3380    0.5540 C   0  0  0  0  0  0  0  0  0  0  0  0
    5.8097   -2.5188    1.8403 O   0  0  0  0  0  0  0  0  0  0  0  0
    5.6389   -3.8697    2.2313 N   0  0  0  0  0  0  0  0  0  0  0  0
    5.0558   -4.5189    1.2230 C   0  0  0  0  0  0  0  0  0  0  0  0
    4.7202   -5.9850    1.4080 C   0  0  0  0  0  0  0  0  0  0  0  0
    3.2785   -6.2375    1.4010 N   0  0  0  0  0  0  0  0  0  0  0  0
    2.2934   -5.7929    0.6114 C   0  0  0  0  0  0  0  0  0  0  0  0
    1.0943   -6.2815    0.9175 N   0  0  0  0  0  0  0  0  0  0  0  0
    1.4365   -7.0912    1.9621 C   0  0  0  0  0  0  0  0  0  0  0  0
    2.7246   -7.0941    2.3041 N   0  0  0  0  0  0  0  0  0  0  0  0
    4.8587   -3.5982    0.1552 C   0  0  0  0  0  0  0  0  0  0  0  0
    4.3014   -3.7310   -1.1419 C   0  0  0  0  0  0  0  0  0  0  0  0
    4.1737   -2.5934   -1.9657 C   0  0  0  0  0  0  0  0  0  0  0  0
    3.5476   -2.7075   -3.2294 C   0  0  0  0  0  0  0  0  0  0  0  0
    3.0061   -1.5874   -5.0167 H   0  0  0  0  0  0  0  0  0  0  0  0
    3.9518    0.5431   -4.1427 H   0  0  0  0  0  0  0  0  0  0  0  0
    5.6257   -0.2411    0.0796 H   0  0  0  0  0  0  0  0  0  0  0  0
    5.2064   -6.5800    0.6319 H   0  0  0  0  0  0  0  0  0  0  0  0
    5.1423   -6.3300    2.3481 H   0  0  0  0  0  0  0  0  0  0  0  0
    2.4206   -5.1039   -0.2084 H   0  0  0  0  0  0  0  0  0  0  0  0
    0.6908   -7.6662    2.4992 H   0  0  0  0  0  0  0  0  0  0  0  0
    3.9747   -4.6681   -1.5010 H   0  0  0  0  0  0  0  0  0  0  0  0
    3.1444   -3.6523   -3.5741 H   0  0  0  0  0  0  0  0  0  0  0  0
  1 19  2  0
  1  2  1  0
  1 20  1  0
  2  3  2  0
  2 21  1  0
  3  4  1  0
  4 18  2  0
  4  5  1  0
  5  6  2  0
  5 22  1  0
  6 16  1  0
  6  7  1  0
  7  8  1  0
  8  9  2  0
  9 10  1  0
  9 16  1  0
 10 11  1  0
 10 23  1  0
 10 24  1  0
 11 15  1  0
 11 12  1  0
 12 13  2  0
 12 25  1  0
 13 14  1  0
 14 15  2  0
 14 26  1  0
 16 17  2  0
 17 18  1  0
 17 27  1  0
 18 19  1  0
 19 28  1  0
M  END
>  <i_m_ct_stereo_status>  (402) 
1

>  <s_m_source_file>  (402) 
/var/tmp/pbs.5076255.sched01/tmpxmhsyh4a/135ajud44o5.sdf

>  <i_m_source_file_index>  (402) 
31

>  <i_lp_mmshare_version>  (402) 
48012

>  <i_f3d_flags>  (402) 
0

>  <s_epik_input>  (402) 
bjFbY0hdW2NIXVtjSF1jKGMxMilbY0hdYzNjKFtjSF0yKW9uYzNbQ0gyXW40W2NIXW5bY0hdbjQ=

>  <s_epik_cmdline>  (402) 
J2VwaWtfcHl0aG9uJywgJy1waHQnLCAnMi4wJywgJy1waCcsICc3LjAnLCAnLXRuJywgJzgnLCAnLW1hJywgJzIwMCcsICctaW1hZScsICc8aW5maWxlLm1hZT4nLCAnLW9tYWUnLCAnPG91dGZpbGUubWFlPic=

>  <r_lp_tautomer_probability>  (402) 
1

>  <r_epik_Ionization_Penalty>  (402) 
5.04404e-05

>  <r_epik_Ionization_Penalty_Charging>  (402) 
0

>  <r_epik_Ionization_Penalty_Neutral>  (402) 
5.04404e-05

>  <r_epik_State_Penalty>  (402) 
-0

>  <r_epik_Charging_Adjusted_Penalty>  (402) 
0

>  <i_epik_Tot_Q>  (402) 
0

>  <i_epik_Tot_abs_Q>  (402) 
0

>  <s_lp_Force_Field>  (402) 
OPLS3e

>  <r_lp_Energy>  (402) 
22.0017

>  <b_lp_Chiralities_Consistent>  (402) 
1

>  <s_lp_Variant>  (402) 
110:0-1

>  <s_i_glide_gridfile>  (402) 
pfpi4k_grid

>  <i_i_glide_lignum>  (402) 
31

>  <i_i_glide_rotatable_bonds>  (402) 
2

>  <r_i_docking_score>  (402) 
-3.92138

>  <r_i_glide_ligand_efficiency>  (402) 
-0.206388

>  <r_i_glide_ligand_efficiency_sa>  (402) 
-0.550727

>  <r_i_glide_ligand_efficiency_ln>  (402) 
-0.994154

>  <r_i_glide_gscore>  (402) 
-3.92138

>  <r_i_glide_lipo>  (402) 
-0.582991

>  <r_i_glide_hbond>  (402) 
-0.16

>  <r_i_glide_metal>  (402) 
-0

>  <r_i_glide_rewards>  (402) 
-1.76263

>  <r_i_glide_evdw>  (402) 
-22.4298

>  <r_i_glide_ecoul>  (402) 
-5.14437

>  <r_i_glide_erotb>  (402) 
0.555256

>  <r_i_glide_esite>  (402) 
-0.0778712

>  <r_i_glide_emodel>  (402) 
-34.5116

>  <r_i_glide_energy>  (402) 
-27.5742

>  <r_i_glide_einternal>  (402) 
0.992673

>  <r_i_glide_intrahb_reward>  (402) 
-0

>  <i_i_glide_confnum>  (402) 
4

>  <i_i_glide_posenum>  (402) 
15

>  <r_i_glide_eff_state_penalty>  (402) 
0

>  <ligand_id>  (402) 
110

>  <original_smiles>  (402) 
c1cnc2cc3onc(Cn4cncn4)c3cc2c1

>  <smiles>  (402) 
[H]c1nc([H])n(C([H])([H])c2noc3c([H])c4nc([H])c([H])c([H])c4c([H])c23)n1

$$$$
110:0:1
     RDKit          3D

 28 31  0  0  1  0  0  0  0  0999 V2000
    7.5990   -7.5980    2.2926 C   0  0  0  0  0  0  0  0  0  0  0  0
    7.8120   -6.4675    1.4842 C   0  0  0  0  0  0  0  0  0  0  0  0
    6.8106   -5.7995    0.8784 N   0  0  0  0  0  0  0  0  0  0  0  0
    5.5366   -6.2166    1.0475 C   0  0  0  0  0  0  0  0  0  0  0  0
    4.4931   -5.5104    0.4156 C   0  0  0  0  0  0  0  0  0  0  0  0
    3.1767   -5.9479    0.5995 C   0  0  0  0  0  0  0  0  0  0  0  0
    1.9743   -5.4710    0.1010 O   0  0  0  0  0  0  0  0  0  0  0  0
    0.9028   -6.2728    0.5713 N   0  0  0  0  0  0  0  0  0  0  0  0
    1.4287   -7.2378    1.3279 C   0  0  0  0  0  0  0  0  0  0  0  0
    0.5144   -8.2623    1.9409 C   0  0  0  0  0  0  0  0  0  0  0  0
    0.1467   -7.9035    3.2931 N   0  0  0  0  0  0  0  0  0  0  0  0
    0.3068   -8.5787    4.4329 C   0  0  0  0  0  0  0  0  0  0  0  0
   -0.1558   -7.9360    5.4952 N   0  0  0  0  0  0  0  0  0  0  0  0
   -0.6426   -6.8133    4.8925 C   0  0  0  0  0  0  0  0  0  0  0  0
   -0.5096   -6.7483    3.5689 N   0  0  0  0  0  0  0  0  0  0  0  0
    2.8391   -7.0621    1.3756 C   0  0  0  0  0  0  0  0  0  0  0  0
    3.8720   -7.7878    2.0171 C   0  0  0  0  0  0  0  0  0  0  0  0
    5.2169   -7.3592    1.8515 C   0  0  0  0  0  0  0  0  0  0  0  0
    6.2785   -8.0538    2.4767 C   0  0  0  0  0  0  0  0  0  0  0  0
    8.4439   -8.0958    2.7499 H   0  0  0  0  0  0  0  0  0  0  0  0
    8.8095   -6.0848    1.3153 H   0  0  0  0  0  0  0  0  0  0  0  0
    4.7066   -4.6544   -0.2086 H   0  0  0  0  0  0  0  0  0  0  0  0
   -0.4032   -8.3351    1.3598 H   0  0  0  0  0  0  0  0  0  0  0  0
    0.9819   -9.2531    1.9427 H   0  0  0  0  0  0  0  0  0  0  0  0
    0.7705   -9.5507    4.4788 H   0  0  0  0  0  0  0  0  0  0  0  0
   -1.1300   -6.0290    5.4598 H   0  0  0  0  0  0  0  0  0  0  0  0
    3.6317   -8.6577    2.6162 H   0  0  0  0  0  0  0  0  0  0  0  0
    6.0936   -8.9231    3.0962 H   0  0  0  0  0  0  0  0  0  0  0  0
  1 19  2  0
  1  2  1  0
  1 20  1  0
  2  3  2  0
  2 21  1  0
  3  4  1  0
  4 18  2  0
  4  5  1  0
  5  6  2  0
  5 22  1  0
  6 16  1  0
  6  7  1  0
  7  8  1  0
  8  9  2  0
  9 10  1  0
  9 16  1  0
 10 11  1  0
 10 23  1  0
 10 24  1  0
 11 15  1  0
 11 12  1  0
 12 13  2  0
 12 25  1  0
 13 14  1  0
 14 15  2  0
 14 26  1  0
 16 17  2  0
 17 18  1  0
 17 27  1  0
 18 19  1  0
 19 28  1  0
M  END
>  <i_m_ct_stereo_status>  (403) 
1

>  <s_m_source_file>  (403) 
/var/tmp/pbs.5076255.sched01/tmpxmhsyh4a/135ajud44o5.sdf

>  <i_m_source_file_index>  (403) 
31

>  <i_lp_mmshare_version>  (403) 
48012

>  <i_f3d_flags>  (403) 
0

>  <s_epik_input>  (403) 
bjFbY0hdW2NIXVtjSF1jKGMxMilbY0hdYzNjKFtjSF0yKW9uYzNbQ0gyXW40W2NIXW5bY0hdbjQ=

>  <s_epik_cmdline>  (403) 
J2VwaWtfcHl0aG9uJywgJy1waHQnLCAnMi4wJywgJy1waCcsICc3LjAnLCAnLXRuJywgJzgnLCAnLW1hJywgJzIwMCcsICctaW1hZScsICc8aW5maWxlLm1hZT4nLCAnLW9tYWUnLCAnPG91dGZpbGUubWFlPic=

>  <r_lp_tautomer_probability>  (403) 
1

>  <r_epik_Ionization_Penalty>  (403) 
5.04404e-05

>  <r_epik_Ionization_Penalty_Charging>  (403) 
0

>  <r_epik_Ionization_Penalty_Neutral>  (403) 
5.04404e-05

>  <r_epik_State_Penalty>  (403) 
-0

>  <r_epik_Charging_Adjusted_Penalty>  (403) 
0

>  <i_epik_Tot_Q>  (403) 
0

>  <i_epik_Tot_abs_Q>  (403) 
0

>  <s_lp_Force_Field>  (403) 
OPLS3e

>  <r_lp_Energy>  (403) 
22.0017

>  <b_lp_Chiralities_Consistent>  (403) 
1

>  <s_lp_Variant>  (403) 
110:0-1

>  <s_i_glide_gridfile>  (403) 
pfpi4k_grid

>  <i_i_glide_lignum>  (403) 
31

>  <i_i_glide_rotatable_bonds>  (403) 
2

>  <r_i_docking_score>  (403) 
-3.866

>  <r_i_glide_ligand_efficiency>  (403) 
-0.203474

>  <r_i_glide_ligand_efficiency_sa>  (403) 
-0.542949

>  <r_i_glide_ligand_efficiency_ln>  (403) 
-0.980114

>  <r_i_glide_gscore>  (403) 
-3.866

>  <r_i_glide_lipo>  (403) 
-0.285724

>  <r_i_glide_hbond>  (403) 
-0.0903636

>  <r_i_glide_metal>  (403) 
-0

>  <r_i_glide_rewards>  (403) 
-1.69607

>  <r_i_glide_evdw>  (403) 
-20.0859

>  <r_i_glide_ecoul>  (403) 
-7.02945

>  <r_i_glide_erotb>  (403) 
0.555256

>  <r_i_glide_esite>  (403) 
-0.29039

>  <r_i_glide_emodel>  (403) 
-34.7379

>  <r_i_glide_energy>  (403) 
-27.1153

>  <r_i_glide_einternal>  (403) 
0.203272

>  <r_i_glide_intrahb_reward>  (403) 
-0

>  <i_i_glide_confnum>  (403) 
1

>  <i_i_glide_posenum>  (403) 
1

>  <r_i_glide_eff_state_penalty>  (403) 
0

>  <ligand_id>  (403) 
110

>  <original_smiles>  (403) 
c1cnc2cc3onc(Cn4cncn4)c3cc2c1

>  <smiles>  (403) 
[H]c1nc([H])n(C([H])([H])c2noc3c([H])c4nc([H])c([H])c([H])c4c([H])c23)n1

$$$$
110:0:2
     RDKit          3D

 28 31  0  0  1  0  0  0  0  0999 V2000
    8.0818   -6.3452    1.8899 C   0  0  0  0  0  0  0  0  0  0  0  0
    7.9652   -5.2062    1.0743 C   0  0  0  0  0  0  0  0  0  0  0  0
    6.7894   -4.7702    0.5873 N   0  0  0  0  0  0  0  0  0  0  0  0
    5.6553   -5.4449    0.8853 C   0  0  0  0  0  0  0  0  0  0  0  0
    4.4245   -4.9801    0.3722 C   0  0  0  0  0  0  0  0  0  0  0  0
    3.2562   -5.6879    0.6933 C   0  0  0  0  0  0  0  0  0  0  0  0
    1.9329   -5.4815    0.3402 O   0  0  0  0  0  0  0  0  0  0  0  0
    1.1163   -6.4923    0.9131 N   0  0  0  0  0  0  0  0  0  0  0  0
    1.9123   -7.3005    1.6223 C   0  0  0  0  0  0  0  0  0  0  0  0
    1.3224   -8.4854    2.3586 C   0  0  0  0  0  0  0  0  0  0  0  0
    0.0158   -8.1766    2.9078 N   0  0  0  0  0  0  0  0  0  0  0  0
   -1.2072   -8.5074    2.4832 C   0  0  0  0  0  0  0  0  0  0  0  0
   -2.1799   -8.0002    3.2318 N   0  0  0  0  0  0  0  0  0  0  0  0
   -1.4323   -7.3765    4.1869 C   0  0  0  0  0  0  0  0  0  0  0  0
   -0.1136   -7.4034    4.0111 N   0  0  0  0  0  0  0  0  0  0  0  0
    3.2479   -6.8324    1.4978 C   0  0  0  0  0  0  0  0  0  0  0  0
    4.4719   -7.3146    2.0183 C   0  0  0  0  0  0  0  0  0  0  0  0
    5.6710   -6.6149    1.7088 C   0  0  0  0  0  0  0  0  0  0  0  0
    6.9137   -7.0639    2.2133 C   0  0  0  0  0  0  0  0  0  0  0  0
    9.0516   -6.6626    2.2459 H   0  0  0  0  0  0  0  0  0  0  0  0
    8.8356   -4.6253    0.7930 H   0  0  0  0  0  0  0  0  0  0  0  0
    4.3895   -4.1003   -0.2553 H   0  0  0  0  0  0  0  0  0  0  0  0
    1.2215   -9.3319    1.6771 H   0  0  0  0  0  0  0  0  0  0  0  0
    1.9703   -8.8137    3.1761 H   0  0  0  0  0  0  0  0  0  0  0  0
   -1.3990   -9.1064    1.6090 H   0  0  0  0  0  0  0  0  0  0  0  0
   -1.8857   -6.8401    5.0054 H   0  0  0  0  0  0  0  0  0  0  0  0
    4.4787   -8.2011    2.6395 H   0  0  0  0  0  0  0  0  0  0  0  0
    6.9865   -7.9435    2.8397 H   0  0  0  0  0  0  0  0  0  0  0  0
  1 19  2  0
  1  2  1  0
  1 20  1  0
  2  3  2  0
  2 21  1  0
  3  4  1  0
  4 18  2  0
  4  5  1  0
  5  6  2  0
  5 22  1  0
  6 16  1  0
  6  7  1  0
  7  8  1  0
  8  9  2  0
  9 10  1  0
  9 16  1  0
 10 11  1  0
 10 23  1  0
 10 24  1  0
 11 15  1  0
 11 12  1  0
 12 13  2  0
 12 25  1  0
 13 14  1  0
 14 15  2  0
 14 26  1  0
 16 17  2  0
 17 18  1  0
 17 27  1  0
 18 19  1  0
 19 28  1  0
M  END
>  <i_m_ct_stereo_status>  (404) 
1

>  <s_m_source_file>  (404) 
/var/tmp/pbs.5076255.sched01/tmpxmhsyh4a/135ajud44o5.sdf

>  <i_m_source_file_index>  (404) 
31

>  <i_lp_mmshare_version>  (404) 
48012

>  <i_f3d_flags>  (404) 
0

>  <s_epik_input>  (404) 
bjFbY0hdW2NIXVtjSF1jKGMxMilbY0hdYzNjKFtjSF0yKW9uYzNbQ0gyXW40W2NIXW5bY0hdbjQ=

>  <s_epik_cmdline>  (404) 
J2VwaWtfcHl0aG9uJywgJy1waHQnLCAnMi4wJywgJy1waCcsICc3LjAnLCAnLXRuJywgJzgnLCAnLW1hJywgJzIwMCcsICctaW1hZScsICc8aW5maWxlLm1hZT4nLCAnLW9tYWUnLCAnPG91dGZpbGUubWFlPic=

>  <r_lp_tautomer_probability>  (404) 
1

>  <r_epik_Ionization_Penalty>  (404) 
5.04404e-05

>  <r_epik_Ionization_Penalty_Charging>  (404) 
0

>  <r_epik_Ionization_Penalty_Neutral>  (404) 
5.04404e-05

>  <r_epik_State_Penalty>  (404) 
-0

>  <r_epik_Charging_Adjusted_Penalty>  (404) 
0

>  <i_epik_Tot_Q>  (404) 
0

>  <i_epik_Tot_abs_Q>  (404) 
0

>  <s_lp_Force_Field>  (404) 
OPLS3e

>  <r_lp_Energy>  (404) 
22.0017

>  <b_lp_Chiralities_Consistent>  (404) 
1

>  <s_lp_Variant>  (404) 
110:0-1

>  <s_i_glide_gridfile>  (404) 
pfpi4k_grid

>  <i_i_glide_lignum>  (404) 
31

>  <i_i_glide_rotatable_bonds>  (404) 
2

>  <r_i_docking_score>  (404) 
-3.85082

>  <r_i_glide_ligand_efficiency>  (404) 
-0.202675

>  <r_i_glide_ligand_efficiency_sa>  (404) 
-0.540818

>  <r_i_glide_ligand_efficiency_ln>  (404) 
-0.976266

>  <r_i_glide_gscore>  (404) 
-3.85082

>  <r_i_glide_lipo>  (404) 
-0.460295

>  <r_i_glide_hbond>  (404) 
0

>  <r_i_glide_metal>  (404) 
-0

>  <r_i_glide_rewards>  (404) 
-1.69607

>  <r_i_glide_evdw>  (404) 
-25.003

>  <r_i_glide_ecoul>  (404) 
-4.85533

>  <r_i_glide_erotb>  (404) 
0.555256

>  <r_i_glide_esite>  (404) 
-0.271267

>  <r_i_glide_emodel>  (404) 
-36.6043

>  <r_i_glide_energy>  (404) 
-29.8583

>  <r_i_glide_einternal>  (404) 
1.87504

>  <r_i_glide_intrahb_reward>  (404) 
-0

>  <i_i_glide_confnum>  (404) 
1

>  <i_i_glide_posenum>  (404) 
40

>  <r_i_glide_eff_state_penalty>  (404) 
0

>  <ligand_id>  (404) 
110

>  <original_smiles>  (404) 
c1cnc2cc3onc(Cn4cncn4)c3cc2c1

>  <smiles>  (404) 
[H]c1nc([H])n(C([H])([H])c2noc3c([H])c4nc([H])c([H])c([H])c4c([H])c23)n1

$$$$
111:0:0
     RDKit          3D

 49 53  0  0  1  0  0  0  0  0999 V2000
    3.9466   -0.1537    3.7139 C   0  0  0  0  0  0  0  0  0  0  0  0
    3.7005   -0.7507    2.3133 C   0  0  2  0  0  0  0  0  0  0  0  0
    2.4662   -1.6839    2.3837 C   0  0  0  0  0  0  0  0  0  0  0  0
    3.0422   -3.0947    2.5801 C   0  0  1  0  0  0  0  0  0  0  0  0
    2.1720   -4.2150    2.0590 C   0  0  2  0  0  0  0  0  0  0  0  0
    2.7409   -5.5842    1.7837 C   0  0  0  0  0  0  0  0  0  0  0  0
    2.3221   -4.6869    0.6303 C   0  0  2  0  0  0  0  0  0  0  0  0
    3.3035   -3.9987   -0.3280 C   0  0  1  0  0  0  0  0  0  0  0  0
    2.5702   -3.0624   -1.2469 N   0  0  2  0  0  0  0  0  0  0  0  0
    1.8127   -3.7514   -2.3159 C   0  0  0  0  0  0  0  0  0  0  0  0
    3.3782   -1.9903   -1.8243 C   0  0  0  0  0  0  0  0  0  0  0  0
    3.8995   -1.1187   -0.7023 C   0  0  0  0  0  0  0  0  0  0  0  0
    4.8947   -1.8888    0.1729 C   0  0  1  0  0  0  0  0  0  0  0  0
    6.2461   -1.6173   -0.5208 C   0  0  0  0  0  0  0  0  0  0  0  0
    4.8513   -1.6253    1.7215 C   0  0  1  0  0  0  0  0  0  0  0  0
    6.1962   -1.2863    2.3632 C   0  0  0  0  0  0  0  0  0  0  0  0
    4.3976   -3.0645    1.9090 C   0  0  2  0  0  0  0  0  0  0  0  0
    4.5532   -3.3908    0.4105 C   0  0  1  0  0  0  0  0  0  0  0  0
    5.7044   -4.3896    0.1561 C   0  0  0  0  0  0  0  0  0  0  0  0
    4.1485   -0.9257    4.4583 H   0  0  0  0  0  0  0  0  0  0  0  0
    3.0666    0.3980    4.0454 H   0  0  0  0  0  0  0  0  0  0  0  0
    4.7752    0.5548    3.7128 H   0  0  0  0  0  0  0  0  0  0  0  0
    3.5012    0.1111    1.6803 H   0  0  0  0  0  0  0  0  0  0  0  0
    1.7599   -1.4124    3.1730 H   0  0  0  0  0  0  0  0  0  0  0  0
    1.9043   -1.6466    1.4505 H   0  0  0  0  0  0  0  0  0  0  0  0
    3.1776   -3.2585    3.6499 H   0  0  0  0  0  0  0  0  0  0  0  0
    1.1663   -4.2186    2.4830 H   0  0  0  0  0  0  0  0  0  0  0  0
    3.7991   -5.7551    1.9712 H   0  0  0  0  0  0  0  0  0  0  0  0
    2.0903   -6.4242    2.0115 H   0  0  0  0  0  0  0  0  0  0  0  0
    1.4316   -5.0689    0.1394 H   0  0  0  0  0  0  0  0  0  0  0  0
    3.6695   -4.7909   -0.9789 H   0  0  0  0  0  0  0  0  0  0  0  0
    2.4704   -4.1980   -3.0584 H   0  0  0  0  0  0  0  0  0  0  0  0
    1.1902   -3.0413   -2.8555 H   0  0  0  0  0  0  0  0  0  0  0  0
    1.1564   -4.5186   -1.9130 H   0  0  0  0  0  0  0  0  0  0  0  0
    4.1747   -2.3907   -2.4556 H   0  0  0  0  0  0  0  0  0  0  0  0
    2.7340   -1.3680   -2.4456 H   0  0  0  0  0  0  0  0  0  0  0  0
    4.3530   -0.2235   -1.1237 H   0  0  0  0  0  0  0  0  0  0  0  0
    3.0284   -0.7671   -0.1568 H   0  0  0  0  0  0  0  0  0  0  0  0
    7.0902   -2.1438   -0.0782 H   0  0  0  0  0  0  0  0  0  0  0  0
    6.4809   -0.5588   -0.4454 H   0  0  0  0  0  0  0  0  0  0  0  0
    6.2353   -1.9079   -1.5743 H   0  0  0  0  0  0  0  0  0  0  0  0
    6.9645   -1.9836    2.0426 H   0  0  0  0  0  0  0  0  0  0  0  0
    6.1642   -1.3652    3.4455 H   0  0  0  0  0  0  0  0  0  0  0  0
    6.5188   -0.2808    2.1093 H   0  0  0  0  0  0  0  0  0  0  0  0
    5.1277   -3.6366    2.4809 H   0  0  0  0  0  0  0  0  0  0  0  0
    6.5923   -4.1309    0.7310 H   0  0  0  0  0  0  0  0  0  0  0  0
    5.9878   -4.4079   -0.8967 H   0  0  0  0  0  0  0  0  0  0  0  0
    5.4455   -5.4101    0.4436 H   0  0  0  0  0  0  0  0  0  0  0  0
    1.8800   -2.5436   -0.7067 H   0  0  0  0  0  0  0  0  0  0  0  0
  1  2  1  0
  1 20  1  0
  1 21  1  0
  1 22  1  0
  2 15  1  0
  2  3  1  0
  2 23  1  6
  3  4  1  0
  3 24  1  0
  3 25  1  0
  4 17  1  0
  4  5  1  0
  4 26  1  1
  5  7  1  0
  5  6  1  0
  5 27  1  1
  6  7  1  0
  6 28  1  0
  6 29  1  0
  7  8  1  0
  7 30  1  6
  8 18  1  0
  8  9  1  0
  8 31  1  6
  9 10  1  0
  9 11  1  0
  9 49  1  1
 10 32  1  0
 10 33  1  0
 10 34  1  0
 11 12  1  0
 11 35  1  0
 11 36  1  0
 12 13  1  0
 12 37  1  0
 12 38  1  0
 13 18  1  0
 13 14  1  6
 13 15  1  0
 14 39  1  0
 14 40  1  0
 14 41  1  0
 15 16  1  1
 15 17  1  0
 16 42  1  0
 16 43  1  0
 16 44  1  0
 17 18  1  0
 17 45  1  1
 18 19  1  1
 19 46  1  0
 19 47  1  0
 19 48  1  0
M  CHG  1   9   1
M  END
>  <i_m_ct_stereo_status>  (405) 
1

>  <s_m_source_file>  (405) 
/var/tmp/pbs.5076255.sched01/tmpxmhsyh4a/135ajud44o5.sdf

>  <i_m_source_file_index>  (405) 
32

>  <i_lp_mmshare_version>  (405) 
48012

>  <i_f3d_flags>  (405) 
0

>  <s_epik_input>  (405) 
W0NIM11bQ0BAXTEyW0NAXTMoW0NIM10pW0NASF00W0NAQEhdKFtDSDJdW0NASF0zW0NIM10pW0NASF01W0NASF0oW0NIMl01KVtDQEhdKFtDQEBdMjRbQ0gzXSlOKFtDSDNdKVtDSDJdW0NIMl0x

>  <s_epik_cmdline>  (405) 
J2VwaWtfcHl0aG9uJywgJy1waHQnLCAnMi4wJywgJy1waCcsICc3LjAnLCAnLXRuJywgJzgnLCAnLW1hJywgJzIwMCcsICctaW1hZScsICc8aW5maWxlLm1hZT4nLCAnLW9tYWUnLCAnPG91dGZpbGUubWFlPic=

>  <r_lp_tautomer_probability>  (405) 
1

>  <r_epik_Ionization_Penalty>  (405) 
0.000257679

>  <r_epik_Ionization_Penalty_Charging>  (405) 
0.000257679

>  <r_epik_Ionization_Penalty_Neutral>  (405) 
0

>  <r_epik_State_Penalty>  (405) 
-0

>  <r_epik_Charging_Adjusted_Penalty>  (405) 
0.000257679

>  <i_epik_Tot_Q>  (405) 
1

>  <i_epik_Tot_abs_Q>  (405) 
1

>  <s_lp_Force_Field>  (405) 
OPLS3e

>  <r_lp_Energy>  (405) 
60.6045

>  <b_lp_Chiralities_Consistent>  (405) 
1

>  <s_lp_Variant>  (405) 
111:0-1

>  <s_i_glide_gridfile>  (405) 
pfpi4k_grid

>  <i_i_glide_lignum>  (405) 
32

>  <i_i_glide_rotatable_bonds>  (405) 
0

>  <r_i_docking_score>  (405) 
-3.51339

>  <r_i_glide_ligand_efficiency>  (405) 
-0.184915

>  <r_i_glide_ligand_efficiency_sa>  (405) 
-0.493428

>  <r_i_glide_ligand_efficiency_ln>  (405) 
-0.89072

>  <r_i_glide_gscore>  (405) 
-3.51339

>  <r_i_glide_lipo>  (405) 
-0.377589

>  <r_i_glide_hbond>  (405) 
-0.166965

>  <r_i_glide_metal>  (405) 
-0

>  <r_i_glide_rewards>  (405) 
-1.63338

>  <r_i_glide_evdw>  (405) 
-9.81802

>  <r_i_glide_ecoul>  (405) 
-5.54697

>  <r_i_glide_erotb>  (405) 
0

>  <r_i_glide_esite>  (405) 
-0.0125086

>  <r_i_glide_emodel>  (405) 
-18.4949

>  <r_i_glide_energy>  (405) 
-15.365

>  <r_i_glide_einternal>  (405) 
0

>  <r_i_glide_intrahb_reward>  (405) 
-0

>  <i_i_glide_confnum>  (405) 
2

>  <i_i_glide_posenum>  (405) 
28

>  <r_i_glide_eff_state_penalty>  (405) 
0

>  <ligand_id>  (405) 
111

>  <original_smiles>  (405) 
CC1CC2C3CC3C3N(C)CCC4(C)C1(C)C2C34C

>  <smiles>  (405) 
[H]C([H])([H])C1([H])C([H])([H])C2([H])C3([H])C([H])([H])C3([H])C3([H])C4(C([H])([H])[H])C2([H])C1(C([H])([H])[H])C4(C([H])([H])[H])C([H])([H])C([H])([H])[N+]3([H])C([H])([H])[H]

$$$$
112:0:0
     RDKit          3D

 29 31  0  0  1  0  0  0  0  0999 V2000
   -0.4822   -9.6161    2.8189 C   0  0  0  0  0  0  0  0  0  0  0  0
    0.8646   -9.4936    3.3688 N   0  0  0  0  0  0  0  0  0  0  0  0
    1.1617  -10.7642    4.0252 C   0  0  0  0  0  0  0  0  0  0  0  0
    1.8128   -9.2070    2.2821 C   0  0  2  0  0  0  0  0  0  0  0  0
    3.3183   -9.2557    2.7109 C   0  0  0  0  0  0  0  0  0  0  0  0
    4.0270   -8.2742    1.7547 C   0  0  0  0  0  0  0  0  0  0  0  0
    2.9478   -7.3751    1.4398 N   0  0  0  0  0  0  0  0  0  0  0  0
    2.7424   -6.1348    0.9545 C   0  0  0  0  0  0  0  0  0  0  0  0
    3.7857   -5.1730    0.5789 C   0  0  0  0  0  0  0  0  0  0  0  0
    5.1602   -5.3072    0.6642 C   0  0  0  0  0  0  0  0  0  0  0  0
    6.0165   -3.9035    0.0737 S   0  0  0  0  0  0  0  0  0  0  0  0
    4.4658   -3.1578   -0.2443 C   0  0  0  0  0  0  0  0  0  0  0  0
    3.4169   -3.9105    0.0841 N   0  0  0  0  0  0  0  0  0  0  0  0
    1.4144   -5.8747    0.8902 N   0  0  0  0  0  0  0  0  0  0  0  0
    0.7493   -6.9985    1.3777 N   0  0  0  0  0  0  0  0  0  0  0  0
    1.7350   -7.8319    1.6936 C   0  0  0  0  0  0  0  0  0  0  0  0
   -0.8228   -8.7003    2.3364 H   0  0  0  0  0  0  0  0  0  0  0  0
   -1.1894   -9.8256    3.6197 H   0  0  0  0  0  0  0  0  0  0  0  0
   -0.5504  -10.4234    2.0837 H   0  0  0  0  0  0  0  0  0  0  0  0
    2.1307  -10.7395    4.5208 H   0  0  0  0  0  0  0  0  0  0  0  0
    1.1547  -11.6032    3.3282 H   0  0  0  0  0  0  0  0  0  0  0  0
    0.4173  -10.9608    4.7971 H   0  0  0  0  0  0  0  0  0  0  0  0
    1.6766   -9.9049    1.4546 H   0  0  0  0  0  0  0  0  0  0  0  0
    3.3993   -8.8255    3.7172 H   0  0  0  0  0  0  0  0  0  0  0  0
    3.7643  -10.2528    2.7495 H   0  0  0  0  0  0  0  0  0  0  0  0
    4.8616   -7.7664    2.2283 H   0  0  0  0  0  0  0  0  0  0  0  0
    4.3403   -8.7656    0.8306 H   0  0  0  0  0  0  0  0  0  0  0  0
    5.7293   -6.1618    1.0156 H   0  0  0  0  0  0  0  0  0  0  0  0
    4.3361   -2.1719   -0.6727 H   0  0  0  0  0  0  0  0  0  0  0  0
  1  2  1  0
  1 17  1  0
  1 18  1  0
  1 19  1  0
  2  3  1  0
  2  4  1  0
  3 20  1  0
  3 21  1  0
  3 22  1  0
  4 16  1  0
  4  5  1  0
  4 23  1  6
  5  6  1  0
  5 24  1  0
  5 25  1  0
  6  7  1  0
  6 26  1  0
  6 27  1  0
  7 16  1  0
  7  8  1  0
  8  9  1  0
  8 14  2  0
  9 13  1  0
  9 10  2  0
 10 11  1  0
 10 28  1  0
 11 12  1  0
 12 13  2  0
 12 29  1  0
 14 15  1  0
 15 16  2  0
M  END
>  <i_m_ct_stereo_status>  (406) 
1

>  <s_m_source_file>  (406) 
/var/tmp/pbs.5076255.sched01/tmpxmhsyh4a/135ajud44o5.sdf

>  <i_m_source_file_index>  (406) 
33

>  <i_lp_mmshare_version>  (406) 
48012

>  <i_f3d_flags>  (406) 
0

>  <s_epik_input>  (406) 
W0NIM11OKFtDSDNdKVtDQEhdKFtDSDJdW0NIMl0xKWMobjEyKW5uYzItYzNbY0hdc1tjSF1uMw==

>  <s_epik_cmdline>  (406) 
J2VwaWtfcHl0aG9uJywgJy1waHQnLCAnMi4wJywgJy1waCcsICc3LjAnLCAnLXRuJywgJzgnLCAnLW1hJywgJzIwMCcsICctaW1hZScsICc8aW5maWxlLm1hZT4nLCAnLW9tYWUnLCAnPG91dGZpbGUubWFlPic=

>  <r_lp_tautomer_probability>  (406) 
1

>  <r_epik_Ionization_Penalty>  (406) 
0.331609

>  <r_epik_Ionization_Penalty_Charging>  (406) 
0

>  <r_epik_Ionization_Penalty_Neutral>  (406) 
0.331609

>  <r_epik_State_Penalty>  (406) 
0.326526

>  <r_epik_Charging_Adjusted_Penalty>  (406) 
0.326526

>  <i_epik_Tot_Q>  (406) 
0

>  <i_epik_Tot_abs_Q>  (406) 
0

>  <s_lp_Force_Field>  (406) 
OPLS3e

>  <r_lp_Energy>  (406) 
21.5738

>  <b_lp_Chiralities_Consistent>  (406) 
1

>  <s_lp_Variant>  (406) 
112:0-1

>  <s_i_glide_gridfile>  (406) 
pfpi4k_grid

>  <i_i_glide_lignum>  (406) 
33

>  <i_i_glide_rotatable_bonds>  (406) 
2

>  <r_i_docking_score>  (406) 
-3.62754

>  <r_i_glide_ligand_efficiency>  (406) 
-0.226721

>  <r_i_glide_ligand_efficiency_sa>  (406) 
-0.571301

>  <r_i_glide_ligand_efficiency_ln>  (406) 
-0.961551

>  <r_i_glide_gscore>  (406) 
-3.62754

>  <r_i_glide_lipo>  (406) 
-0.307485

>  <r_i_glide_hbond>  (406) 
0

>  <r_i_glide_metal>  (406) 
-0

>  <r_i_glide_rewards>  (406) 
-1.86639

>  <r_i_glide_evdw>  (406) 
-20.1749

>  <r_i_glide_ecoul>  (406) 
-3.5388

>  <r_i_glide_erotb>  (406) 
0.310513

>  <r_i_glide_esite>  (406) 
-0.224608

>  <r_i_glide_emodel>  (406) 
-28.7784

>  <r_i_glide_energy>  (406) 
-23.7137

>  <r_i_glide_einternal>  (406) 
2.48031

>  <r_i_glide_intrahb_reward>  (406) 
-0

>  <i_i_glide_confnum>  (406) 
3

>  <i_i_glide_posenum>  (406) 
6

>  <r_i_glide_eff_state_penalty>  (406) 
0

>  <ligand_id>  (406) 
112

>  <original_smiles>  (406) 
CN(C)C1CCn2c(-c3cscn3)nnc21

>  <smiles>  (406) 
[H]c1nc(-c2nnc3n2C([H])([H])C([H])([H])C3([H])N(C([H])([H])[H])C([H])([H])[H])c([H])s1

$$$$
112:0:1
     RDKit          3D

 29 31  0  0  1  0  0  0  0  0999 V2000
   -1.2631   -8.8043    2.7428 C   0  0  0  0  0  0  0  0  0  0  0  0
   -0.1819   -8.3006    3.5886 N   0  0  0  0  0  0  0  0  0  0  0  0
   -0.1794   -9.1272    4.7924 C   0  0  0  0  0  0  0  0  0  0  0  0
    1.0918   -8.4033    2.8568 C   0  0  2  0  0  0  0  0  0  0  0  0
    2.3682   -8.1810    3.7373 C   0  0  0  0  0  0  0  0  0  0  0  0
    3.4209   -7.6074    2.7598 C   0  0  0  0  0  0  0  0  0  0  0  0
    2.5654   -6.9834    1.7868 N   0  0  0  0  0  0  0  0  0  0  0  0
    2.6054   -6.0178    0.8569 C   0  0  0  0  0  0  0  0  0  0  0  0
    3.7941   -5.2211    0.4961 C   0  0  0  0  0  0  0  0  0  0  0  0
    5.1059   -5.4227    0.8771 C   0  0  0  0  0  0  0  0  0  0  0  0
    6.1915   -4.2250    0.2113 S   0  0  0  0  0  0  0  0  0  0  0  0
    4.8072   -3.4680   -0.5538 C   0  0  0  0  0  0  0  0  0  0  0  0
    3.6477   -4.0655   -0.2920 N   0  0  0  0  0  0  0  0  0  0  0  0
    1.3933   -5.8592    0.2907 N   0  0  0  0  0  0  0  0  0  0  0  0
    0.5256   -6.7502    0.9054 N   0  0  0  0  0  0  0  0  0  0  0  0
    1.3097   -7.3777    1.7891 C   0  0  0  0  0  0  0  0  0  0  0  0
   -1.3709   -8.2304    1.8220 H   0  0  0  0  0  0  0  0  0  0  0  0
   -2.2124   -8.7473    3.2751 H   0  0  0  0  0  0  0  0  0  0  0  0
   -1.1100   -9.8496    2.4604 H   0  0  0  0  0  0  0  0  0  0  0  0
    0.5628   -8.7885    5.5113 H   0  0  0  0  0  0  0  0  0  0  0  0
    0.0105  -10.1787    4.5752 H   0  0  0  0  0  0  0  0  0  0  0  0
   -1.1458   -9.0564    5.2858 H   0  0  0  0  0  0  0  0  0  0  0  0
    1.1805   -9.3845    2.3823 H   0  0  0  0  0  0  0  0  0  0  0  0
    2.1488   -7.3949    4.4683 H   0  0  0  0  0  0  0  0  0  0  0  0
    2.6984   -9.0594    4.3017 H   0  0  0  0  0  0  0  0  0  0  0  0
    4.1007   -6.8953    3.2245 H   0  0  0  0  0  0  0  0  0  0  0  0
    3.9803   -8.4046    2.2671 H   0  0  0  0  0  0  0  0  0  0  0  0
    5.4982   -6.2262    1.4863 H   0  0  0  0  0  0  0  0  0  0  0  0
    4.8514   -2.5857   -1.1807 H   0  0  0  0  0  0  0  0  0  0  0  0
  1  2  1  0
  1 17  1  0
  1 18  1  0
  1 19  1  0
  2  3  1  0
  2  4  1  0
  3 20  1  0
  3 21  1  0
  3 22  1  0
  4 16  1  0
  4  5  1  0
  4 23  1  6
  5  6  1  0
  5 24  1  0
  5 25  1  0
  6  7  1  0
  6 26  1  0
  6 27  1  0
  7 16  1  0
  7  8  1  0
  8  9  1  0
  8 14  2  0
  9 13  1  0
  9 10  2  0
 10 11  1  0
 10 28  1  0
 11 12  1  0
 12 13  2  0
 12 29  1  0
 14 15  1  0
 15 16  2  0
M  END
>  <i_m_ct_stereo_status>  (407) 
1

>  <s_m_source_file>  (407) 
/var/tmp/pbs.5076255.sched01/tmpxmhsyh4a/135ajud44o5.sdf

>  <i_m_source_file_index>  (407) 
33

>  <i_lp_mmshare_version>  (407) 
48012

>  <i_f3d_flags>  (407) 
0

>  <s_epik_input>  (407) 
W0NIM11OKFtDSDNdKVtDQEhdKFtDSDJdW0NIMl0xKWMobjEyKW5uYzItYzNbY0hdc1tjSF1uMw==

>  <s_epik_cmdline>  (407) 
J2VwaWtfcHl0aG9uJywgJy1waHQnLCAnMi4wJywgJy1waCcsICc3LjAnLCAnLXRuJywgJzgnLCAnLW1hJywgJzIwMCcsICctaW1hZScsICc8aW5maWxlLm1hZT4nLCAnLW9tYWUnLCAnPG91dGZpbGUubWFlPic=

>  <r_lp_tautomer_probability>  (407) 
1

>  <r_epik_Ionization_Penalty>  (407) 
0.331609

>  <r_epik_Ionization_Penalty_Charging>  (407) 
0

>  <r_epik_Ionization_Penalty_Neutral>  (407) 
0.331609

>  <r_epik_State_Penalty>  (407) 
0.326526

>  <r_epik_Charging_Adjusted_Penalty>  (407) 
0.326526

>  <i_epik_Tot_Q>  (407) 
0

>  <i_epik_Tot_abs_Q>  (407) 
0

>  <s_lp_Force_Field>  (407) 
OPLS3e

>  <r_lp_Energy>  (407) 
21.5738

>  <b_lp_Chiralities_Consistent>  (407) 
1

>  <s_lp_Variant>  (407) 
112:0-1

>  <s_i_glide_gridfile>  (407) 
pfpi4k_grid

>  <i_i_glide_lignum>  (407) 
33

>  <i_i_glide_rotatable_bonds>  (407) 
2

>  <r_i_docking_score>  (407) 
-3.57097

>  <r_i_glide_ligand_efficiency>  (407) 
-0.223185

>  <r_i_glide_ligand_efficiency_sa>  (407) 
-0.562392

>  <r_i_glide_ligand_efficiency_ln>  (407) 
-0.946556

>  <r_i_glide_gscore>  (407) 
-3.57097

>  <r_i_glide_lipo>  (407) 
-0.211501

>  <r_i_glide_hbond>  (407) 
0

>  <r_i_glide_metal>  (407) 
-0

>  <r_i_glide_rewards>  (407) 
-1.80471

>  <r_i_glide_evdw>  (407) 
-19.5116

>  <r_i_glide_ecoul>  (407) 
-4.17142

>  <r_i_glide_erotb>  (407) 
0.310513

>  <r_i_glide_esite>  (407) 
-0.26398

>  <r_i_glide_emodel>  (407) 
-28.4385

>  <r_i_glide_energy>  (407) 
-23.683

>  <r_i_glide_einternal>  (407) 
2.74646

>  <r_i_glide_intrahb_reward>  (407) 
-0

>  <i_i_glide_confnum>  (407) 
2

>  <i_i_glide_posenum>  (407) 
39

>  <r_i_glide_eff_state_penalty>  (407) 
0

>  <ligand_id>  (407) 
112

>  <original_smiles>  (407) 
CN(C)C1CCn2c(-c3cscn3)nnc21

>  <smiles>  (407) 
[H]c1nc(-c2nnc3n2C([H])([H])C([H])([H])C3([H])N(C([H])([H])[H])C([H])([H])[H])c([H])s1

$$$$
112:0:2
     RDKit          3D

 29 31  0  0  1  0  0  0  0  0999 V2000
    0.3134  -10.3055    3.1172 C   0  0  0  0  0  0  0  0  0  0  0  0
    1.7271  -10.0152    3.3604 N   0  0  0  0  0  0  0  0  0  0  0  0
    2.3449  -11.2674    3.7830 C   0  0  0  0  0  0  0  0  0  0  0  0
    2.3399   -9.5082    2.1252 C   0  0  2  0  0  0  0  0  0  0  0  0
    3.8975   -9.3431    2.1892 C   0  0  0  0  0  0  0  0  0  0  0  0
    4.2089   -8.1779    1.2306 C   0  0  0  0  0  0  0  0  0  0  0  0
    2.9748   -7.4545    1.2833 N   0  0  0  0  0  0  0  0  0  0  0  0
    2.4754   -6.2388    0.9763 C   0  0  0  0  0  0  0  0  0  0  0  0
    3.2563   -5.1013    0.4528 C   0  0  0  0  0  0  0  0  0  0  0  0
    4.6057   -5.0464    0.1093 C   0  0  0  0  0  0  0  0  0  0  0  0
    5.0754   -3.4870   -0.5098 S   0  0  0  0  0  0  0  0  0  0  0  0
    3.4313   -2.9367   -0.2741 C   0  0  0  0  0  0  0  0  0  0  0  0
    2.6138   -3.8702    0.2318 N   0  0  0  0  0  0  0  0  0  0  0  0
    1.1354   -6.2210    1.1981 N   0  0  0  0  0  0  0  0  0  0  0  0
    0.7876   -7.4576    1.7018 N   0  0  0  0  0  0  0  0  0  0  0  0
    1.9326   -8.1245    1.7259 C   0  0  0  0  0  0  0  0  0  0  0  0
   -0.2537   -9.4212    2.8301 H   0  0  0  0  0  0  0  0  0  0  0  0
   -0.1483  -10.6817    4.0288 H   0  0  0  0  0  0  0  0  0  0  0  0
    0.1854  -11.0508    2.3271 H   0  0  0  0  0  0  0  0  0  0  0  0
    3.3921  -11.1222    4.0368 H   0  0  0  0  0  0  0  0  0  0  0  0
    2.2766  -12.0430    3.0199 H   0  0  0  0  0  0  0  0  0  0  0  0
    1.8445  -11.6241    4.6796 H   0  0  0  0  0  0  0  0  0  0  0  0
    2.1040  -10.1496    1.2765 H   0  0  0  0  0  0  0  0  0  0  0  0
    4.1589   -8.9836    3.1905 H   0  0  0  0  0  0  0  0  0  0  0  0
    4.4694  -10.2646    2.0124 H   0  0  0  0  0  0  0  0  0  0  0  0
    5.0639   -7.5875    1.5322 H   0  0  0  0  0  0  0  0  0  0  0  0
    4.3296   -8.5350    0.2060 H   0  0  0  0  0  0  0  0  0  0  0  0
    5.3402   -5.8433    0.1576 H   0  0  0  0  0  0  0  0  0  0  0  0
    3.0660   -1.9493   -0.5036 H   0  0  0  0  0  0  0  0  0  0  0  0
  1  2  1  0
  1 17  1  0
  1 18  1  0
  1 19  1  0
  2  3  1  0
  2  4  1  0
  3 20  1  0
  3 21  1  0
  3 22  1  0
  4 16  1  0
  4  5  1  0
  4 23  1  6
  5  6  1  0
  5 24  1  0
  5 25  1  0
  6  7  1  0
  6 26  1  0
  6 27  1  0
  7 16  1  0
  7  8  1  0
  8  9  1  0
  8 14  2  0
  9 13  1  0
  9 10  2  0
 10 11  1  0
 10 28  1  0
 11 12  1  0
 12 13  2  0
 12 29  1  0
 14 15  1  0
 15 16  2  0
M  END
>  <i_m_ct_stereo_status>  (408) 
1

>  <s_m_source_file>  (408) 
/var/tmp/pbs.5076255.sched01/tmpxmhsyh4a/135ajud44o5.sdf

>  <i_m_source_file_index>  (408) 
33

>  <i_lp_mmshare_version>  (408) 
48012

>  <i_f3d_flags>  (408) 
0

>  <s_epik_input>  (408) 
W0NIM11OKFtDSDNdKVtDQEhdKFtDSDJdW0NIMl0xKWMobjEyKW5uYzItYzNbY0hdc1tjSF1uMw==

>  <s_epik_cmdline>  (408) 
J2VwaWtfcHl0aG9uJywgJy1waHQnLCAnMi4wJywgJy1waCcsICc3LjAnLCAnLXRuJywgJzgnLCAnLW1hJywgJzIwMCcsICctaW1hZScsICc8aW5maWxlLm1hZT4nLCAnLW9tYWUnLCAnPG91dGZpbGUubWFlPic=

>  <r_lp_tautomer_probability>  (408) 
1

>  <r_epik_Ionization_Penalty>  (408) 
0.331609

>  <r_epik_Ionization_Penalty_Charging>  (408) 
0

>  <r_epik_Ionization_Penalty_Neutral>  (408) 
0.331609

>  <r_epik_State_Penalty>  (408) 
0.326526

>  <r_epik_Charging_Adjusted_Penalty>  (408) 
0.326526

>  <i_epik_Tot_Q>  (408) 
0

>  <i_epik_Tot_abs_Q>  (408) 
0

>  <s_lp_Force_Field>  (408) 
OPLS3e

>  <r_lp_Energy>  (408) 
21.5738

>  <b_lp_Chiralities_Consistent>  (408) 
1

>  <s_lp_Variant>  (408) 
112:0-1

>  <s_i_glide_gridfile>  (408) 
pfpi4k_grid

>  <i_i_glide_lignum>  (408) 
33

>  <i_i_glide_rotatable_bonds>  (408) 
2

>  <r_i_docking_score>  (408) 
-3.36107

>  <r_i_glide_ligand_efficiency>  (408) 
-0.210067

>  <r_i_glide_ligand_efficiency_sa>  (408) 
-0.529336

>  <r_i_glide_ligand_efficiency_ln>  (408) 
-0.89092

>  <r_i_glide_gscore>  (408) 
-3.36107

>  <r_i_glide_lipo>  (408) 
-0.106517

>  <r_i_glide_hbond>  (408) 
0

>  <r_i_glide_metal>  (408) 
-0

>  <r_i_glide_rewards>  (408) 
-1.85701

>  <r_i_glide_evdw>  (408) 
-20.9218

>  <r_i_glide_ecoul>  (408) 
-3.125

>  <r_i_glide_erotb>  (408) 
0.310513

>  <r_i_glide_esite>  (408) 
-0.193221

>  <r_i_glide_emodel>  (408) 
-28.5762

>  <r_i_glide_energy>  (408) 
-24.0468

>  <r_i_glide_einternal>  (408) 
2.47349

>  <r_i_glide_intrahb_reward>  (408) 
-0

>  <i_i_glide_confnum>  (408) 
2

>  <i_i_glide_posenum>  (408) 
11

>  <r_i_glide_eff_state_penalty>  (408) 
0

>  <ligand_id>  (408) 
112

>  <original_smiles>  (408) 
CN(C)C1CCn2c(-c3cscn3)nnc21

>  <smiles>  (408) 
[H]c1nc(-c2nnc3n2C([H])([H])C([H])([H])C3([H])N(C([H])([H])[H])C([H])([H])[H])c([H])s1

$$$$
112:1:0
     RDKit          3D

 30 32  0  0  1  0  0  0  0  0999 V2000
    2.7097   -3.2476   -0.8409 C   0  0  0  0  0  0  0  0  0  0  0  0
    3.7415   -4.2991   -0.6949 N   0  0  0  0  0  0  0  0  0  0  0  0
    5.0543   -3.7335   -1.0786 C   0  0  0  0  0  0  0  0  0  0  0  0
    3.7798   -4.9138    0.6735 C   0  0  2  0  0  0  0  0  0  0  0  0
    4.9672   -5.8734    0.9725 C   0  0  0  0  0  0  0  0  0  0  0  0
    4.3707   -6.8607    2.0029 C   0  0  0  0  0  0  0  0  0  0  0  0
    2.9883   -6.8518    1.6124 N   0  0  0  0  0  0  0  0  0  0  0  0
    1.8718   -7.5837    1.7577 C   0  0  0  0  0  0  0  0  0  0  0  0
    1.7905   -8.9042    2.4301 C   0  0  0  0  0  0  0  0  0  0  0  0
    2.7878   -9.8361    2.6337 C   0  0  0  0  0  0  0  0  0  0  0  0
    2.2606  -11.2461    3.5190 S   0  0  0  0  0  0  0  0  0  0  0  0
    0.6518  -10.5568    3.5490 C   0  0  0  0  0  0  0  0  0  0  0  0
    0.5603   -9.3675    2.9488 N   0  0  0  0  0  0  0  0  0  0  0  0
    0.8337   -6.9828    1.1205 N   0  0  0  0  0  0  0  0  0  0  0  0
    1.3547   -5.8746    0.4617 N   0  0  0  0  0  0  0  0  0  0  0  0
    2.6225   -5.8377    0.8401 C   0  0  0  0  0  0  0  0  0  0  0  0
    2.8615   -2.4221   -0.1481 H   0  0  0  0  0  0  0  0  0  0  0  0
    1.7048   -3.6210   -0.7048 H   0  0  0  0  0  0  0  0  0  0  0  0
    2.7281   -2.8167   -1.8389 H   0  0  0  0  0  0  0  0  0  0  0  0
    5.3782   -2.9554   -0.3898 H   0  0  0  0  0  0  0  0  0  0  0  0
    5.0191   -3.2768   -2.0636 H   0  0  0  0  0  0  0  0  0  0  0  0
    5.8319   -4.4845   -1.1160 H   0  0  0  0  0  0  0  0  0  0  0  0
    3.7295   -4.1630    1.4644 H   0  0  0  0  0  0  0  0  0  0  0  0
    5.1705   -6.4688    0.0775 H   0  0  0  0  0  0  0  0  0  0  0  0
    5.9033   -5.3988    1.2820 H   0  0  0  0  0  0  0  0  0  0  0  0
    4.7956   -7.8627    1.9775 H   0  0  0  0  0  0  0  0  0  0  0  0
    4.4240   -6.4707    3.0174 H   0  0  0  0  0  0  0  0  0  0  0  0
    3.8262   -9.8149    2.3242 H   0  0  0  0  0  0  0  0  0  0  0  0
   -0.2000  -11.0231    4.0365 H   0  0  0  0  0  0  0  0  0  0  0  0
    3.5091   -5.0296   -1.3697 H   0  0  0  0  0  0  0  0  0  0  0  0
  1  2  1  0
  1 17  1  0
  1 18  1  0
  1 19  1  0
  2  3  1  0
  2  4  1  0
  2 30  1  0
  3 20  1  0
  3 21  1  0
  3 22  1  0
  4 16  1  0
  4  5  1  0
  4 23  1  1
  5  6  1  0
  5 24  1  0
  5 25  1  0
  6  7  1  0
  6 26  1  0
  6 27  1  0
  7 16  1  0
  7  8  1  0
  8  9  1  0
  8 14  2  0
  9 13  1  0
  9 10  2  0
 10 11  1  0
 10 28  1  0
 11 12  1  0
 12 13  2  0
 12 29  1  0
 14 15  1  0
 15 16  2  0
M  CHG  1   2   1
M  END
>  <i_m_ct_stereo_status>  (409) 
1

>  <s_m_source_file>  (409) 
/var/tmp/pbs.5076255.sched01/tmpxmhsyh4a/135ajud44o5.sdf

>  <i_m_source_file_index>  (409) 
34

>  <i_lp_mmshare_version>  (409) 
48012

>  <i_f3d_flags>  (409) 
0

>  <s_epik_input>  (409) 
W0NIM11OKFtDSDNdKVtDQEhdKFtDSDJdW0NIMl0xKWMobjEyKW5uYzItYzNbY0hdc1tjSF1uMw==

>  <s_epik_cmdline>  (409) 
J2VwaWtfcHl0aG9uJywgJy1waHQnLCAnMi4wJywgJy1waCcsICc3LjAnLCAnLXRuJywgJzgnLCAnLW1hJywgJzIwMCcsICctaW1hZScsICc8aW5maWxlLm1hZT4nLCAnLW9tYWUnLCAnPG91dGZpbGUubWFlPic=

>  <r_lp_tautomer_probability>  (409) 
1

>  <r_epik_Ionization_Penalty>  (409) 
0.502224

>  <r_epik_Ionization_Penalty_Charging>  (409) 
0.502221

>  <r_epik_Ionization_Penalty_Neutral>  (409) 
2.45668e-06

>  <r_epik_State_Penalty>  (409) 
0.508797

>  <r_epik_Charging_Adjusted_Penalty>  (409) 
1.01102

>  <i_epik_Tot_Q>  (409) 
1

>  <i_epik_Tot_abs_Q>  (409) 
1

>  <s_lp_Force_Field>  (409) 
OPLS3e

>  <r_lp_Energy>  (409) 
22.9712

>  <b_lp_Chiralities_Consistent>  (409) 
1

>  <s_lp_Variant>  (409) 
112:0-2

>  <s_i_glide_gridfile>  (409) 
pfpi4k_grid

>  <i_i_glide_lignum>  (409) 
34

>  <i_i_glide_rotatable_bonds>  (409) 
2

>  <r_i_docking_score>  (409) 
-4.37222

>  <r_i_glide_ligand_efficiency>  (409) 
-0.273264

>  <r_i_glide_ligand_efficiency_sa>  (409) 
-0.688582

>  <r_i_glide_ligand_efficiency_ln>  (409) 
-1.15894

>  <r_i_glide_gscore>  (409) 
-4.37222

>  <r_i_glide_lipo>  (409) 
-0.229302

>  <r_i_glide_hbond>  (409) 
0

>  <r_i_glide_metal>  (409) 
-0

>  <r_i_glide_rewards>  (409) 
-1.8449

>  <r_i_glide_evdw>  (409) 
-19.7949

>  <r_i_glide_ecoul>  (409) 
-9.00908

>  <r_i_glide_erotb>  (409) 
0.308262

>  <r_i_glide_esite>  (409) 
-0.265173

>  <r_i_glide_emodel>  (409) 
-39.137

>  <r_i_glide_energy>  (409) 
-28.804

>  <r_i_glide_einternal>  (409) 
2.95873

>  <r_i_glide_intrahb_reward>  (409) 
-0

>  <i_i_glide_confnum>  (409) 
2

>  <i_i_glide_posenum>  (409) 
10

>  <r_i_glide_eff_state_penalty>  (409) 
0

>  <ligand_id>  (409) 
112

>  <original_smiles>  (409) 
CN(C)C1CCn2c(-c3cscn3)nnc21

>  <smiles>  (409) 
[H]c1nc(-c2nnc3n2C([H])([H])C([H])([H])C3([H])[N+]([H])(C([H])([H])[H])C([H])([H])[H])c([H])s1

$$$$
112:1:1
     RDKit          3D

 30 32  0  0  1  0  0  0  0  0999 V2000
    0.6234  -11.9839    4.5722 C   0  0  0  0  0  0  0  0  0  0  0  0
    0.3996  -10.5663    4.1956 N   0  0  0  0  0  0  0  0  0  0  0  0
    0.7663   -9.6625    5.3129 C   0  0  0  0  0  0  0  0  0  0  0  0
    0.9640  -10.2566    2.8461 C   0  0  2  0  0  0  0  0  0  0  0  0
    2.4989  -10.4670    2.6948 C   0  0  0  0  0  0  0  0  0  0  0  0
    2.8980   -9.4126    1.6416 C   0  0  0  0  0  0  0  0  0  0  0  0
    1.9050   -8.3939    1.8798 N   0  0  0  0  0  0  0  0  0  0  0  0
    1.6946   -7.0831    1.6663 C   0  0  0  0  0  0  0  0  0  0  0  0
    2.6678   -6.1603    1.0354 C   0  0  0  0  0  0  0  0  0  0  0  0
    4.0363   -6.2982    0.8846 C   0  0  0  0  0  0  0  0  0  0  0  0
    4.7698   -4.9534    0.0506 S   0  0  0  0  0  0  0  0  0  0  0  0
    3.1921   -4.2218   -0.0712 C   0  0  0  0  0  0  0  0  0  0  0  0
    2.2176   -4.9501    0.4771 N   0  0  0  0  0  0  0  0  0  0  0  0
    0.4710   -6.7200    2.1278 N   0  0  0  0  0  0  0  0  0  0  0  0
   -0.1086   -7.8638    2.6928 N   0  0  0  0  0  0  0  0  0  0  0  0
    0.8189   -8.8004    2.5217 C   0  0  0  0  0  0  0  0  0  0  0  0
    1.6843  -12.2194    4.7319 H   0  0  0  0  0  0  0  0  0  0  0  0
    0.2145  -12.6721    3.8269 H   0  0  0  0  0  0  0  0  0  0  0  0
    0.1018  -12.1944    5.5087 H   0  0  0  0  0  0  0  0  0  0  0  0
    1.8388   -9.6813    5.5093 H   0  0  0  0  0  0  0  0  0  0  0  0
    0.2584   -9.9919    6.2234 H   0  0  0  0  0  0  0  0  0  0  0  0
    0.4477   -8.6345    5.1410 H   0  0  0  0  0  0  0  0  0  0  0  0
    0.4379  -10.8086    2.0716 H   0  0  0  0  0  0  0  0  0  0  0  0
    3.0105  -10.1725    3.6149 H   0  0  0  0  0  0  0  0  0  0  0  0
    2.8184  -11.4875    2.4772 H   0  0  0  0  0  0  0  0  0  0  0  0
    3.9142   -9.0448    1.7523 H   0  0  0  0  0  0  0  0  0  0  0  0
    2.7482   -9.7972    0.6324 H   0  0  0  0  0  0  0  0  0  0  0  0
    4.6778   -7.1034    1.2079 H   0  0  0  0  0  0  0  0  0  0  0  0
    2.9816   -3.2745   -0.5541 H   0  0  0  0  0  0  0  0  0  0  0  0
   -0.6138  -10.4997    4.1327 H   0  0  0  0  0  0  0  0  0  0  0  0
  1  2  1  0
  1 17  1  0
  1 18  1  0
  1 19  1  0
  2  3  1  0
  2  4  1  0
  2 30  1  0
  3 20  1  0
  3 21  1  0
  3 22  1  0
  4 16  1  0
  4  5  1  0
  4 23  1  6
  5  6  1  0
  5 24  1  0
  5 25  1  0
  6  7  1  0
  6 26  1  0
  6 27  1  0
  7 16  1  0
  7  8  1  0
  8  9  1  0
  8 14  2  0
  9 13  1  0
  9 10  2  0
 10 11  1  0
 10 28  1  0
 11 12  1  0
 12 13  2  0
 12 29  1  0
 14 15  1  0
 15 16  2  0
M  CHG  1   2   1
M  END
>  <i_m_ct_stereo_status>  (410) 
1

>  <s_m_source_file>  (410) 
/var/tmp/pbs.5076255.sched01/tmpxmhsyh4a/135ajud44o5.sdf

>  <i_m_source_file_index>  (410) 
34

>  <i_lp_mmshare_version>  (410) 
48012

>  <i_f3d_flags>  (410) 
0

>  <s_epik_input>  (410) 
W0NIM11OKFtDSDNdKVtDQEhdKFtDSDJdW0NIMl0xKWMobjEyKW5uYzItYzNbY0hdc1tjSF1uMw==

>  <s_epik_cmdline>  (410) 
J2VwaWtfcHl0aG9uJywgJy1waHQnLCAnMi4wJywgJy1waCcsICc3LjAnLCAnLXRuJywgJzgnLCAnLW1hJywgJzIwMCcsICctaW1hZScsICc8aW5maWxlLm1hZT4nLCAnLW9tYWUnLCAnPG91dGZpbGUubWFlPic=

>  <r_lp_tautomer_probability>  (410) 
1

>  <r_epik_Ionization_Penalty>  (410) 
0.502224

>  <r_epik_Ionization_Penalty_Charging>  (410) 
0.502221

>  <r_epik_Ionization_Penalty_Neutral>  (410) 
2.45668e-06

>  <r_epik_State_Penalty>  (410) 
0.508797

>  <r_epik_Charging_Adjusted_Penalty>  (410) 
1.01102

>  <i_epik_Tot_Q>  (410) 
1

>  <i_epik_Tot_abs_Q>  (410) 
1

>  <s_lp_Force_Field>  (410) 
OPLS3e

>  <r_lp_Energy>  (410) 
22.9712

>  <b_lp_Chiralities_Consistent>  (410) 
1

>  <s_lp_Variant>  (410) 
112:0-2

>  <s_i_glide_gridfile>  (410) 
pfpi4k_grid

>  <i_i_glide_lignum>  (410) 
34

>  <i_i_glide_rotatable_bonds>  (410) 
2

>  <r_i_docking_score>  (410) 
-4.29695

>  <r_i_glide_ligand_efficiency>  (410) 
-0.268559

>  <r_i_glide_ligand_efficiency_sa>  (410) 
-0.676727

>  <r_i_glide_ligand_efficiency_ln>  (410) 
-1.13899

>  <r_i_glide_gscore>  (410) 
-4.29695

>  <r_i_glide_lipo>  (410) 
-0.259069

>  <r_i_glide_hbond>  (410) 
-0.175558

>  <r_i_glide_metal>  (410) 
-0

>  <r_i_glide_rewards>  (410) 
-1.79783

>  <r_i_glide_evdw>  (410) 
-21.7735

>  <r_i_glide_ecoul>  (410) 
-6.76873

>  <r_i_glide_erotb>  (410) 
0.308262

>  <r_i_glide_esite>  (410) 
-0.268769

>  <r_i_glide_emodel>  (410) 
-37.9882

>  <r_i_glide_energy>  (410) 
-28.5422

>  <r_i_glide_einternal>  (410) 
3.89368

>  <r_i_glide_intrahb_reward>  (410) 
-0

>  <i_i_glide_confnum>  (410) 
2

>  <i_i_glide_posenum>  (410) 
14

>  <r_i_glide_eff_state_penalty>  (410) 
0

>  <ligand_id>  (410) 
112

>  <original_smiles>  (410) 
CN(C)C1CCn2c(-c3cscn3)nnc21

>  <smiles>  (410) 
[H]c1nc(-c2nnc3n2C([H])([H])C([H])([H])C3([H])[N+]([H])(C([H])([H])[H])C([H])([H])[H])c([H])s1

$$$$
112:1:2
     RDKit          3D

 30 32  0  0  1  0  0  0  0  0999 V2000
   -0.1588   -8.5668    4.8590 C   0  0  0  0  0  0  0  0  0  0  0  0
   -0.4503   -9.3784    3.6507 N   0  0  0  0  0  0  0  0  0  0  0  0
   -1.7759   -9.0463    3.0615 C   0  0  0  0  0  0  0  0  0  0  0  0
    0.6444   -9.4771    2.6303 C   0  0  2  0  0  0  0  0  0  0  0  0
    2.0214  -10.0258    3.1107 C   0  0  0  0  0  0  0  0  0  0  0  0
    3.0245   -9.3037    2.1798 C   0  0  0  0  0  0  0  0  0  0  0  0
    2.3181   -8.0752    1.9055 N   0  0  0  0  0  0  0  0  0  0  0  0
    2.5452   -6.8156    1.4889 C   0  0  0  0  0  0  0  0  0  0  0  0
    3.8746   -6.2436    1.1725 C   0  0  0  0  0  0  0  0  0  0  0  0
    5.1292   -6.7389    1.4790 C   0  0  0  0  0  0  0  0  0  0  0  0
    6.4302   -5.7339    0.8919 S   0  0  0  0  0  0  0  0  0  0  0  0
    5.2221   -4.6449    0.2427 C   0  0  0  0  0  0  0  0  0  0  0  0
    3.9639   -5.0220    0.4789 N   0  0  0  0  0  0  0  0  0  0  0  0
    1.3825   -6.1266    1.4204 N   0  0  0  0  0  0  0  0  0  0  0  0
    0.3690   -6.9855    1.8427 N   0  0  0  0  0  0  0  0  0  0  0  0
    1.0157   -8.1162    2.1205 C   0  0  0  0  0  0  0  0  0  0  0  0
   -0.0189   -7.5138    4.6096 H   0  0  0  0  0  0  0  0  0  0  0  0
    0.7106   -8.9349    5.4057 H   0  0  0  0  0  0  0  0  0  0  0  0
   -1.0015   -8.6479    5.5500 H   0  0  0  0  0  0  0  0  0  0  0  0
   -1.8038   -8.0414    2.6362 H   0  0  0  0  0  0  0  0  0  0  0  0
   -2.5471   -9.0711    3.8308 H   0  0  0  0  0  0  0  0  0  0  0  0
   -2.0504   -9.7631    2.2767 H   0  0  0  0  0  0  0  0  0  0  0  0
    0.3263  -10.0875    1.7893 H   0  0  0  0  0  0  0  0  0  0  0  0
    2.2660   -9.6680    4.1132 H   0  0  0  0  0  0  0  0  0  0  0  0
    2.1159  -11.1120    3.1290 H   0  0  0  0  0  0  0  0  0  0  0  0
    3.9952   -9.1405    2.6407 H   0  0  0  0  0  0  0  0  0  0  0  0
    3.1434   -9.8417    1.2372 H   0  0  0  0  0  0  0  0  0  0  0  0
    5.3868   -7.6398    2.0164 H   0  0  0  0  0  0  0  0  0  0  0  0
    5.4433   -3.7364   -0.3032 H   0  0  0  0  0  0  0  0  0  0  0  0
   -0.5999  -10.3152    4.0106 H   0  0  0  0  0  0  0  0  0  0  0  0
  1  2  1  0
  1 17  1  0
  1 18  1  0
  1 19  1  0
  2  3  1  0
  2  4  1  0
  2 30  1  0
  3 20  1  0
  3 21  1  0
  3 22  1  0
  4 16  1  0
  4  5  1  0
  4 23  1  6
  5  6  1  0
  5 24  1  0
  5 25  1  0
  6  7  1  0
  6 26  1  0
  6 27  1  0
  7 16  1  0
  7  8  1  0
  8  9  1  0
  8 14  2  0
  9 13  1  0
  9 10  2  0
 10 11  1  0
 10 28  1  0
 11 12  1  0
 12 13  2  0
 12 29  1  0
 14 15  1  0
 15 16  2  0
M  CHG  1   2   1
M  END
>  <i_m_ct_stereo_status>  (411) 
1

>  <s_m_source_file>  (411) 
/var/tmp/pbs.5076255.sched01/tmpxmhsyh4a/135ajud44o5.sdf

>  <i_m_source_file_index>  (411) 
34

>  <i_lp_mmshare_version>  (411) 
48012

>  <i_f3d_flags>  (411) 
0

>  <s_epik_input>  (411) 
W0NIM11OKFtDSDNdKVtDQEhdKFtDSDJdW0NIMl0xKWMobjEyKW5uYzItYzNbY0hdc1tjSF1uMw==

>  <s_epik_cmdline>  (411) 
J2VwaWtfcHl0aG9uJywgJy1waHQnLCAnMi4wJywgJy1waCcsICc3LjAnLCAnLXRuJywgJzgnLCAnLW1hJywgJzIwMCcsICctaW1hZScsICc8aW5maWxlLm1hZT4nLCAnLW9tYWUnLCAnPG91dGZpbGUubWFlPic=

>  <r_lp_tautomer_probability>  (411) 
1

>  <r_epik_Ionization_Penalty>  (411) 
0.502224

>  <r_epik_Ionization_Penalty_Charging>  (411) 
0.502221

>  <r_epik_Ionization_Penalty_Neutral>  (411) 
2.45668e-06

>  <r_epik_State_Penalty>  (411) 
0.508797

>  <r_epik_Charging_Adjusted_Penalty>  (411) 
1.01102

>  <i_epik_Tot_Q>  (411) 
1

>  <i_epik_Tot_abs_Q>  (411) 
1

>  <s_lp_Force_Field>  (411) 
OPLS3e

>  <r_lp_Energy>  (411) 
22.9712

>  <b_lp_Chiralities_Consistent>  (411) 
1

>  <s_lp_Variant>  (411) 
112:0-2

>  <s_i_glide_gridfile>  (411) 
pfpi4k_grid

>  <i_i_glide_lignum>  (411) 
34

>  <i_i_glide_rotatable_bonds>  (411) 
2

>  <r_i_docking_score>  (411) 
-4.09489

>  <r_i_glide_ligand_efficiency>  (411) 
-0.255931

>  <r_i_glide_ligand_efficiency_sa>  (411) 
-0.644905

>  <r_i_glide_ligand_efficiency_ln>  (411) 
-1.08543

>  <r_i_glide_gscore>  (411) 
-4.09489

>  <r_i_glide_lipo>  (411) 
-0.333205

>  <r_i_glide_hbond>  (411) 
-0.106726

>  <r_i_glide_metal>  (411) 
-0

>  <r_i_glide_rewards>  (411) 
-1.79783

>  <r_i_glide_evdw>  (411) 
-19.7588

>  <r_i_glide_ecoul>  (411) 
-5.87306

>  <r_i_glide_erotb>  (411) 
0.308262

>  <r_i_glide_esite>  (411) 
-0.296489

>  <r_i_glide_emodel>  (411) 
-34.644

>  <r_i_glide_energy>  (411) 
-25.6318

>  <r_i_glide_einternal>  (411) 
3.64981

>  <r_i_glide_intrahb_reward>  (411) 
-0

>  <i_i_glide_confnum>  (411) 
2

>  <i_i_glide_posenum>  (411) 
28

>  <r_i_glide_eff_state_penalty>  (411) 
0

>  <ligand_id>  (411) 
112

>  <original_smiles>  (411) 
CN(C)C1CCn2c(-c3cscn3)nnc21

>  <smiles>  (411) 
[H]c1nc(-c2nnc3n2C([H])([H])C([H])([H])C3([H])[N+]([H])(C([H])([H])[H])C([H])([H])[H])c([H])s1

$$$$
113:0:0
     RDKit          3D

 31 33  0  0  1  0  0  0  0  0999 V2000
    2.7042   -2.6973   -3.7453 C   0  0  0  0  0  0  0  0  0  0  0  0
    2.6550   -2.2823   -2.3216 N   0  0  2  0  0  0  0  0  0  0  0  0
    3.6376   -1.2147   -1.9904 C   0  0  0  0  0  0  0  0  0  0  0  0
    5.0492   -1.7932   -1.7907 C   0  0  0  0  0  0  0  0  0  0  0  0
    5.0213   -2.8245   -0.7591 N   0  0  0  0  0  0  0  0  0  0  0  0
    5.0163   -2.4339    0.6069 C   0  0  0  0  0  0  0  0  0  0  0  0
    5.4962   -1.2018    0.9149 N   0  0  0  0  0  0  0  0  0  0  0  0
    5.4799   -0.8399    2.2158 C   0  0  0  0  0  0  0  0  0  0  0  0
    5.0087   -1.7036    3.2249 C   0  0  0  0  0  0  0  0  0  0  0  0
    4.5375   -2.9332    2.9362 N   0  0  0  0  0  0  0  0  0  0  0  0
    4.5321   -3.2959    1.6328 C   0  0  0  0  0  0  0  0  0  0  0  0
    3.9750   -4.6263    1.3002 C   0  0  0  0  0  0  0  0  0  0  0  0
    3.3293   -5.3472    2.0593 O   0  0  0  0  0  0  0  0  0  0  0  0
    4.2577   -5.0935   -0.1149 C   0  0  0  0  0  0  0  0  0  0  0  0
    4.1432   -3.9391   -1.1229 C   0  0  1  0  0  0  0  0  0  0  0  0
    2.6933   -3.4298   -1.3740 C   0  0  0  0  0  0  0  0  0  0  0  0
    3.6386   -3.2145   -3.9713 H   0  0  0  0  0  0  0  0  0  0  0  0
    2.6344   -1.8216   -4.3887 H   0  0  0  0  0  0  0  0  0  0  0  0
    1.8788   -3.3671   -3.9871 H   0  0  0  0  0  0  0  0  0  0  0  0
    3.6393   -0.4354   -2.7576 H   0  0  0  0  0  0  0  0  0  0  0  0
    3.3259   -0.7364   -1.0611 H   0  0  0  0  0  0  0  0  0  0  0  0
    5.3739   -2.2749   -2.7186 H   0  0  0  0  0  0  0  0  0  0  0  0
    5.7766   -1.0114   -1.5785 H   0  0  0  0  0  0  0  0  0  0  0  0
    5.8412    0.1470    2.4610 H   0  0  0  0  0  0  0  0  0  0  0  0
    5.0141   -1.4052    4.2628 H   0  0  0  0  0  0  0  0  0  0  0  0
    5.2708   -5.4927   -0.1315 H   0  0  0  0  0  0  0  0  0  0  0  0
    3.6040   -5.9295   -0.3537 H   0  0  0  0  0  0  0  0  0  0  0  0
    4.5236   -4.3327   -2.0710 H   0  0  0  0  0  0  0  0  0  0  0  0
    2.2471   -3.0951   -0.4372 H   0  0  0  0  0  0  0  0  0  0  0  0
    2.0536   -4.2378   -1.7357 H   0  0  0  0  0  0  0  0  0  0  0  0
    1.7541   -1.8425   -2.1415 H   0  0  0  0  0  0  0  0  0  0  0  0
  1  2  1  0
  1 17  1  0
  1 18  1  0
  1 19  1  0
  2 16  1  0
  2  3  1  0
  2 31  1  6
  3  4  1  0
  3 20  1  0
  3 21  1  0
  4  5  1  0
  4 22  1  0
  4 23  1  0
  5 15  1  0
  5  6  1  0
  6 11  2  0
  6  7  1  0
  7  8  2  0
  8  9  1  0
  8 24  1  0
  9 10  2  0
  9 25  1  0
 10 11  1  0
 11 12  1  0
 12 13  2  0
 12 14  1  0
 14 15  1  0
 14 26  1  0
 14 27  1  0
 15 16  1  0
 15 28  1  6
 16 29  1  0
 16 30  1  0
M  CHG  1   2   1
M  END
>  <i_m_ct_stereo_status>  (412) 
1

>  <s_m_source_file>  (412) 
/var/tmp/pbs.5076255.sched01/tmpxmhsyh4a/135ajud44o5.sdf

>  <i_m_source_file_index>  (412) 
35

>  <i_lp_mmshare_version>  (412) 
48012

>  <i_f3d_flags>  (412) 
0

>  <s_epik_input>  (412) 
W0NIMl0xW0NIMl1OKFtDSDNdKVtDSDJdW0NAQEhdMltDSDJdQyg9TyljKGMzTjEyKW5bY0hdW2NIXW4z

>  <s_epik_cmdline>  (412) 
J2VwaWtfcHl0aG9uJywgJy1waHQnLCAnMi4wJywgJy1waCcsICc3LjAnLCAnLXRuJywgJzgnLCAnLW1hJywgJzIwMCcsICctaW1hZScsICc8aW5maWxlLm1hZT4nLCAnLW9tYWUnLCAnPG91dGZpbGUubWFlPic=

>  <r_lp_tautomer_probability>  (412) 
0.99995

>  <r_epik_Ionization_Penalty>  (412) 
0.235693

>  <r_epik_Ionization_Penalty_Charging>  (412) 
0.235693

>  <r_epik_Ionization_Penalty_Neutral>  (412) 
3.24404e-07

>  <r_epik_State_Penalty>  (412) 
0.226499

>  <r_epik_Charging_Adjusted_Penalty>  (412) 
0.462192

>  <i_epik_Tot_Q>  (412) 
1

>  <i_epik_Tot_abs_Q>  (412) 
1

>  <s_lp_Force_Field>  (412) 
OPLS3e

>  <r_lp_Energy>  (412) 
34.8955

>  <b_lp_Chiralities_Consistent>  (412) 
1

>  <s_lp_Variant>  (412) 
113:0-1

>  <s_i_glide_gridfile>  (412) 
pfpi4k_grid

>  <i_i_glide_lignum>  (412) 
35

>  <i_i_glide_rotatable_bonds>  (412) 
0

>  <r_i_docking_score>  (412) 
-4.39224

>  <r_i_glide_ligand_efficiency>  (412) 
-0.274515

>  <r_i_glide_ligand_efficiency_sa>  (412) 
-0.691735

>  <r_i_glide_ligand_efficiency_ln>  (412) 
-1.16425

>  <r_i_glide_gscore>  (412) 
-4.39224

>  <r_i_glide_lipo>  (412) 
-0.514358

>  <r_i_glide_hbond>  (412) 
-0.180371

>  <r_i_glide_metal>  (412) 
-0

>  <r_i_glide_rewards>  (412) 
-1.93917

>  <r_i_glide_evdw>  (412) 
-18.1357

>  <r_i_glide_ecoul>  (412) 
-5.23356

>  <r_i_glide_erotb>  (412) 
0

>  <r_i_glide_esite>  (412) 
-0.0665207

>  <r_i_glide_emodel>  (412) 
-31.3965

>  <r_i_glide_energy>  (412) 
-23.3693

>  <r_i_glide_einternal>  (412) 
0

>  <r_i_glide_intrahb_reward>  (412) 
-0

>  <i_i_glide_confnum>  (412) 
1

>  <i_i_glide_posenum>  (412) 
11

>  <r_i_glide_eff_state_penalty>  (412) 
0

>  <ligand_id>  (412) 
113

>  <original_smiles>  (412) 
CN1CCN2c3nccnc3C(=O)CC2C1

>  <smiles>  (412) 
[H]c1nc2c(nc1[H])N1C([H])([H])C([H])([H])[N+]([H])(C([H])([H])[H])C([H])([H])C1([H])C([H])([H])C2=O

$$$$
113:0:1
     RDKit          3D

 31 33  0  0  1  0  0  0  0  0999 V2000
    2.4882    0.5171    1.5145 C   0  0  0  0  0  0  0  0  0  0  0  0
    1.2118    0.9660    2.1145 N   0  0  2  0  0  0  0  0  0  0  0  0
    1.3403    2.2529    2.8572 C   0  0  0  0  0  0  0  0  0  0  0  0
    1.9620    2.0348    4.2489 C   0  0  0  0  0  0  0  0  0  0  0  0
    1.1736    1.0579    4.9942 N   0  0  0  0  0  0  0  0  0  0  0  0
   -0.0208    1.4812    5.6321 C   0  0  0  0  0  0  0  0  0  0  0  0
   -0.1536    2.8035    5.9229 N   0  0  0  0  0  0  0  0  0  0  0  0
   -1.2917    3.1920    6.5310 C   0  0  0  0  0  0  0  0  0  0  0  0
   -2.2998    2.2696    6.8864 C   0  0  0  0  0  0  0  0  0  0  0  0
   -2.1818    0.9510    6.6263 N   0  0  0  0  0  0  0  0  0  0  0  0
   -1.0531    0.5618    5.9834 C   0  0  0  0  0  0  0  0  0  0  0  0
   -0.9285   -0.8731    5.6279 C   0  0  0  0  0  0  0  0  0  0  0  0
   -1.8384   -1.7005    5.6810 O   0  0  0  0  0  0  0  0  0  0  0  0
    0.4608   -1.3100    5.2051 C   0  0  0  0  0  0  0  0  0  0  0  0
    1.1377   -0.2485    4.3295 C   0  0  1  0  0  0  0  0  0  0  0  0
    0.5401   -0.1062    2.9038 C   0  0  0  0  0  0  0  0  0  0  0  0
    3.2190    0.2355    2.2733 H   0  0  0  0  0  0  0  0  0  0  0  0
    2.9239    1.3148    0.9162 H   0  0  0  0  0  0  0  0  0  0  0  0
    2.3189   -0.3425    0.8643 H   0  0  0  0  0  0  0  0  0  0  0  0
    1.9229    2.9757    2.2782 H   0  0  0  0  0  0  0  0  0  0  0  0
    0.3486    2.6885    2.9802 H   0  0  0  0  0  0  0  0  0  0  0  0
    2.9671    1.6126    4.1361 H   0  0  0  0  0  0  0  0  0  0  0  0
    2.0891    2.9671    4.7928 H   0  0  0  0  0  0  0  0  0  0  0  0
   -1.4078    4.2456    6.7303 H   0  0  0  0  0  0  0  0  0  0  0  0
   -3.2119    2.5950    7.3651 H   0  0  0  0  0  0  0  0  0  0  0  0
    1.0359   -1.4549    6.1194 H   0  0  0  0  0  0  0  0  0  0  0  0
    0.4184   -2.2865    4.7287 H   0  0  0  0  0  0  0  0  0  0  0  0
    2.1774   -0.5750    4.2244 H   0  0  0  0  0  0  0  0  0  0  0  0
   -0.5188    0.1415    2.9650 H   0  0  0  0  0  0  0  0  0  0  0  0
    0.6086   -1.0604    2.3733 H   0  0  0  0  0  0  0  0  0  0  0  0
    0.6016    1.1600    1.3274 H   0  0  0  0  0  0  0  0  0  0  0  0
  1  2  1  0
  1 17  1  0
  1 18  1  0
  1 19  1  0
  2 16  1  0
  2  3  1  0
  2 31  1  6
  3  4  1  0
  3 20  1  0
  3 21  1  0
  4  5  1  0
  4 22  1  0
  4 23  1  0
  5 15  1  0
  5  6  1  0
  6 11  2  0
  6  7  1  0
  7  8  2  0
  8  9  1  0
  8 24  1  0
  9 10  2  0
  9 25  1  0
 10 11  1  0
 11 12  1  0
 12 13  2  0
 12 14  1  0
 14 15  1  0
 14 26  1  0
 14 27  1  0
 15 16  1  0
 15 28  1  6
 16 29  1  0
 16 30  1  0
M  CHG  1   2   1
M  END
>  <i_m_ct_stereo_status>  (413) 
1

>  <s_m_source_file>  (413) 
/var/tmp/pbs.5076255.sched01/tmpxmhsyh4a/135ajud44o5.sdf

>  <i_m_source_file_index>  (413) 
35

>  <i_lp_mmshare_version>  (413) 
48012

>  <i_f3d_flags>  (413) 
0

>  <s_epik_input>  (413) 
W0NIMl0xW0NIMl1OKFtDSDNdKVtDSDJdW0NAQEhdMltDSDJdQyg9TyljKGMzTjEyKW5bY0hdW2NIXW4z

>  <s_epik_cmdline>  (413) 
J2VwaWtfcHl0aG9uJywgJy1waHQnLCAnMi4wJywgJy1waCcsICc3LjAnLCAnLXRuJywgJzgnLCAnLW1hJywgJzIwMCcsICctaW1hZScsICc8aW5maWxlLm1hZT4nLCAnLW9tYWUnLCAnPG91dGZpbGUubWFlPic=

>  <r_lp_tautomer_probability>  (413) 
0.99995

>  <r_epik_Ionization_Penalty>  (413) 
0.235693

>  <r_epik_Ionization_Penalty_Charging>  (413) 
0.235693

>  <r_epik_Ionization_Penalty_Neutral>  (413) 
3.24404e-07

>  <r_epik_State_Penalty>  (413) 
0.226499

>  <r_epik_Charging_Adjusted_Penalty>  (413) 
0.462192

>  <i_epik_Tot_Q>  (413) 
1

>  <i_epik_Tot_abs_Q>  (413) 
1

>  <s_lp_Force_Field>  (413) 
OPLS3e

>  <r_lp_Energy>  (413) 
34.8955

>  <b_lp_Chiralities_Consistent>  (413) 
1

>  <s_lp_Variant>  (413) 
113:0-1

>  <s_i_glide_gridfile>  (413) 
pfpi4k_grid

>  <i_i_glide_lignum>  (413) 
35

>  <i_i_glide_rotatable_bonds>  (413) 
0

>  <r_i_docking_score>  (413) 
-4.06553

>  <r_i_glide_ligand_efficiency>  (413) 
-0.254095

>  <r_i_glide_ligand_efficiency_sa>  (413) 
-0.64028

>  <r_i_glide_ligand_efficiency_ln>  (413) 
-1.07765

>  <r_i_glide_gscore>  (413) 
-4.06553

>  <r_i_glide_lipo>  (413) 
-0.0593375

>  <r_i_glide_hbond>  (413) 
-0.16

>  <r_i_glide_metal>  (413) 
-0

>  <r_i_glide_rewards>  (413) 
-1.91412

>  <r_i_glide_evdw>  (413) 
-14.3491

>  <r_i_glide_ecoul>  (413) 
-7.47214

>  <r_i_glide_erotb>  (413) 
0

>  <r_i_glide_esite>  (413) 
-0.0937991

>  <r_i_glide_emodel>  (413) 
-29.2853

>  <r_i_glide_energy>  (413) 
-21.8212

>  <r_i_glide_einternal>  (413) 
0

>  <r_i_glide_intrahb_reward>  (413) 
-0

>  <i_i_glide_confnum>  (413) 
2

>  <i_i_glide_posenum>  (413) 
6

>  <r_i_glide_eff_state_penalty>  (413) 
0

>  <ligand_id>  (413) 
113

>  <original_smiles>  (413) 
CN1CCN2c3nccnc3C(=O)CC2C1

>  <smiles>  (413) 
[H]c1nc2c(nc1[H])N1C([H])([H])C([H])([H])[N+]([H])(C([H])([H])[H])C([H])([H])C1([H])C([H])([H])C2=O

$$$$
113:0:2
     RDKit          3D

 31 33  0  0  1  0  0  0  0  0999 V2000
    3.0506   -2.8883   -4.0157 C   0  0  0  0  0  0  0  0  0  0  0  0
    2.6573   -2.3521   -2.6953 N   0  0  2  0  0  0  0  0  0  0  0  0
    3.5437   -1.2483   -2.2303 C   0  0  0  0  0  0  0  0  0  0  0  0
    4.8542   -1.7962   -1.6437 C   0  0  0  0  0  0  0  0  0  0  0  0
    4.5571   -2.7383   -0.5692 N   0  0  0  0  0  0  0  0  0  0  0  0
    4.2216   -2.2300    0.7148 C   0  0  0  0  0  0  0  0  0  0  0  0
    4.6347   -0.9729    1.0269 N   0  0  0  0  0  0  0  0  0  0  0  0
    4.3090   -0.5006    2.2487 C   0  0  0  0  0  0  0  0  0  0  0  0
    3.5904   -1.2772    3.1799 C   0  0  0  0  0  0  0  0  0  0  0  0
    3.1810   -2.5286    2.8893 N   0  0  0  0  0  0  0  0  0  0  0  0
    3.4868   -3.0038    1.6595 C   0  0  0  0  0  0  0  0  0  0  0  0
    3.0130   -4.3662    1.3154 C   0  0  0  0  0  0  0  0  0  0  0  0
    2.1941   -5.0289    1.9521 O   0  0  0  0  0  0  0  0  0  0  0  0
    3.6259   -4.9501    0.0543 C   0  0  0  0  0  0  0  0  0  0  0  0
    3.7828   -3.8895   -1.0408 C   0  0  1  0  0  0  0  0  0  0  0  0
    2.4454   -3.4241   -1.6783 C   0  0  0  0  0  0  0  0  0  0  0  0
    4.0023   -3.4194   -3.9696 H   0  0  0  0  0  0  0  0  0  0  0  0
    3.1528   -2.0598   -4.7135 H   0  0  0  0  0  0  0  0  0  0  0  0
    2.2878   -3.5711   -4.3938 H   0  0  0  0  0  0  0  0  0  0  0  0
    3.7448   -0.5398   -3.0383 H   0  0  0  0  0  0  0  0  0  0  0  0
    3.0176   -0.6944   -1.4551 H   0  0  0  0  0  0  0  0  0  0  0  0
    5.3900   -2.3561   -2.4196 H   0  0  0  0  0  0  0  0  0  0  0  0
    5.5220   -0.9982   -1.3246 H   0  0  0  0  0  0  0  0  0  0  0  0
    4.6116    0.5078    2.4864 H   0  0  0  0  0  0  0  0  0  0  0  0
    3.3451   -0.8903    4.1579 H   0  0  0  0  0  0  0  0  0  0  0  0
    4.6051   -5.3434    0.3248 H   0  0  0  0  0  0  0  0  0  0  0  0
    3.0414   -5.8038   -0.2836 H   0  0  0  0  0  0  0  0  0  0  0  0
    4.3769   -4.3565   -1.8328 H   0  0  0  0  0  0  0  0  0  0  0  0
    1.7944   -3.0463   -0.8954 H   0  0  0  0  0  0  0  0  0  0  0  0
    1.8907   -4.2559   -2.1225 H   0  0  0  0  0  0  0  0  0  0  0  0
    1.7505   -1.9168   -2.8171 H   0  0  0  0  0  0  0  0  0  0  0  0
  1  2  1  0
  1 17  1  0
  1 18  1  0
  1 19  1  0
  2 16  1  0
  2  3  1  0
  2 31  1  6
  3  4  1  0
  3 20  1  0
  3 21  1  0
  4  5  1  0
  4 22  1  0
  4 23  1  0
  5 15  1  0
  5  6  1  0
  6 11  2  0
  6  7  1  0
  7  8  2  0
  8  9  1  0
  8 24  1  0
  9 10  2  0
  9 25  1  0
 10 11  1  0
 11 12  1  0
 12 13  2  0
 12 14  1  0
 14 15  1  0
 14 26  1  0
 14 27  1  0
 15 16  1  0
 15 28  1  6
 16 29  1  0
 16 30  1  0
M  CHG  1   2   1
M  END
>  <i_m_ct_stereo_status>  (414) 
1

>  <s_m_source_file>  (414) 
/var/tmp/pbs.5076255.sched01/tmpxmhsyh4a/135ajud44o5.sdf

>  <i_m_source_file_index>  (414) 
35

>  <i_lp_mmshare_version>  (414) 
48012

>  <i_f3d_flags>  (414) 
0

>  <s_epik_input>  (414) 
W0NIMl0xW0NIMl1OKFtDSDNdKVtDSDJdW0NAQEhdMltDSDJdQyg9TyljKGMzTjEyKW5bY0hdW2NIXW4z

>  <s_epik_cmdline>  (414) 
J2VwaWtfcHl0aG9uJywgJy1waHQnLCAnMi4wJywgJy1waCcsICc3LjAnLCAnLXRuJywgJzgnLCAnLW1hJywgJzIwMCcsICctaW1hZScsICc8aW5maWxlLm1hZT4nLCAnLW9tYWUnLCAnPG91dGZpbGUubWFlPic=

>  <r_lp_tautomer_probability>  (414) 
0.99995

>  <r_epik_Ionization_Penalty>  (414) 
0.235693

>  <r_epik_Ionization_Penalty_Charging>  (414) 
0.235693

>  <r_epik_Ionization_Penalty_Neutral>  (414) 
3.24404e-07

>  <r_epik_State_Penalty>  (414) 
0.226499

>  <r_epik_Charging_Adjusted_Penalty>  (414) 
0.462192

>  <i_epik_Tot_Q>  (414) 
1

>  <i_epik_Tot_abs_Q>  (414) 
1

>  <s_lp_Force_Field>  (414) 
OPLS3e

>  <r_lp_Energy>  (414) 
34.8955

>  <b_lp_Chiralities_Consistent>  (414) 
1

>  <s_lp_Variant>  (414) 
113:0-1

>  <s_i_glide_gridfile>  (414) 
pfpi4k_grid

>  <i_i_glide_lignum>  (414) 
35

>  <i_i_glide_rotatable_bonds>  (414) 
0

>  <r_i_docking_score>  (414) 
-3.73453

>  <r_i_glide_ligand_efficiency>  (414) 
-0.233408

>  <r_i_glide_ligand_efficiency_sa>  (414) 
-0.588151

>  <r_i_glide_ligand_efficiency_ln>  (414) 
-0.989911

>  <r_i_glide_gscore>  (414) 
-3.73453

>  <r_i_glide_lipo>  (414) 
-0.275492

>  <r_i_glide_hbond>  (414) 
-0.00761182

>  <r_i_glide_metal>  (414) 
-0

>  <r_i_glide_rewards>  (414) 
-1.91412

>  <r_i_glide_evdw>  (414) 
-17.7327

>  <r_i_glide_ecoul>  (414) 
-3.97776

>  <r_i_glide_erotb>  (414) 
0

>  <r_i_glide_esite>  (414) 
-0.054008

>  <r_i_glide_emodel>  (414) 
-28.5251

>  <r_i_glide_energy>  (414) 
-21.7105

>  <r_i_glide_einternal>  (414) 
0

>  <r_i_glide_intrahb_reward>  (414) 
-0

>  <i_i_glide_confnum>  (414) 
1

>  <i_i_glide_posenum>  (414) 
13

>  <r_i_glide_eff_state_penalty>  (414) 
0

>  <ligand_id>  (414) 
113

>  <original_smiles>  (414) 
CN1CCN2c3nccnc3C(=O)CC2C1

>  <smiles>  (414) 
[H]c1nc2c(nc1[H])N1C([H])([H])C([H])([H])[N+]([H])(C([H])([H])[H])C([H])([H])C1([H])C([H])([H])C2=O

$$$$
113:1:0
     RDKit          3D

 30 32  0  0  1  0  0  0  0  0999 V2000
    3.7323    0.1899    2.7735 C   0  0  0  0  0  0  0  0  0  0  0  0
    3.8671   -1.2331    2.4970 N   0  0  0  0  0  0  0  0  0  0  0  0
    2.6608   -1.7141    1.8129 C   0  0  0  0  0  0  0  0  0  0  0  0
    2.8044   -3.2209    1.5315 C   0  0  0  0  0  0  0  0  0  0  0  0
    3.9608   -3.4626    0.6759 N   0  0  0  0  0  0  0  0  0  0  0  0
    3.8512   -3.2346   -0.7200 C   0  0  0  0  0  0  0  0  0  0  0  0
    2.6181   -3.3199   -1.2776 N   0  0  0  0  0  0  0  0  0  0  0  0
    2.5114   -3.0617   -2.6001 C   0  0  0  0  0  0  0  0  0  0  0  0
    3.6391   -2.7705   -3.3924 C   0  0  0  0  0  0  0  0  0  0  0  0
    4.8783   -2.6995   -2.8596 N   0  0  0  0  0  0  0  0  0  0  0  0
    4.9828   -2.9177   -1.5231 C   0  0  0  0  0  0  0  0  0  0  0  0
    6.3278   -2.7970   -0.9144 C   0  0  0  0  0  0  0  0  0  0  0  0
    7.3140   -2.2948   -1.4555 O   0  0  0  0  0  0  0  0  0  0  0  0
    6.4337   -3.3380    0.5039 C   0  0  0  0  0  0  0  0  0  0  0  0
    5.1801   -2.9840    1.3269 C   0  0  1  0  0  0  0  0  0  0  0  0
    5.0500   -1.4677    1.6576 C   0  0  0  0  0  0  0  0  0  0  0  0
    2.8678    0.3723    3.4133 H   0  0  0  0  0  0  0  0  0  0  0  0
    3.6038    0.7699    1.8571 H   0  0  0  0  0  0  0  0  0  0  0  0
    4.6149    0.5611    3.2958 H   0  0  0  0  0  0  0  0  0  0  0  0
    1.7891   -1.5386    2.4450 H   0  0  0  0  0  0  0  0  0  0  0  0
    2.4950   -1.1683    0.8824 H   0  0  0  0  0  0  0  0  0  0  0  0
    2.9672   -3.7446    2.4733 H   0  0  0  0  0  0  0  0  0  0  0  0
    1.8967   -3.6396    1.1083 H   0  0  0  0  0  0  0  0  0  0  0  0
    1.5169   -3.0971   -3.0262 H   0  0  0  0  0  0  0  0  0  0  0  0
    3.5381   -2.6023   -4.4556 H   0  0  0  0  0  0  0  0  0  0  0  0
    6.5448   -4.4207    0.4382 H   0  0  0  0  0  0  0  0  0  0  0  0
    7.3417   -2.9641    0.9725 H   0  0  0  0  0  0  0  0  0  0  0  0
    5.2645   -3.5191    2.2748 H   0  0  0  0  0  0  0  0  0  0  0  0
    4.9843   -0.8722    0.7439 H   0  0  0  0  0  0  0  0  0  0  0  0
    5.9451   -1.1363    2.1909 H   0  0  0  0  0  0  0  0  0  0  0  0
  1  2  1  0
  1 17  1  0
  1 18  1  0
  1 19  1  0
  2 16  1  0
  2  3  1  0
  3  4  1  0
  3 20  1  0
  3 21  1  0
  4  5  1  0
  4 22  1  0
  4 23  1  0
  5 15  1  0
  5  6  1  0
  6 11  2  0
  6  7  1  0
  7  8  2  0
  8  9  1  0
  8 24  1  0
  9 10  2  0
  9 25  1  0
 10 11  1  0
 11 12  1  0
 12 13  2  0
 12 14  1  0
 14 15  1  0
 14 26  1  0
 14 27  1  0
 15 16  1  0
 15 28  1  1
 16 29  1  0
 16 30  1  0
M  END
>  <i_m_ct_stereo_status>  (415) 
1

>  <s_m_source_file>  (415) 
/var/tmp/pbs.5076255.sched01/tmpxmhsyh4a/135ajud44o5.sdf

>  <i_m_source_file_index>  (415) 
36

>  <i_lp_mmshare_version>  (415) 
48012

>  <i_f3d_flags>  (415) 
0

>  <s_epik_input>  (415) 
W0NIMl0xW0NIMl1OKFtDSDNdKVtDSDJdW0NAQEhdMltDSDJdQyg9TyljKGMzTjEyKW5bY0hdW2NIXW4z

>  <s_epik_cmdline>  (415) 
J2VwaWtfcHl0aG9uJywgJy1waHQnLCAnMi4wJywgJy1waCcsICc3LjAnLCAnLXRuJywgJzgnLCAnLW1hJywgJzIwMCcsICctaW1hZScsICc8aW5maWxlLm1hZT4nLCAnLW9tYWUnLCAnPG91dGZpbGUubWFlPic=

>  <r_lp_tautomer_probability>  (415) 
0.99995

>  <r_epik_Ionization_Penalty>  (415) 
0.660146

>  <r_epik_Ionization_Penalty_Charging>  (415) 
0

>  <r_epik_Ionization_Penalty_Neutral>  (415) 
0.660146

>  <r_epik_State_Penalty>  (415) 
0.679372

>  <r_epik_Charging_Adjusted_Penalty>  (415) 
0.679372

>  <i_epik_Tot_Q>  (415) 
0

>  <i_epik_Tot_abs_Q>  (415) 
0

>  <s_lp_Force_Field>  (415) 
OPLS3e

>  <r_lp_Energy>  (415) 
29.6121

>  <b_lp_Chiralities_Consistent>  (415) 
1

>  <s_lp_Variant>  (415) 
113:0-2

>  <s_i_glide_gridfile>  (415) 
pfpi4k_grid

>  <i_i_glide_lignum>  (415) 
36

>  <i_i_glide_rotatable_bonds>  (415) 
0

>  <r_i_docking_score>  (415) 
-4.00604

>  <r_i_glide_ligand_efficiency>  (415) 
-0.250378

>  <r_i_glide_ligand_efficiency_sa>  (415) 
-0.630912

>  <r_i_glide_ligand_efficiency_ln>  (415) 
-1.06188

>  <r_i_glide_gscore>  (415) 
-4.00604

>  <r_i_glide_lipo>  (415) 
-0.454691

>  <r_i_glide_hbond>  (415) 
-0.16

>  <r_i_glide_metal>  (415) 
-0

>  <r_i_glide_rewards>  (415) 
-1.93638

>  <r_i_glide_evdw>  (415) 
-20.4755

>  <r_i_glide_ecoul>  (415) 
-2.84658

>  <r_i_glide_erotb>  (415) 
0

>  <r_i_glide_esite>  (415) 
-0.00421664

>  <r_i_glide_emodel>  (415) 
-29.2368

>  <r_i_glide_energy>  (415) 
-23.3221

>  <r_i_glide_einternal>  (415) 
0

>  <r_i_glide_intrahb_reward>  (415) 
-0

>  <i_i_glide_confnum>  (415) 
1

>  <i_i_glide_posenum>  (415) 
5

>  <r_i_glide_eff_state_penalty>  (415) 
0

>  <ligand_id>  (415) 
113

>  <original_smiles>  (415) 
CN1CCN2c3nccnc3C(=O)CC2C1

>  <smiles>  (415) 
[H]c1nc2c(nc1[H])N1C([H])([H])C([H])([H])N(C([H])([H])[H])C([H])([H])C1([H])C([H])([H])C2=O

$$$$
113:1:1
     RDKit          3D

 30 32  0  0  1  0  0  0  0  0999 V2000
    2.8196   -3.5173   -3.6156 C   0  0  0  0  0  0  0  0  0  0  0  0
    3.9222   -2.6513   -3.2185 N   0  0  0  0  0  0  0  0  0  0  0  0
    3.3607   -1.4389   -2.6208 C   0  0  0  0  0  0  0  0  0  0  0  0
    4.5254   -0.5207   -2.2243 C   0  0  0  0  0  0  0  0  0  0  0  0
    5.3767   -1.1684   -1.2372 N   0  0  0  0  0  0  0  0  0  0  0  0
    4.9497   -1.2143    0.1198 C   0  0  0  0  0  0  0  0  0  0  0  0
    4.1056   -0.2479    0.5533 N   0  0  0  0  0  0  0  0  0  0  0  0
    3.7064   -0.2875    1.8422 C   0  0  0  0  0  0  0  0  0  0  0  0
    4.1629   -1.2868    2.7268 C   0  0  0  0  0  0  0  0  0  0  0  0
    5.0068   -2.2510    2.3192 N   0  0  0  0  0  0  0  0  0  0  0  0
    5.3951   -2.2241    1.0210 C   0  0  0  0  0  0  0  0  0  0  0  0
    6.3019   -3.2965    0.5519 C   0  0  0  0  0  0  0  0  0  0  0  0
    6.5732   -4.3294    1.1623 O   0  0  0  0  0  0  0  0  0  0  0  0
    6.9329   -3.0296   -0.8061 C   0  0  0  0  0  0  0  0  0  0  0  0
    5.9225   -2.4075   -1.7785 C   0  0  1  0  0  0  0  0  0  0  0  0
    4.7728   -3.3471   -2.2412 C   0  0  0  0  0  0  0  0  0  0  0  0
    2.1702   -3.0319   -4.3393 H   0  0  0  0  0  0  0  0  0  0  0  0
    2.2126   -3.8133   -2.7582 H   0  0  0  0  0  0  0  0  0  0  0  0
    3.2199   -4.4154   -4.0814 H   0  0  0  0  0  0  0  0  0  0  0  0
    2.7316   -0.9266   -3.3492 H   0  0  0  0  0  0  0  0  0  0  0  0
    2.7396   -1.6702   -1.7530 H   0  0  0  0  0  0  0  0  0  0  0  0
    5.0904   -0.3345   -3.1189 H   0  0  0  0  0  0  0  0  0  0  0  0
    4.2162    0.4622   -1.9200 H   0  0  0  0  0  0  0  0  0  0  0  0
    3.0138    0.4766    2.1665 H   0  0  0  0  0  0  0  0  0  0  0  0
    3.8409   -1.3068    3.7589 H   0  0  0  0  0  0  0  0  0  0  0  0
    7.7800   -2.3591   -0.6503 H   0  0  0  0  0  0  0  0  0  0  0  0
    7.3534   -3.9385   -1.2013 H   0  0  0  0  0  0  0  0  0  0  0  0
    6.4918   -2.1955   -2.6806 H   0  0  0  0  0  0  0  0  0  0  0  0
    4.1757   -3.6827   -1.3873 H   0  0  0  0  0  0  0  0  0  0  0  0
    5.1997   -4.2400   -2.7013 H   0  0  0  0  0  0  0  0  0  0  0  0
  1  2  1  0
  1 17  1  0
  1 18  1  0
  1 19  1  0
  2 16  1  0
  2  3  1  0
  3  4  1  0
  3 20  1  0
  3 21  1  0
  4  5  1  0
  4 22  1  0
  4 23  1  0
  5 15  1  0
  5  6  1  0
  6 11  2  0
  6  7  1  0
  7  8  2  0
  8  9  1  0
  8 24  1  0
  9 10  2  0
  9 25  1  0
 10 11  1  0
 11 12  1  0
 12 13  2  0
 12 14  1  0
 14 15  1  0
 14 26  1  0
 14 27  1  0
 15 16  1  0
 15 28  1  6
 16 29  1  0
 16 30  1  0
M  END
>  <i_m_ct_stereo_status>  (416) 
1

>  <s_m_source_file>  (416) 
/var/tmp/pbs.5076255.sched01/tmpxmhsyh4a/135ajud44o5.sdf

>  <i_m_source_file_index>  (416) 
36

>  <i_lp_mmshare_version>  (416) 
48012

>  <i_f3d_flags>  (416) 
0

>  <s_epik_input>  (416) 
W0NIMl0xW0NIMl1OKFtDSDNdKVtDSDJdW0NAQEhdMltDSDJdQyg9TyljKGMzTjEyKW5bY0hdW2NIXW4z

>  <s_epik_cmdline>  (416) 
J2VwaWtfcHl0aG9uJywgJy1waHQnLCAnMi4wJywgJy1waCcsICc3LjAnLCAnLXRuJywgJzgnLCAnLW1hJywgJzIwMCcsICctaW1hZScsICc8aW5maWxlLm1hZT4nLCAnLW9tYWUnLCAnPG91dGZpbGUubWFlPic=

>  <r_lp_tautomer_probability>  (416) 
0.99995

>  <r_epik_Ionization_Penalty>  (416) 
0.660146

>  <r_epik_Ionization_Penalty_Charging>  (416) 
0

>  <r_epik_Ionization_Penalty_Neutral>  (416) 
0.660146

>  <r_epik_State_Penalty>  (416) 
0.679372

>  <r_epik_Charging_Adjusted_Penalty>  (416) 
0.679372

>  <i_epik_Tot_Q>  (416) 
0

>  <i_epik_Tot_abs_Q>  (416) 
0

>  <s_lp_Force_Field>  (416) 
OPLS3e

>  <r_lp_Energy>  (416) 
29.6121

>  <b_lp_Chiralities_Consistent>  (416) 
1

>  <s_lp_Variant>  (416) 
113:0-2

>  <s_i_glide_gridfile>  (416) 
pfpi4k_grid

>  <i_i_glide_lignum>  (416) 
36

>  <i_i_glide_rotatable_bonds>  (416) 
0

>  <r_i_docking_score>  (416) 
-3.84377

>  <r_i_glide_ligand_efficiency>  (416) 
-0.240236

>  <r_i_glide_ligand_efficiency_sa>  (416) 
-0.605356

>  <r_i_glide_ligand_efficiency_ln>  (416) 
-1.01887

>  <r_i_glide_gscore>  (416) 
-3.84377

>  <r_i_glide_lipo>  (416) 
-0.407757

>  <r_i_glide_hbond>  (416) 
0

>  <r_i_glide_metal>  (416) 
-0

>  <r_i_glide_rewards>  (416) 
-2.03354

>  <r_i_glide_evdw>  (416) 
-18.954

>  <r_i_glide_ecoul>  (416) 
-2.66493

>  <r_i_glide_erotb>  (416) 
0

>  <r_i_glide_esite>  (416) 
-0.0550326

>  <r_i_glide_emodel>  (416) 
-27.1555

>  <r_i_glide_energy>  (416) 
-21.6189

>  <r_i_glide_einternal>  (416) 
0

>  <r_i_glide_intrahb_reward>  (416) 
-0

>  <i_i_glide_confnum>  (416) 
2

>  <i_i_glide_posenum>  (416) 
22

>  <r_i_glide_eff_state_penalty>  (416) 
0

>  <ligand_id>  (416) 
113

>  <original_smiles>  (416) 
CN1CCN2c3nccnc3C(=O)CC2C1

>  <smiles>  (416) 
[H]c1nc2c(nc1[H])N1C([H])([H])C([H])([H])N(C([H])([H])[H])C([H])([H])C1([H])C([H])([H])C2=O

$$$$
113:1:2
     RDKit          3D

 30 32  0  0  1  0  0  0  0  0999 V2000
    3.2167   -2.0555   -4.2767 C   0  0  0  0  0  0  0  0  0  0  0  0
    4.2121   -2.2153   -3.2293 N   0  0  0  0  0  0  0  0  0  0  0  0
    4.2972   -0.9761   -2.4513 C   0  0  0  0  0  0  0  0  0  0  0  0
    5.3405   -1.1662   -1.3384 C   0  0  0  0  0  0  0  0  0  0  0  0
    4.9395   -2.2401   -0.4436 N   0  0  0  0  0  0  0  0  0  0  0  0
    3.9510   -1.9789    0.5379 C   0  0  0  0  0  0  0  0  0  0  0  0
    3.8126   -0.7027    0.9765 N   0  0  0  0  0  0  0  0  0  0  0  0
    2.8664   -0.4613    1.9110 C   0  0  0  0  0  0  0  0  0  0  0  0
    2.0737   -1.4997    2.4430 C   0  0  0  0  0  0  0  0  0  0  0  0
    2.2137   -2.7798    2.0372 N   0  0  0  0  0  0  0  0  0  0  0  0
    3.1361   -3.0197    1.0733 C   0  0  0  0  0  0  0  0  0  0  0  0
    3.2653   -4.4135    0.5829 C   0  0  0  0  0  0  0  0  0  0  0  0
    2.4656   -5.3220    0.8096 O   0  0  0  0  0  0  0  0  0  0  0  0
    4.5121   -4.6801   -0.2477 C   0  0  0  0  0  0  0  0  0  0  0  0
    4.8214   -3.4955   -1.1859 C   0  0  1  0  0  0  0  0  0  0  0  0
    3.8081   -3.3242   -2.3534 C   0  0  0  0  0  0  0  0  0  0  0  0
    3.5047   -1.2499   -4.9554 H   0  0  0  0  0  0  0  0  0  0  0  0
    2.2309   -1.8204   -3.8697 H   0  0  0  0  0  0  0  0  0  0  0  0
    3.1261   -2.9809   -4.8467 H   0  0  0  0  0  0  0  0  0  0  0  0
    4.6000   -0.1579   -3.1063 H   0  0  0  0  0  0  0  0  0  0  0  0
    3.3270   -0.7141   -2.0258 H   0  0  0  0  0  0  0  0  0  0  0  0
    6.2905   -1.4492   -1.7859 H   0  0  0  0  0  0  0  0  0  0  0  0
    5.5185   -0.2528   -0.7774 H   0  0  0  0  0  0  0  0  0  0  0  0
    2.7312    0.5672    2.2240 H   0  0  0  0  0  0  0  0  0  0  0  0
    1.3213   -1.2998    3.1910 H   0  0  0  0  0  0  0  0  0  0  0  0
    5.3372   -4.8292    0.4482 H   0  0  0  0  0  0  0  0  0  0  0  0
    4.4017   -5.6146   -0.7926 H   0  0  0  0  0  0  0  0  0  0  0  0
    5.7973   -3.6966   -1.6340 H   0  0  0  0  0  0  0  0  0  0  0  0
    2.7986   -3.1577   -1.9704 H   0  0  0  0  0  0  0  0  0  0  0  0
    3.7954   -4.2432   -2.9397 H   0  0  0  0  0  0  0  0  0  0  0  0
  1  2  1  0
  1 17  1  0
  1 18  1  0
  1 19  1  0
  2 16  1  0
  2  3  1  0
  3  4  1  0
  3 20  1  0
  3 21  1  0
  4  5  1  0
  4 22  1  0
  4 23  1  0
  5 15  1  0
  5  6  1  0
  6 11  2  0
  6  7  1  0
  7  8  2  0
  8  9  1  0
  8 24  1  0
  9 10  2  0
  9 25  1  0
 10 11  1  0
 11 12  1  0
 12 13  2  0
 12 14  1  0
 14 15  1  0
 14 26  1  0
 14 27  1  0
 15 16  1  0
 15 28  1  6
 16 29  1  0
 16 30  1  0
M  END
>  <i_m_ct_stereo_status>  (417) 
1

>  <s_m_source_file>  (417) 
/var/tmp/pbs.5076255.sched01/tmpxmhsyh4a/135ajud44o5.sdf

>  <i_m_source_file_index>  (417) 
36

>  <i_lp_mmshare_version>  (417) 
48012

>  <i_f3d_flags>  (417) 
0

>  <s_epik_input>  (417) 
W0NIMl0xW0NIMl1OKFtDSDNdKVtDSDJdW0NAQEhdMltDSDJdQyg9TyljKGMzTjEyKW5bY0hdW2NIXW4z

>  <s_epik_cmdline>  (417) 
J2VwaWtfcHl0aG9uJywgJy1waHQnLCAnMi4wJywgJy1waCcsICc3LjAnLCAnLXRuJywgJzgnLCAnLW1hJywgJzIwMCcsICctaW1hZScsICc8aW5maWxlLm1hZT4nLCAnLW9tYWUnLCAnPG91dGZpbGUubWFlPic=

>  <r_lp_tautomer_probability>  (417) 
0.99995

>  <r_epik_Ionization_Penalty>  (417) 
0.660146

>  <r_epik_Ionization_Penalty_Charging>  (417) 
0

>  <r_epik_Ionization_Penalty_Neutral>  (417) 
0.660146

>  <r_epik_State_Penalty>  (417) 
0.679372

>  <r_epik_Charging_Adjusted_Penalty>  (417) 
0.679372

>  <i_epik_Tot_Q>  (417) 
0

>  <i_epik_Tot_abs_Q>  (417) 
0

>  <s_lp_Force_Field>  (417) 
OPLS3e

>  <r_lp_Energy>  (417) 
29.6121

>  <b_lp_Chiralities_Consistent>  (417) 
1

>  <s_lp_Variant>  (417) 
113:0-2

>  <s_i_glide_gridfile>  (417) 
pfpi4k_grid

>  <i_i_glide_lignum>  (417) 
36

>  <i_i_glide_rotatable_bonds>  (417) 
0

>  <r_i_docking_score>  (417) 
-3.33072

>  <r_i_glide_ligand_efficiency>  (417) 
-0.20817

>  <r_i_glide_ligand_efficiency_sa>  (417) 
-0.524555

>  <r_i_glide_ligand_efficiency_ln>  (417) 
-0.882874

>  <r_i_glide_gscore>  (417) 
-3.33072

>  <r_i_glide_lipo>  (417) 
-0.0303972

>  <r_i_glide_hbond>  (417) 
0

>  <r_i_glide_metal>  (417) 
-0

>  <r_i_glide_rewards>  (417) 
-1.92099

>  <r_i_glide_evdw>  (417) 
-20.6256

>  <r_i_glide_ecoul>  (417) 
-2.18717

>  <r_i_glide_erotb>  (417) 
0

>  <r_i_glide_esite>  (417) 
-0.0199783

>  <r_i_glide_emodel>  (417) 
-27.6902

>  <r_i_glide_energy>  (417) 
-22.8128

>  <r_i_glide_einternal>  (417) 
0

>  <r_i_glide_intrahb_reward>  (417) 
-0

>  <i_i_glide_confnum>  (417) 
1

>  <i_i_glide_posenum>  (417) 
14

>  <r_i_glide_eff_state_penalty>  (417) 
0

>  <ligand_id>  (417) 
113

>  <original_smiles>  (417) 
CN1CCN2c3nccnc3C(=O)CC2C1

>  <smiles>  (417) 
[H]c1nc2c(nc1[H])N1C([H])([H])C([H])([H])N(C([H])([H])[H])C([H])([H])C1([H])C([H])([H])C2=O

$$$$
115:0:0
     RDKit          3D

 43 46  0  0  1  0  0  0  0  0999 V2000
    8.2478   -4.8142    1.8587 C   0  0  0  0  0  0  0  0  0  0  0  0
    7.2626   -4.1309    0.9710 N   0  0  2  0  0  0  0  0  0  0  0  0
    6.6764   -2.8616    1.4663 C   0  0  0  0  0  0  0  0  0  0  0  0
    5.2772   -2.7634    0.8888 C   0  0  0  0  0  0  0  0  0  0  0  0
    5.2403   -3.8458   -0.1884 C   0  0  1  0  0  0  0  0  0  0  0  0
    3.8141   -4.3499   -0.4713 C   0  0  2  0  0  0  0  0  0  0  0  0
    2.9472   -3.2347   -1.0367 C   0  0  0  0  0  0  0  0  0  0  0  0
    3.4502   -2.2578   -1.8108 C   0  0  0  0  0  0  0  0  0  0  0  0
    4.9205   -2.1698   -2.1871 C   0  0  1  0  0  0  0  0  0  0  0  0
    5.4132   -0.9053   -1.8115 O   0  0  0  0  0  0  0  0  0  0  0  0
    5.7862   -3.3156   -1.5743 C   0  0  1  0  0  0  0  0  0  0  0  0
    7.1706   -2.9796   -1.5929 O   0  0  0  0  0  0  0  0  0  0  0  0
    3.1706   -5.4060    0.4567 C   0  0  0  0  0  0  0  0  0  0  0  0
    1.8271   -5.8567    0.3068 C   0  0  0  0  0  0  0  0  0  0  0  0
    1.0256   -5.4585   -0.7185 O   0  0  0  0  0  0  0  0  0  0  0  0
    1.2754   -6.8059    1.1785 C   0  0  0  0  0  0  0  0  0  0  0  0
    2.0729   -7.3871    2.1771 C   0  0  0  0  0  0  0  0  0  0  0  0
    3.4245   -7.0149    2.2953 C   0  0  0  0  0  0  0  0  0  0  0  0
    3.9798   -6.0443    1.4348 C   0  0  0  0  0  0  0  0  0  0  0  0
    5.4394   -5.6815    1.6354 C   0  0  0  0  0  0  0  0  0  0  0  0
    6.1199   -4.9216    0.4678 C   0  0  2  0  0  0  0  0  0  0  0  0
    7.8207   -5.0836    2.8194 H   0  0  0  0  0  0  0  0  0  0  0  0
    9.0909   -4.1682    2.0608 H   0  0  0  0  0  0  0  0  0  0  0  0
    8.6370   -5.7165    1.4073 H   0  0  0  0  0  0  0  0  0  0  0  0
    6.5584   -2.8637    2.5320 H   0  0  0  0  0  0  0  0  0  0  0  0
    7.3014   -2.0177    1.2087 H   0  0  0  0  0  0  0  0  0  0  0  0
    4.5429   -3.0074    1.6617 H   0  0  0  0  0  0  0  0  0  0  0  0
    5.0528   -1.7606    0.5419 H   0  0  0  0  0  0  0  0  0  0  0  0
    4.0611   -4.9701   -1.3118 H   0  0  0  0  0  0  0  0  0  0  0  0
    1.9034   -3.2029   -0.7731 H   0  0  0  0  0  0  0  0  0  0  0  0
    2.7996   -1.4594   -2.1460 H   0  0  0  0  0  0  0  0  0  0  0  0
    4.9781   -2.2114   -3.2729 H   0  0  0  0  0  0  0  0  0  0  0  0
    4.8854   -0.5418   -1.1202 H   0  0  0  0  0  0  0  0  0  0  0  0
    5.7155   -4.1398   -2.2880 H   0  0  0  0  0  0  0  0  0  0  0  0
    7.4843   -3.0216   -2.4899 H   0  0  0  0  0  0  0  0  0  0  0  0
    1.5215   -5.0829   -1.4392 H   0  0  0  0  0  0  0  0  0  0  0  0
    0.2624   -7.1491    1.0375 H   0  0  0  0  0  0  0  0  0  0  0  0
    1.6556   -8.1495    2.8232 H   0  0  0  0  0  0  0  0  0  0  0  0
    4.0348   -7.4781    3.0590 H   0  0  0  0  0  0  0  0  0  0  0  0
    5.4541   -5.0951    2.5531 H   0  0  0  0  0  0  0  0  0  0  0  0
    5.9952   -6.5962    1.8475 H   0  0  0  0  0  0  0  0  0  0  0  0
    6.4609   -5.6414   -0.2653 H   0  0  0  0  0  0  0  0  0  0  0  0
    7.7614   -3.8354    0.1334 H   0  0  0  0  0  0  0  0  0  0  0  0
  1  2  1  0
  1 22  1  0
  1 23  1  0
  1 24  1  0
  2 21  1  0
  2  3  1  0
  2 43  1  6
  3  4  1  0
  3 25  1  0
  3 26  1  0
  5  4  1  1
  4 27  1  0
  4 28  1  0
  5 11  1  0
  5 21  1  0
  5  6  1  0
  6  7  1  0
  6 13  1  0
  6 29  1  6
  7  8  2  0
  7 30  1  0
  8  9  1  0
  8 31  1  0
  9 10  1  0
  9 11  1  0
  9 32  1  6
 10 33  1  0
 11 12  1  0
 11 34  1  6
 12 35  1  0
 13 19  2  0
 13 14  1  0
 14 15  1  0
 14 16  2  0
 15 36  1  0
 16 17  1  0
 16 37  1  0
 17 18  2  0
 17 38  1  0
 18 19  1  0
 18 39  1  0
 19 20  1  0
 20 21  1  0
 20 40  1  0
 20 41  1  0
 21 42  1  6
M  CHG  1   2   1
M  END
>  <i_m_ct_stereo_status>  (418) 
1

>  <s_m_source_file>  (418) 
/var/tmp/pbs.5076255.sched01/tmpxmhsyh4a/135ajud44o5.sdf

>  <i_m_source_file_index>  (418) 
38

>  <i_lp_mmshare_version>  (418) 
48012

>  <i_f3d_flags>  (418) 
0

>  <s_epik_input>  (418) 
W0NIMl0xW0NIMl1OKFtDSDNdKVtDQEhdMltDSDJdYyhbY0hdW2NIXVtjSF1jM1tPSF0pYzNbQ0BIXShbQ0BAXTEyNClbQ0hdPVtDSF1bQ0BASF0oW09IXSlbQ0BIXTRbT0hd

>  <s_epik_cmdline>  (418) 
J2VwaWtfcHl0aG9uJywgJy1waHQnLCAnMi4wJywgJy1waCcsICc3LjAnLCAnLXRuJywgJzgnLCAnLW1hJywgJzIwMCcsICctaW1hZScsICc8aW5maWxlLm1hZT4nLCAnLW9tYWUnLCAnPG91dGZpbGUubWFlPic=

>  <r_lp_tautomer_probability>  (418) 
1

>  <r_epik_Ionization_Penalty>  (418) 
0.00767997

>  <r_epik_Ionization_Penalty_Charging>  (418) 
0.0055356

>  <r_epik_Ionization_Penalty_Neutral>  (418) 
0.00214438

>  <r_epik_State_Penalty>  (418) 
-0

>  <r_epik_Charging_Adjusted_Penalty>  (418) 
0.0055356

>  <i_epik_Tot_Q>  (418) 
1

>  <i_epik_Tot_abs_Q>  (418) 
1

>  <s_lp_Force_Field>  (418) 
OPLS3e

>  <r_lp_Energy>  (418) 
50.9572

>  <b_lp_Chiralities_Consistent>  (418) 
1

>  <s_lp_Variant>  (418) 
115:0-1

>  <s_i_glide_gridfile>  (418) 
pfpi4k_grid

>  <i_i_glide_lignum>  (418) 
38

>  <i_i_glide_rotatable_bonds>  (418) 
3

>  <r_i_docking_score>  (418) 
-5.67512

>  <r_i_glide_ligand_efficiency>  (418) 
-0.270244

>  <r_i_glide_ligand_efficiency_sa>  (418) 
-0.745582

>  <r_i_glide_ligand_efficiency_ln>  (418) 
-1.40316

>  <r_i_glide_gscore>  (418) 
-5.67512

>  <r_i_glide_lipo>  (418) 
-0.609044

>  <r_i_glide_hbond>  (418) 
-0.519181

>  <r_i_glide_metal>  (418) 
-0

>  <r_i_glide_rewards>  (418) 
-1.94299

>  <r_i_glide_evdw>  (418) 
-13.0741

>  <r_i_glide_ecoul>  (418) 
-13.0013

>  <r_i_glide_erotb>  (418) 
0

>  <r_i_glide_esite>  (418) 
0

>  <r_i_glide_emodel>  (418) 
-39.048

>  <r_i_glide_energy>  (418) 
-26.0754

>  <r_i_glide_einternal>  (418) 
1.77179

>  <r_i_glide_intrahb_reward>  (418) 
-0.5

>  <i_i_glide_confnum>  (418) 
1

>  <i_i_glide_posenum>  (418) 
22

>  <r_i_glide_eff_state_penalty>  (418) 
0

>  <ligand_id>  (418) 
115

>  <original_smiles>  (418) 
CN1CCC23C(C=CC(O)C2O)c2c(O)cccc2CC13

>  <smiles>  (418) 
[H]Oc1c([H])c([H])c([H])c2c1C1([H])C([H])=C([H])C([H])(O[H])C([H])(O[H])C13C([H])([H])C([H])([H])[N+]([H])(C([H])([H])[H])C3([H])C2([H])[H]

$$$$
115:0:1
     RDKit          3D

 43 46  0  0  1  0  0  0  0  0999 V2000
    8.2518   -4.8059    1.8392 C   0  0  0  0  0  0  0  0  0  0  0  0
    7.2609   -4.1248    0.9653 N   0  0  2  0  0  0  0  0  0  0  0  0
    6.6721   -2.8641    1.4668 C   0  0  0  0  0  0  0  0  0  0  0  0
    5.2723   -2.7585    0.8881 C   0  0  0  0  0  0  0  0  0  0  0  0
    5.2375   -3.8412   -0.1954 C   0  0  1  0  0  0  0  0  0  0  0  0
    3.8086   -4.3494   -0.4721 C   0  0  2  0  0  0  0  0  0  0  0  0
    2.9380   -3.2339   -1.0304 C   0  0  0  0  0  0  0  0  0  0  0  0
    3.4341   -2.2565   -1.8027 C   0  0  0  0  0  0  0  0  0  0  0  0
    4.9003   -2.1534   -2.1841 C   0  0  1  0  0  0  0  0  0  0  0  0
    5.3804   -0.8866   -1.7858 O   0  0  0  0  0  0  0  0  0  0  0  0
    5.7768   -3.3003   -1.5795 C   0  0  1  0  0  0  0  0  0  0  0  0
    7.1608   -2.9627   -1.6038 O   0  0  0  0  0  0  0  0  0  0  0  0
    3.1777   -5.4057    0.4542 C   0  0  0  0  0  0  0  0  0  0  0  0
    1.8297   -5.8515    0.3129 C   0  0  0  0  0  0  0  0  0  0  0  0
    1.0199   -5.4546   -0.7204 O   0  0  0  0  0  0  0  0  0  0  0  0
    1.2861   -6.8160    1.1779 C   0  0  0  0  0  0  0  0  0  0  0  0
    2.0867   -7.4016    2.1711 C   0  0  0  0  0  0  0  0  0  0  0  0
    3.4409   -7.0243    2.2864 C   0  0  0  0  0  0  0  0  0  0  0  0
    3.9878   -6.0431    1.4254 C   0  0  0  0  0  0  0  0  0  0  0  0
    5.4454   -5.6802    1.6192 C   0  0  0  0  0  0  0  0  0  0  0  0
    6.1260   -4.9134    0.4574 C   0  0  2  0  0  0  0  0  0  0  0  0
    7.8339   -5.0881    2.7991 H   0  0  0  0  0  0  0  0  0  0  0  0
    9.0942   -4.1597    2.0430 H   0  0  0  0  0  0  0  0  0  0  0  0
    8.6453   -5.7016    1.3820 H   0  0  0  0  0  0  0  0  0  0  0  0
    6.5608   -2.8741    2.5330 H   0  0  0  0  0  0  0  0  0  0  0  0
    7.2925   -2.0103    1.2236 H   0  0  0  0  0  0  0  0  0  0  0  0
    4.5364   -3.0063    1.6586 H   0  0  0  0  0  0  0  0  0  0  0  0
    5.0461   -1.7547    0.5413 H   0  0  0  0  0  0  0  0  0  0  0  0
    4.0537   -4.9661   -1.3171 H   0  0  0  0  0  0  0  0  0  0  0  0
    1.8963   -3.2062   -0.7588 H   0  0  0  0  0  0  0  0  0  0  0  0
    2.7783   -1.4598   -2.1307 H   0  0  0  0  0  0  0  0  0  0  0  0
    4.9484   -2.1871   -3.2727 H   0  0  0  0  0  0  0  0  0  0  0  0
    4.6904   -0.2492   -1.9077 H   0  0  0  0  0  0  0  0  0  0  0  0
    5.7097   -4.1219   -2.2949 H   0  0  0  0  0  0  0  0  0  0  0  0
    7.4761   -3.0189   -2.4991 H   0  0  0  0  0  0  0  0  0  0  0  0
    1.5184   -5.0903   -1.4341 H   0  0  0  0  0  0  0  0  0  0  0  0
    0.2760   -7.1607    1.0399 H   0  0  0  0  0  0  0  0  0  0  0  0
    1.6749   -8.1682    2.8159 H   0  0  0  0  0  0  0  0  0  0  0  0
    4.0562   -7.4907    3.0452 H   0  0  0  0  0  0  0  0  0  0  0  0
    5.4631   -5.1003    2.5454 H   0  0  0  0  0  0  0  0  0  0  0  0
    6.0067   -6.5955    1.8334 H   0  0  0  0  0  0  0  0  0  0  0  0
    6.4604   -5.6326   -0.2807 H   0  0  0  0  0  0  0  0  0  0  0  0
    7.7532   -3.8209    0.1231 H   0  0  0  0  0  0  0  0  0  0  0  0
  1  2  1  0
  1 22  1  0
  1 23  1  0
  1 24  1  0
  2 21  1  0
  2  3  1  0
  2 43  1  6
  3  4  1  0
  3 25  1  0
  3 26  1  0
  5  4  1  1
  4 27  1  0
  4 28  1  0
  5 11  1  0
  5 21  1  0
  5  6  1  0
  6  7  1  0
  6 13  1  0
  6 29  1  6
  7  8  2  0
  7 30  1  0
  8  9  1  0
  8 31  1  0
  9 10  1  0
  9 11  1  0
  9 32  1  6
 10 33  1  0
 11 12  1  0
 11 34  1  6
 12 35  1  0
 13 19  2  0
 13 14  1  0
 14 15  1  0
 14 16  2  0
 15 36  1  0
 16 17  1  0
 16 37  1  0
 17 18  2  0
 17 38  1  0
 18 19  1  0
 18 39  1  0
 19 20  1  0
 20 21  1  0
 20 40  1  0
 20 41  1  0
 21 42  1  6
M  CHG  1   2   1
M  END
>  <i_m_ct_stereo_status>  (419) 
1

>  <s_m_source_file>  (419) 
/var/tmp/pbs.5076255.sched01/tmpxmhsyh4a/135ajud44o5.sdf

>  <i_m_source_file_index>  (419) 
38

>  <i_lp_mmshare_version>  (419) 
48012

>  <i_f3d_flags>  (419) 
0

>  <s_epik_input>  (419) 
W0NIMl0xW0NIMl1OKFtDSDNdKVtDQEhdMltDSDJdYyhbY0hdW2NIXVtjSF1jM1tPSF0pYzNbQ0BIXShbQ0BAXTEyNClbQ0hdPVtDSF1bQ0BASF0oW09IXSlbQ0BIXTRbT0hd

>  <s_epik_cmdline>  (419) 
J2VwaWtfcHl0aG9uJywgJy1waHQnLCAnMi4wJywgJy1waCcsICc3LjAnLCAnLXRuJywgJzgnLCAnLW1hJywgJzIwMCcsICctaW1hZScsICc8aW5maWxlLm1hZT4nLCAnLW9tYWUnLCAnPG91dGZpbGUubWFlPic=

>  <r_lp_tautomer_probability>  (419) 
1

>  <r_epik_Ionization_Penalty>  (419) 
0.00767997

>  <r_epik_Ionization_Penalty_Charging>  (419) 
0.0055356

>  <r_epik_Ionization_Penalty_Neutral>  (419) 
0.00214438

>  <r_epik_State_Penalty>  (419) 
-0

>  <r_epik_Charging_Adjusted_Penalty>  (419) 
0.0055356

>  <i_epik_Tot_Q>  (419) 
1

>  <i_epik_Tot_abs_Q>  (419) 
1

>  <s_lp_Force_Field>  (419) 
OPLS3e

>  <r_lp_Energy>  (419) 
50.9572

>  <b_lp_Chiralities_Consistent>  (419) 
1

>  <s_lp_Variant>  (419) 
115:0-1

>  <s_i_glide_gridfile>  (419) 
pfpi4k_grid

>  <i_i_glide_lignum>  (419) 
38

>  <i_i_glide_rotatable_bonds>  (419) 
3

>  <r_i_docking_score>  (419) 
-5.63825

>  <r_i_glide_ligand_efficiency>  (419) 
-0.268488

>  <r_i_glide_ligand_efficiency_sa>  (419) 
-0.740738

>  <r_i_glide_ligand_efficiency_ln>  (419) 
-1.39405

>  <r_i_glide_gscore>  (419) 
-5.63825

>  <r_i_glide_lipo>  (419) 
-0.601062

>  <r_i_glide_hbond>  (419) 
-0.522252

>  <r_i_glide_metal>  (419) 
-0

>  <r_i_glide_rewards>  (419) 
-1.94299

>  <r_i_glide_evdw>  (419) 
-13.0717

>  <r_i_glide_ecoul>  (419) 
-12.7891

>  <r_i_glide_erotb>  (419) 
0

>  <r_i_glide_esite>  (419) 
0

>  <r_i_glide_emodel>  (419) 
-38.699

>  <r_i_glide_energy>  (419) 
-25.8608

>  <r_i_glide_einternal>  (419) 
1.73482

>  <r_i_glide_intrahb_reward>  (419) 
-0.5

>  <i_i_glide_confnum>  (419) 
2

>  <i_i_glide_posenum>  (419) 
28

>  <r_i_glide_eff_state_penalty>  (419) 
0

>  <ligand_id>  (419) 
115

>  <original_smiles>  (419) 
CN1CCC23C(C=CC(O)C2O)c2c(O)cccc2CC13

>  <smiles>  (419) 
[H]Oc1c([H])c([H])c([H])c2c1C1([H])C([H])=C([H])C([H])(O[H])C([H])(O[H])C13C([H])([H])C([H])([H])[N+]([H])(C([H])([H])[H])C3([H])C2([H])[H]

$$$$
115:0:2
     RDKit          3D

 43 46  0  0  1  0  0  0  0  0999 V2000
    7.5159   -1.5802    0.7984 C   0  0  0  0  0  0  0  0  0  0  0  0
    6.3815   -1.9531   -0.0741 N   0  0  2  0  0  0  0  0  0  0  0  0
    5.3665   -0.8950   -0.2638 C   0  0  0  0  0  0  0  0  0  0  0  0
    4.0437   -1.6243   -0.5011 C   0  0  0  0  0  0  0  0  0  0  0  0
    4.4297   -3.1074   -0.7228 C   0  0  1  0  0  0  0  0  0  0  0  0
    3.3083   -4.1202   -0.3751 C   0  0  2  0  0  0  0  0  0  0  0  0
    2.1072   -3.8370   -1.2710 C   0  0  0  0  0  0  0  0  0  0  0  0
    2.2405   -3.4078   -2.5383 C   0  0  0  0  0  0  0  0  0  0  0  0
    3.5817   -3.1661   -3.2066 C   0  0  1  0  0  0  0  0  0  0  0  0
    3.5943   -1.8731   -3.7838 O   0  0  0  0  0  0  0  0  0  0  0  0
    4.7762   -3.4025   -2.2270 C   0  0  1  0  0  0  0  0  0  0  0  0
    5.9588   -2.7629   -2.6716 O   0  0  0  0  0  0  0  0  0  0  0  0
    3.1017   -4.4970    1.0963 C   0  0  0  0  0  0  0  0  0  0  0  0
    2.0337   -5.3420    1.5033 C   0  0  0  0  0  0  0  0  0  0  0  0
    1.1533   -5.8714    0.6042 O   0  0  0  0  0  0  0  0  0  0  0  0
    1.8458   -5.6525    2.8610 C   0  0  0  0  0  0  0  0  0  0  0  0
    2.7541   -5.1878    3.8256 C   0  0  0  0  0  0  0  0  0  0  0  0
    3.8608   -4.4216    3.4274 C   0  0  0  0  0  0  0  0  0  0  0  0
    4.0443   -4.0871    2.0720 C   0  0  0  0  0  0  0  0  0  0  0  0
    5.2488   -3.2436    1.7199 C   0  0  0  0  0  0  0  0  0  0  0  0
    5.6376   -3.1979    0.2258 C   0  0  2  0  0  0  0  0  0  0  0  0
    7.1432   -1.2790    1.7718 H   0  0  0  0  0  0  0  0  0  0  0  0
    8.0707   -0.7252    0.4159 H   0  0  0  0  0  0  0  0  0  0  0  0
    8.2246   -2.4058    0.8819 H   0  0  0  0  0  0  0  0  0  0  0  0
    5.2957   -0.2321    0.5964 H   0  0  0  0  0  0  0  0  0  0  0  0
    5.6465   -0.2977   -1.1305 H   0  0  0  0  0  0  0  0  0  0  0  0
    3.4213   -1.5457    0.3913 H   0  0  0  0  0  0  0  0  0  0  0  0
    3.4874   -1.1681   -1.3150 H   0  0  0  0  0  0  0  0  0  0  0  0
    3.6714   -5.0795   -0.7164 H   0  0  0  0  0  0  0  0  0  0  0  0
    1.1157   -3.9917   -0.8902 H   0  0  0  0  0  0  0  0  0  0  0  0
    1.3724   -3.2328   -3.1519 H   0  0  0  0  0  0  0  0  0  0  0  0
    3.6528   -3.8687   -4.0424 H   0  0  0  0  0  0  0  0  0  0  0  0
    3.1502   -1.2845   -3.1897 H   0  0  0  0  0  0  0  0  0  0  0  0
    5.0116   -4.4642   -2.3086 H   0  0  0  0  0  0  0  0  0  0  0  0
    6.2497   -3.1793   -3.4683 H   0  0  0  0  0  0  0  0  0  0  0  0
    1.5002   -5.8597   -0.2789 H   0  0  0  0  0  0  0  0  0  0  0  0
    1.0080   -6.2578    3.1667 H   0  0  0  0  0  0  0  0  0  0  0  0
    2.6166   -5.4413    4.8673 H   0  0  0  0  0  0  0  0  0  0  0  0
    4.5772   -4.0826    4.1660 H   0  0  0  0  0  0  0  0  0  0  0  0
    5.0243   -2.2437    2.0994 H   0  0  0  0  0  0  0  0  0  0  0  0
    6.1052   -3.5978    2.2947 H   0  0  0  0  0  0  0  0  0  0  0  0
    6.2448   -4.0684   -0.0316 H   0  0  0  0  0  0  0  0  0  0  0  0
    6.7268   -2.1479   -1.0106 H   0  0  0  0  0  0  0  0  0  0  0  0
  1  2  1  0
  1 22  1  0
  1 23  1  0
  1 24  1  0
  2 21  1  0
  2  3  1  0
  2 43  1  6
  3  4  1  0
  3 25  1  0
  3 26  1  0
  5  4  1  6
  4 27  1  0
  4 28  1  0
  5 11  1  0
  5 21  1  0
  5  6  1  0
  6  7  1  0
  6 13  1  0
  6 29  1  6
  7  8  2  0
  7 30  1  0
  8  9  1  0
  8 31  1  0
  9 10  1  0
  9 11  1  0
  9 32  1  6
 10 33  1  0
 11 12  1  0
 11 34  1  1
 12 35  1  0
 13 19  2  0
 13 14  1  0
 14 15  1  0
 14 16  2  0
 15 36  1  0
 16 17  1  0
 16 37  1  0
 17 18  2  0
 17 38  1  0
 18 19  1  0
 18 39  1  0
 19 20  1  0
 20 21  1  0
 20 40  1  0
 20 41  1  0
 21 42  1  6
M  CHG  1   2   1
M  END
>  <i_m_ct_stereo_status>  (420) 
1

>  <s_m_source_file>  (420) 
/var/tmp/pbs.5076255.sched01/tmpxmhsyh4a/135ajud44o5.sdf

>  <i_m_source_file_index>  (420) 
38

>  <i_lp_mmshare_version>  (420) 
48012

>  <i_f3d_flags>  (420) 
0

>  <s_epik_input>  (420) 
W0NIMl0xW0NIMl1OKFtDSDNdKVtDQEhdMltDSDJdYyhbY0hdW2NIXVtjSF1jM1tPSF0pYzNbQ0BIXShbQ0BAXTEyNClbQ0hdPVtDSF1bQ0BASF0oW09IXSlbQ0BIXTRbT0hd

>  <s_epik_cmdline>  (420) 
J2VwaWtfcHl0aG9uJywgJy1waHQnLCAnMi4wJywgJy1waCcsICc3LjAnLCAnLXRuJywgJzgnLCAnLW1hJywgJzIwMCcsICctaW1hZScsICc8aW5maWxlLm1hZT4nLCAnLW9tYWUnLCAnPG91dGZpbGUubWFlPic=

>  <r_lp_tautomer_probability>  (420) 
1

>  <r_epik_Ionization_Penalty>  (420) 
0.00767997

>  <r_epik_Ionization_Penalty_Charging>  (420) 
0.0055356

>  <r_epik_Ionization_Penalty_Neutral>  (420) 
0.00214438

>  <r_epik_State_Penalty>  (420) 
-0

>  <r_epik_Charging_Adjusted_Penalty>  (420) 
0.0055356

>  <i_epik_Tot_Q>  (420) 
1

>  <i_epik_Tot_abs_Q>  (420) 
1

>  <s_lp_Force_Field>  (420) 
OPLS3e

>  <r_lp_Energy>  (420) 
50.9572

>  <b_lp_Chiralities_Consistent>  (420) 
1

>  <s_lp_Variant>  (420) 
115:0-1

>  <s_i_glide_gridfile>  (420) 
pfpi4k_grid

>  <i_i_glide_lignum>  (420) 
38

>  <i_i_glide_rotatable_bonds>  (420) 
3

>  <r_i_docking_score>  (420) 
-4.60658

>  <r_i_glide_ligand_efficiency>  (420) 
-0.219361

>  <r_i_glide_ligand_efficiency_sa>  (420) 
-0.6052

>  <r_i_glide_ligand_efficiency_ln>  (420) 
-1.13897

>  <r_i_glide_gscore>  (420) 
-4.60658

>  <r_i_glide_lipo>  (420) 
-0.498829

>  <r_i_glide_hbond>  (420) 
-0.16

>  <r_i_glide_metal>  (420) 
-0

>  <r_i_glide_rewards>  (420) 
-1.94299

>  <r_i_glide_evdw>  (420) 
-16.033

>  <r_i_glide_ecoul>  (420) 
-7.91774

>  <r_i_glide_erotb>  (420) 
0

>  <r_i_glide_esite>  (420) 
-0.0154443

>  <r_i_glide_emodel>  (420) 
-35.7309

>  <r_i_glide_energy>  (420) 
-23.9508

>  <r_i_glide_einternal>  (420) 
1.1721

>  <r_i_glide_intrahb_reward>  (420) 
-0.5

>  <i_i_glide_confnum>  (420) 
2

>  <i_i_glide_posenum>  (420) 
36

>  <r_i_glide_eff_state_penalty>  (420) 
0

>  <ligand_id>  (420) 
115

>  <original_smiles>  (420) 
CN1CCC23C(C=CC(O)C2O)c2c(O)cccc2CC13

>  <smiles>  (420) 
[H]Oc1c([H])c([H])c([H])c2c1C1([H])C([H])=C([H])C([H])(O[H])C([H])(O[H])C13C([H])([H])C([H])([H])[N+]([H])(C([H])([H])[H])C3([H])C2([H])[H]

$$$$
116:0:0
     RDKit          3D

 47 51  0  0  1  0  0  0  0  0999 V2000
    3.0999    5.2009    2.9244 C   0  0  0  0  0  0  0  0  0  0  0  0
    2.0740    4.6672    3.7538 O   0  0  0  0  0  0  0  0  0  0  0  0
    2.4200    3.8972    4.9199 C   0  0  1  0  0  0  0  0  0  0  0  0
    3.0339    4.8636    5.9647 C   0  0  0  0  0  0  0  0  0  0  0  0
    2.0939    6.0581    6.2979 C   0  0  0  0  0  0  0  0  0  0  0  0
    0.5995    5.8076    6.0223 C   0  0  0  0  0  0  0  0  0  0  0  0
   -0.1714    6.7437    5.8206 O   0  0  0  0  0  0  0  0  0  0  0  0
    0.1015    4.3566    6.0656 C   0  0  1  0  0  0  0  0  0  0  0  0
   -1.2395    4.0612    5.3585 C   0  0  0  0  0  0  0  0  0  0  0  0
   -0.9737    2.9678    4.3447 C   0  0  0  0  0  0  0  0  0  0  0  0
   -1.7871    2.3593    3.3828 C   0  0  0  0  0  0  0  0  0  0  0  0
   -3.1060    2.6734    3.3384 O   0  0  0  0  0  0  0  0  0  0  0  0
   -1.2265    1.4296    2.4748 C   0  0  0  0  0  0  0  0  0  0  0  0
    0.1663    1.1981    2.4543 C   0  0  0  0  0  0  0  0  0  0  0  0
    1.0044    1.8295    3.3981 C   0  0  0  0  0  0  0  0  0  0  0  0
    0.3758    2.6453    4.3607 C   0  0  0  0  0  0  0  0  0  0  0  0
    1.1066    3.3223    5.4957 C   0  0  1  0  0  0  0  0  0  0  0  0
    1.3763    2.3047    6.6429 C   0  0  0  0  0  0  0  0  0  0  0  0
    2.3457    1.1847    6.2589 C   0  0  0  0  0  0  0  0  0  0  0  0
    3.5673    1.7595    5.6542 N   0  0  1  0  0  0  0  0  0  0  0  0
    4.5947    0.7218    5.3821 C   0  0  0  0  0  0  0  0  0  0  0  0
    3.2587    2.6510    4.4941 C   0  0  1  0  0  0  0  0  0  0  0  0
    2.5342    1.8710    3.3592 C   0  0  0  0  0  0  0  0  0  0  0  0
    2.6216    5.7405    2.1105 H   0  0  0  0  0  0  0  0  0  0  0  0
    3.7087    4.4288    2.4591 H   0  0  0  0  0  0  0  0  0  0  0  0
    3.7515    5.9005    3.4474 H   0  0  0  0  0  0  0  0  0  0  0  0
    3.2530    4.3323    6.8922 H   0  0  0  0  0  0  0  0  0  0  0  0
    4.0000    5.2438    5.6259 H   0  0  0  0  0  0  0  0  0  0  0  0
    2.2122    6.3562    7.3400 H   0  0  0  0  0  0  0  0  0  0  0  0
    2.3959    6.9192    5.6993 H   0  0  0  0  0  0  0  0  0  0  0  0
   -0.0535    4.1715    7.1279 H   0  0  0  0  0  0  0  0  0  0  0  0
   -1.9829    3.7071    6.0727 H   0  0  0  0  0  0  0  0  0  0  0  0
   -1.6602    4.9178    4.8374 H   0  0  0  0  0  0  0  0  0  0  0  0
   -3.5890    1.9714    2.9165 H   0  0  0  0  0  0  0  0  0  0  0  0
   -1.8438    0.9395    1.7378 H   0  0  0  0  0  0  0  0  0  0  0  0
    0.5969    0.5758    1.6824 H   0  0  0  0  0  0  0  0  0  0  0  0
    1.7747    2.8270    7.5161 H   0  0  0  0  0  0  0  0  0  0  0  0
    0.4358    1.8604    6.9774 H   0  0  0  0  0  0  0  0  0  0  0  0
    2.6101    0.6189    7.1509 H   0  0  0  0  0  0  0  0  0  0  0  0
    1.8646    0.4805    5.5787 H   0  0  0  0  0  0  0  0  0  0  0  0
    4.2230   -0.0717    4.7341 H   0  0  0  0  0  0  0  0  0  0  0  0
    4.8994    0.2521    6.3169 H   0  0  0  0  0  0  0  0  0  0  0  0
    5.4834    1.1528    4.9234 H   0  0  0  0  0  0  0  0  0  0  0  0
    4.2138    2.9961    4.1128 H   0  0  0  0  0  0  0  0  0  0  0  0
    2.9036    0.8531    3.2587 H   0  0  0  0  0  0  0  0  0  0  0  0
    2.7922    2.3431    2.4117 H   0  0  0  0  0  0  0  0  0  0  0  0
    3.9759    2.3577    6.3562 H   0  0  0  0  0  0  0  0  0  0  0  0
  1  2  1  0
  1 24  1  0
  1 25  1  0
  1 26  1  0
  3  2  1  6
  3 17  1  0
  3 22  1  0
  3  4  1  0
  4  5  1  0
  4 27  1  0
  4 28  1  0
  5  6  1  0
  5 29  1  0
  5 30  1  0
  6  7  2  0
  6  8  1  0
  8 17  1  0
  8  9  1  0
  8 31  1  1
  9 10  1  0
  9 32  1  0
  9 33  1  0
 10 16  2  0
 10 11  1  0
 11 12  1  0
 11 13  2  0
 12 34  1  0
 13 14  1  0
 13 35  1  0
 14 15  2  0
 14 36  1  0
 15 23  1  0
 15 16  1  0
 16 17  1  0
 17 18  1  1
 18 19  1  0
 18 37  1  0
 18 38  1  0
 19 20  1  0
 19 39  1  0
 19 40  1  0
 20 21  1  0
 20 22  1  0
 20 47  1  1
 21 41  1  0
 21 42  1  0
 21 43  1  0
 22 23  1  0
 22 44  1  6
 23 45  1  0
 23 46  1  0
M  CHG  1  20   1
M  END
>  <i_m_ct_stereo_status>  (421) 
1

>  <s_m_source_file>  (421) 
/var/tmp/pbs.5076255.sched01/tmpxmhsyh4a/135ajud44o5.sdf

>  <i_m_source_file_index>  (421) 
39

>  <i_lp_mmshare_version>  (421) 
48012

>  <i_f3d_flags>  (421) 
0

>  <s_epik_input>  (421) 
W0NIM11PW0NAQF0xKFtDQEBdMjM0KVtDQEBIXShOKFtDSDNdKVtDSDJdW0NIMl00KVtDSDJdYzVjM2MoYyhbT0hdKVtjSF1bY0hdNSlbQ0gyXVtDQEBIXTJDKD1PKVtDSDJdW0NIMl0x

>  <s_epik_cmdline>  (421) 
J2VwaWtfcHl0aG9uJywgJy1waHQnLCAnMi4wJywgJy1waCcsICc3LjAnLCAnLXRuJywgJzgnLCAnLW1hJywgJzIwMCcsICctaW1hZScsICc8aW5maWxlLm1hZT4nLCAnLW9tYWUnLCAnPG91dGZpbGUubWFlPic=

>  <r_lp_tautomer_probability>  (421) 
1

>  <r_epik_Ionization_Penalty>  (421) 
0.169227

>  <r_epik_Ionization_Penalty_Charging>  (421) 
0.168011

>  <r_epik_Ionization_Penalty_Neutral>  (421) 
0.00121577

>  <r_epik_State_Penalty>  (421) 
0.157372

>  <r_epik_Charging_Adjusted_Penalty>  (421) 
0.325383

>  <i_epik_Tot_Q>  (421) 
1

>  <i_epik_Tot_abs_Q>  (421) 
1

>  <s_lp_Force_Field>  (421) 
OPLS3e

>  <r_lp_Energy>  (421) 
64.1914

>  <b_lp_Chiralities_Consistent>  (421) 
1

>  <s_lp_Variant>  (421) 
116:0-1

>  <s_i_glide_gridfile>  (421) 
pfpi4k_grid

>  <i_i_glide_lignum>  (421) 
39

>  <i_i_glide_rotatable_bonds>  (421) 
2

>  <r_i_docking_score>  (421) 
-3.53701

>  <r_i_glide_ligand_efficiency>  (421) 
-0.153783

>  <r_i_glide_ligand_efficiency_sa>  (421) 
-0.437338

>  <r_i_glide_ligand_efficiency_ln>  (421) 
-0.85528

>  <r_i_glide_gscore>  (421) 
-3.53701

>  <r_i_glide_lipo>  (421) 
-0.126577

>  <r_i_glide_hbond>  (421) 
-0.361435

>  <r_i_glide_metal>  (421) 
-0

>  <r_i_glide_rewards>  (421) 
-1.26546

>  <r_i_glide_evdw>  (421) 
-16.7861

>  <r_i_glide_ecoul>  (421) 
-6.21086

>  <r_i_glide_erotb>  (421) 
0

>  <r_i_glide_esite>  (421) 
-0.0125955

>  <r_i_glide_emodel>  (421) 
-28.4265

>  <r_i_glide_energy>  (421) 
-22.997

>  <r_i_glide_einternal>  (421) 
0.474387

>  <r_i_glide_intrahb_reward>  (421) 
-0

>  <i_i_glide_confnum>  (421) 
2

>  <i_i_glide_posenum>  (421) 
5

>  <r_i_glide_eff_state_penalty>  (421) 
0

>  <ligand_id>  (421) 
116

>  <original_smiles>  (421) 
COC12CCC(=O)C3Cc4c(O)ccc5c4C31CCN(C)C2C5

>  <smiles>  (421) 
[H]Oc1c([H])c([H])c2c3c1C([H])([H])C1([H])C(=O)C([H])([H])C([H])([H])C4(OC([H])([H])[H])C31C([H])([H])C([H])([H])[N+]([H])(C([H])([H])[H])C4([H])C2([H])[H]

$$$$
116:0:1
     RDKit          3D

 47 51  0  0  1  0  0  0  0  0999 V2000
    1.4332    5.8832    3.4224 C   0  0  0  0  0  0  0  0  0  0  0  0
    1.2549    4.9057    4.4381 O   0  0  0  0  0  0  0  0  0  0  0  0
    1.8714    3.6112    4.2972 C   0  0  1  0  0  0  0  0  0  0  0  0
    3.4073    3.8005    4.2273 C   0  0  0  0  0  0  0  0  0  0  0  0
    3.9666    4.5950    5.4401 C   0  0  0  0  0  0  0  0  0  0  0  0
    3.0890    4.5531    6.7043 C   0  0  0  0  0  0  0  0  0  0  0  0
    3.1635    5.4470    7.5442 O   0  0  0  0  0  0  0  0  0  0  0  0
    2.1659    3.3383    6.8979 C   0  0  1  0  0  0  0  0  0  0  0  0
    0.9863    3.4966    7.8890 C   0  0  0  0  0  0  0  0  0  0  0  0
   -0.2847    3.1600    7.1315 C   0  0  0  0  0  0  0  0  0  0  0  0
   -1.6439    3.1625    7.4991 C   0  0  0  0  0  0  0  0  0  0  0  0
   -2.0124    3.3814    8.7913 O   0  0  0  0  0  0  0  0  0  0  0  0
   -2.6238    2.9465    6.5034 C   0  0  0  0  0  0  0  0  0  0  0  0
   -2.2605    2.8039    5.1427 C   0  0  0  0  0  0  0  0  0  0  0  0
   -0.9045    2.7919    4.7634 C   0  0  0  0  0  0  0  0  0  0  0  0
    0.0438    2.9066    5.8052 C   0  0  0  0  0  0  0  0  0  0  0  0
    1.5338    2.8129    5.5820 C   0  0  1  0  0  0  0  0  0  0  0  0
    1.9728    1.3236    5.4598 C   0  0  0  0  0  0  0  0  0  0  0  0
    1.4265    0.6208    4.2170 C   0  0  0  0  0  0  0  0  0  0  0  0
    1.6993    1.4343    3.0109 N   0  0  1  0  0  0  0  0  0  0  0  0
    1.2984    0.7269    1.7653 C   0  0  0  0  0  0  0  0  0  0  0  0
    1.1801    2.8322    3.1290 C   0  0  1  0  0  0  0  0  0  0  0  0
   -0.3653    2.8403    3.3269 C   0  0  0  0  0  0  0  0  0  0  0  0
    0.9003    6.7865    3.7106 H   0  0  0  0  0  0  0  0  0  0  0  0
    1.0157    5.5562    2.4788 H   0  0  0  0  0  0  0  0  0  0  0  0
    2.4726    6.1679    3.2762 H   0  0  0  0  0  0  0  0  0  0  0  0
    3.9055    2.8335    4.1876 H   0  0  0  0  0  0  0  0  0  0  0  0
    3.6944    4.2953    3.2992 H   0  0  0  0  0  0  0  0  0  0  0  0
    4.9692    4.2519    5.6952 H   0  0  0  0  0  0  0  0  0  0  0  0
    4.0663    5.6437    5.1566 H   0  0  0  0  0  0  0  0  0  0  0  0
    2.8312    2.5825    7.3172 H   0  0  0  0  0  0  0  0  0  0  0  0
    1.0968    2.8003    8.7189 H   0  0  0  0  0  0  0  0  0  0  0  0
    0.9059    4.4977    8.3123 H   0  0  0  0  0  0  0  0  0  0  0  0
   -1.2782    3.5047    9.3738 H   0  0  0  0  0  0  0  0  0  0  0  0
   -3.6682    2.9442    6.7738 H   0  0  0  0  0  0  0  0  0  0  0  0
   -3.0233    2.7153    4.3807 H   0  0  0  0  0  0  0  0  0  0  0  0
    3.0615    1.2503    5.4457 H   0  0  0  0  0  0  0  0  0  0  0  0
    1.6645    0.7672    6.3457 H   0  0  0  0  0  0  0  0  0  0  0  0
    1.9010   -0.3539    4.1155 H   0  0  0  0  0  0  0  0  0  0  0  0
    0.3593    0.4245    4.3246 H   0  0  0  0  0  0  0  0  0  0  0  0
    0.2448    0.4447    1.7609 H   0  0  0  0  0  0  0  0  0  0  0  0
    1.8727   -0.1937    1.6551 H   0  0  0  0  0  0  0  0  0  0  0  0
    1.4881    1.3346    0.8831 H   0  0  0  0  0  0  0  0  0  0  0  0
    1.4206    3.3173    2.1853 H   0  0  0  0  0  0  0  0  0  0  0  0
   -0.8561    2.0594    2.7484 H   0  0  0  0  0  0  0  0  0  0  0  0
   -0.7492    3.7661    2.9002 H   0  0  0  0  0  0  0  0  0  0  0  0
    2.7030    1.5260    2.9449 H   0  0  0  0  0  0  0  0  0  0  0  0
  1  2  1  0
  1 24  1  0
  1 25  1  0
  1 26  1  0
  3  2  1  1
  3 17  1  0
  3 22  1  0
  3  4  1  0
  4  5  1  0
  4 27  1  0
  4 28  1  0
  5  6  1  0
  5 29  1  0
  5 30  1  0
  6  7  2  0
  6  8  1  0
  8 17  1  0
  8  9  1  0
  8 31  1  1
  9 10  1  0
  9 32  1  0
  9 33  1  0
 10 16  2  0
 10 11  1  0
 11 12  1  0
 11 13  2  0
 12 34  1  0
 13 14  1  0
 13 35  1  0
 14 15  2  0
 14 36  1  0
 15 23  1  0
 15 16  1  0
 16 17  1  0
 17 18  1  6
 18 19  1  0
 18 37  1  0
 18 38  1  0
 19 20  1  0
 19 39  1  0
 19 40  1  0
 20 21  1  0
 20 22  1  0
 20 47  1  6
 21 41  1  0
 21 42  1  0
 21 43  1  0
 22 23  1  0
 22 44  1  6
 23 45  1  0
 23 46  1  0
M  CHG  1  20   1
M  END
>  <i_m_ct_stereo_status>  (422) 
1

>  <s_m_source_file>  (422) 
/var/tmp/pbs.5076255.sched01/tmpxmhsyh4a/135ajud44o5.sdf

>  <i_m_source_file_index>  (422) 
39

>  <i_lp_mmshare_version>  (422) 
48012

>  <i_f3d_flags>  (422) 
0

>  <s_epik_input>  (422) 
W0NIM11PW0NAQF0xKFtDQEBdMjM0KVtDQEBIXShOKFtDSDNdKVtDSDJdW0NIMl00KVtDSDJdYzVjM2MoYyhbT0hdKVtjSF1bY0hdNSlbQ0gyXVtDQEBIXTJDKD1PKVtDSDJdW0NIMl0x

>  <s_epik_cmdline>  (422) 
J2VwaWtfcHl0aG9uJywgJy1waHQnLCAnMi4wJywgJy1waCcsICc3LjAnLCAnLXRuJywgJzgnLCAnLW1hJywgJzIwMCcsICctaW1hZScsICc8aW5maWxlLm1hZT4nLCAnLW9tYWUnLCAnPG91dGZpbGUubWFlPic=

>  <r_lp_tautomer_probability>  (422) 
1

>  <r_epik_Ionization_Penalty>  (422) 
0.169227

>  <r_epik_Ionization_Penalty_Charging>  (422) 
0.168011

>  <r_epik_Ionization_Penalty_Neutral>  (422) 
0.00121577

>  <r_epik_State_Penalty>  (422) 
0.157372

>  <r_epik_Charging_Adjusted_Penalty>  (422) 
0.325383

>  <i_epik_Tot_Q>  (422) 
1

>  <i_epik_Tot_abs_Q>  (422) 
1

>  <s_lp_Force_Field>  (422) 
OPLS3e

>  <r_lp_Energy>  (422) 
64.1914

>  <b_lp_Chiralities_Consistent>  (422) 
1

>  <s_lp_Variant>  (422) 
116:0-1

>  <s_i_glide_gridfile>  (422) 
pfpi4k_grid

>  <i_i_glide_lignum>  (422) 
39

>  <i_i_glide_rotatable_bonds>  (422) 
2

>  <r_i_docking_score>  (422) 
-3.0219

>  <r_i_glide_ligand_efficiency>  (422) 
-0.131387

>  <r_i_glide_ligand_efficiency_sa>  (422) 
-0.373648

>  <r_i_glide_ligand_efficiency_ln>  (422) 
-0.730724

>  <r_i_glide_gscore>  (422) 
-3.0219

>  <r_i_glide_lipo>  (422) 
-0.180709

>  <r_i_glide_hbond>  (422) 
0

>  <r_i_glide_metal>  (422) 
-0

>  <r_i_glide_rewards>  (422) 
-1.26546

>  <r_i_glide_evdw>  (422) 
-16.2248

>  <r_i_glide_ecoul>  (422) 
-5.02126

>  <r_i_glide_erotb>  (422) 
0

>  <r_i_glide_esite>  (422) 
-0.0113063

>  <r_i_glide_emodel>  (422) 
-26.2509

>  <r_i_glide_energy>  (422) 
-21.246

>  <r_i_glide_einternal>  (422) 
0.0112618

>  <r_i_glide_intrahb_reward>  (422) 
-0

>  <i_i_glide_confnum>  (422) 
2

>  <i_i_glide_posenum>  (422) 
27

>  <r_i_glide_eff_state_penalty>  (422) 
0

>  <ligand_id>  (422) 
116

>  <original_smiles>  (422) 
COC12CCC(=O)C3Cc4c(O)ccc5c4C31CCN(C)C2C5

>  <smiles>  (422) 
[H]Oc1c([H])c([H])c2c3c1C([H])([H])C1([H])C(=O)C([H])([H])C([H])([H])C4(OC([H])([H])[H])C31C([H])([H])C([H])([H])[N+]([H])(C([H])([H])[H])C4([H])C2([H])[H]

$$$$
116:0:2
     RDKit          3D

 47 51  0  0  1  0  0  0  0  0999 V2000
    1.4294    5.8775    3.4132 C   0  0  0  0  0  0  0  0  0  0  0  0
    1.2654    4.9042    4.4391 O   0  0  0  0  0  0  0  0  0  0  0  0
    1.8809    3.6107    4.2920 C   0  0  1  0  0  0  0  0  0  0  0  0
    3.4143    3.8008    4.2077 C   0  0  0  0  0  0  0  0  0  0  0  0
    3.9858    4.5957    5.4147 C   0  0  0  0  0  0  0  0  0  0  0  0
    3.1210    4.5542    6.6868 C   0  0  0  0  0  0  0  0  0  0  0  0
    3.2050    5.4495    7.5246 O   0  0  0  0  0  0  0  0  0  0  0  0
    2.1991    3.3403    6.8902 C   0  0  1  0  0  0  0  0  0  0  0  0
    1.0268    3.4987    7.8904 C   0  0  0  0  0  0  0  0  0  0  0  0
   -0.2509    3.1614    7.1438 C   0  0  0  0  0  0  0  0  0  0  0  0
   -1.6080    3.1641    7.5228 C   0  0  0  0  0  0  0  0  0  0  0  0
   -1.9610    3.3852    8.8203 O   0  0  0  0  0  0  0  0  0  0  0  0
   -2.5955    2.9470    6.5351 C   0  0  0  0  0  0  0  0  0  0  0  0
   -2.2427    2.8027    5.1721 C   0  0  0  0  0  0  0  0  0  0  0  0
   -0.8899    2.7922    4.7811 C   0  0  0  0  0  0  0  0  0  0  0  0
    0.0668    2.9071    5.8148 C   0  0  0  0  0  0  0  0  0  0  0  0
    1.5549    2.8133    5.5804 C   0  0  1  0  0  0  0  0  0  0  0  0
    1.9951    1.3238    5.4553 C   0  0  0  0  0  0  0  0  0  0  0  0
    1.4392    0.6202    4.2181 C   0  0  0  0  0  0  0  0  0  0  0  0
    1.7010    1.4313    3.0078 N   0  0  1  0  0  0  0  0  0  0  0  0
    1.2893    0.7233    1.7675 C   0  0  0  0  0  0  0  0  0  0  0  0
    1.1840    2.8301    3.1301 C   0  0  1  0  0  0  0  0  0  0  0  0
   -0.3606    2.8378    3.3392 C   0  0  0  0  0  0  0  0  0  0  0  0
    0.9008    6.7833    3.7086 H   0  0  0  0  0  0  0  0  0  0  0  0
    0.9984    5.5474    2.4775 H   0  0  0  0  0  0  0  0  0  0  0  0
    2.4686    6.1622    3.2508 H   0  0  0  0  0  0  0  0  0  0  0  0
    3.9133    2.8344    4.1643 H   0  0  0  0  0  0  0  0  0  0  0  0
    3.6932    4.2947    3.2763 H   0  0  0  0  0  0  0  0  0  0  0  0
    4.9911    4.2525    5.6600 H   0  0  0  0  0  0  0  0  0  0  0  0
    4.0849    5.6441    5.1288 H   0  0  0  0  0  0  0  0  0  0  0  0
    2.8686    2.5850    7.3036 H   0  0  0  0  0  0  0  0  0  0  0  0
    1.1424    2.8046    8.7217 H   0  0  0  0  0  0  0  0  0  0  0  0
    0.9490    4.4999    8.3149 H   0  0  0  0  0  0  0  0  0  0  0  0
   -2.8930    3.3597    8.9737 H   0  0  0  0  0  0  0  0  0  0  0  0
   -3.6399    2.9444    6.8051 H   0  0  0  0  0  0  0  0  0  0  0  0
   -3.0105    2.7124    4.4156 H   0  0  0  0  0  0  0  0  0  0  0  0
    3.0843    1.2523    5.4322 H   0  0  0  0  0  0  0  0  0  0  0  0
    1.6947    0.7678    6.3444 H   0  0  0  0  0  0  0  0  0  0  0  0
    1.9135   -0.3543    4.1130 H   0  0  0  0  0  0  0  0  0  0  0  0
    0.3725    0.4241    4.3350 H   0  0  0  0  0  0  0  0  0  0  0  0
    0.2350    0.4413    1.7720 H   0  0  0  0  0  0  0  0  0  0  0  0
    1.8631   -0.1968    1.6521 H   0  0  0  0  0  0  0  0  0  0  0  0
    1.4705    1.3305    0.8825 H   0  0  0  0  0  0  0  0  0  0  0  0
    1.4205    3.3136    2.1849 H   0  0  0  0  0  0  0  0  0  0  0  0
   -0.8545    2.0542    2.7678 H   0  0  0  0  0  0  0  0  0  0  0  0
   -0.7463    3.7621    2.9096 H   0  0  0  0  0  0  0  0  0  0  0  0
    2.7055    1.5243    2.9334 H   0  0  0  0  0  0  0  0  0  0  0  0
  1  2  1  0
  1 24  1  0
  1 25  1  0
  1 26  1  0
  3  2  1  1
  3 17  1  0
  3 22  1  0
  3  4  1  0
  4  5  1  0
  4 27  1  0
  4 28  1  0
  5  6  1  0
  5 29  1  0
  5 30  1  0
  6  7  2  0
  6  8  1  0
  8 17  1  0
  8  9  1  0
  8 31  1  1
  9 10  1  0
  9 32  1  0
  9 33  1  0
 10 16  2  0
 10 11  1  0
 11 12  1  0
 11 13  2  0
 12 34  1  0
 13 14  1  0
 13 35  1  0
 14 15  2  0
 14 36  1  0
 15 23  1  0
 15 16  1  0
 16 17  1  0
 17 18  1  6
 18 19  1  0
 18 37  1  0
 18 38  1  0
 19 20  1  0
 19 39  1  0
 19 40  1  0
 20 21  1  0
 20 22  1  0
 20 47  1  6
 21 41  1  0
 21 42  1  0
 21 43  1  0
 22 23  1  0
 22 44  1  6
 23 45  1  0
 23 46  1  0
M  CHG  1  20   1
M  END
>  <i_m_ct_stereo_status>  (423) 
1

>  <s_m_source_file>  (423) 
/var/tmp/pbs.5076255.sched01/tmpxmhsyh4a/135ajud44o5.sdf

>  <i_m_source_file_index>  (423) 
39

>  <i_lp_mmshare_version>  (423) 
48012

>  <i_f3d_flags>  (423) 
0

>  <s_epik_input>  (423) 
W0NIM11PW0NAQF0xKFtDQEBdMjM0KVtDQEBIXShOKFtDSDNdKVtDSDJdW0NIMl00KVtDSDJdYzVjM2MoYyhbT0hdKVtjSF1bY0hdNSlbQ0gyXVtDQEBIXTJDKD1PKVtDSDJdW0NIMl0x

>  <s_epik_cmdline>  (423) 
J2VwaWtfcHl0aG9uJywgJy1waHQnLCAnMi4wJywgJy1waCcsICc3LjAnLCAnLXRuJywgJzgnLCAnLW1hJywgJzIwMCcsICctaW1hZScsICc8aW5maWxlLm1hZT4nLCAnLW9tYWUnLCAnPG91dGZpbGUubWFlPic=

>  <r_lp_tautomer_probability>  (423) 
1

>  <r_epik_Ionization_Penalty>  (423) 
0.169227

>  <r_epik_Ionization_Penalty_Charging>  (423) 
0.168011

>  <r_epik_Ionization_Penalty_Neutral>  (423) 
0.00121577

>  <r_epik_State_Penalty>  (423) 
0.157372

>  <r_epik_Charging_Adjusted_Penalty>  (423) 
0.325383

>  <i_epik_Tot_Q>  (423) 
1

>  <i_epik_Tot_abs_Q>  (423) 
1

>  <s_lp_Force_Field>  (423) 
OPLS3e

>  <r_lp_Energy>  (423) 
64.1914

>  <b_lp_Chiralities_Consistent>  (423) 
1

>  <s_lp_Variant>  (423) 
116:0-1

>  <s_i_glide_gridfile>  (423) 
pfpi4k_grid

>  <i_i_glide_lignum>  (423) 
39

>  <i_i_glide_rotatable_bonds>  (423) 
2

>  <r_i_docking_score>  (423) 
-2.9455

>  <r_i_glide_ligand_efficiency>  (423) 
-0.128065

>  <r_i_glide_ligand_efficiency_sa>  (423) 
-0.364201

>  <r_i_glide_ligand_efficiency_ln>  (423) 
-0.71225

>  <r_i_glide_gscore>  (423) 
-2.9455

>  <r_i_glide_lipo>  (423) 
-0.174481

>  <r_i_glide_hbond>  (423) 
0

>  <r_i_glide_metal>  (423) 
-0

>  <r_i_glide_rewards>  (423) 
-1.26546

>  <r_i_glide_evdw>  (423) 
-16.2134

>  <r_i_glide_ecoul>  (423) 
-4.55769

>  <r_i_glide_erotb>  (423) 
0

>  <r_i_glide_esite>  (423) 
-0.0112377

>  <r_i_glide_emodel>  (423) 
-25.6438

>  <r_i_glide_energy>  (423) 
-20.7711

>  <r_i_glide_einternal>  (423) 
0.007317

>  <r_i_glide_intrahb_reward>  (423) 
-0

>  <i_i_glide_confnum>  (423) 
2

>  <i_i_glide_posenum>  (423) 
15

>  <r_i_glide_eff_state_penalty>  (423) 
0

>  <ligand_id>  (423) 
116

>  <original_smiles>  (423) 
COC12CCC(=O)C3Cc4c(O)ccc5c4C31CCN(C)C2C5

>  <smiles>  (423) 
[H]Oc1c([H])c([H])c2c3c1C([H])([H])C1([H])C(=O)C([H])([H])C([H])([H])C4(OC([H])([H])[H])C31C([H])([H])C([H])([H])[N+]([H])(C([H])([H])[H])C4([H])C2([H])[H]

$$$$
116:1:0
     RDKit          3D

 46 50  0  0  1  0  0  0  0  0999 V2000
    4.9529   -6.4369    0.3850 C   0  0  0  0  0  0  0  0  0  0  0  0
    5.2617   -5.1017    0.0018 O   0  0  0  0  0  0  0  0  0  0  0  0
    5.1759   -4.0274    0.9597 C   0  0  1  0  0  0  0  0  0  0  0  0
    6.5020   -4.0048    1.7564 C   0  0  0  0  0  0  0  0  0  0  0  0
    7.7480   -3.8864    0.8435 C   0  0  0  0  0  0  0  0  0  0  0  0
    7.4850   -3.2059   -0.5093 C   0  0  0  0  0  0  0  0  0  0  0  0
    8.2388   -3.3981   -1.4491 O   0  0  0  0  0  0  0  0  0  0  0  0
    6.2886   -2.2471   -0.6238 C   0  0  1  0  0  0  0  0  0  0  0  0
    5.7679   -1.9925   -2.0594 C   0  0  0  0  0  0  0  0  0  0  0  0
    4.3144   -2.3813   -2.0843 C   0  0  0  0  0  0  0  0  0  0  0  0
    3.3601   -2.4142   -3.1206 C   0  0  0  0  0  0  0  0  0  0  0  0
    3.6178   -1.8724   -4.3543 O   0  0  0  0  0  0  0  0  0  0  0  0
    2.1147   -3.0090   -2.8644 C   0  0  0  0  0  0  0  0  0  0  0  0
    1.8167   -3.5703   -1.6029 C   0  0  0  0  0  0  0  0  0  0  0  0
    2.7504   -3.4906   -0.5416 C   0  0  0  0  0  0  0  0  0  0  0  0
    3.9504   -2.8627   -0.8354 C   0  0  0  0  0  0  0  0  0  0  0  0
    5.0531   -2.6789    0.1899 C   0  0  1  0  0  0  0  0  0  0  0  0
    4.7408   -1.4848    1.1379 C   0  0  0  0  0  0  0  0  0  0  0  0
    3.5921   -1.7480    2.1114 C   0  0  0  0  0  0  0  0  0  0  0  0
    3.7294   -3.0477    2.7708 N   0  0  0  0  0  0  0  0  0  0  0  0
    2.6616   -3.2636    3.7514 C   0  0  0  0  0  0  0  0  0  0  0  0
    3.8642   -4.1335    1.7834 C   0  0  1  0  0  0  0  0  0  0  0  0
    2.6366   -4.1936    0.8203 C   0  0  0  0  0  0  0  0  0  0  0  0
    5.0049   -7.0598   -0.4998 H   0  0  0  0  0  0  0  0  0  0  0  0
    3.9167   -6.5831    0.6664 H   0  0  0  0  0  0  0  0  0  0  0  0
    5.5991   -6.8099    1.1781 H   0  0  0  0  0  0  0  0  0  0  0  0
    6.4832   -3.1551    2.4325 H   0  0  0  0  0  0  0  0  0  0  0  0
    6.5936   -4.8863    2.3931 H   0  0  0  0  0  0  0  0  0  0  0  0
    8.5661   -3.3465    1.3135 H   0  0  0  0  0  0  0  0  0  0  0  0
    8.1347   -4.8851    0.6442 H   0  0  0  0  0  0  0  0  0  0  0  0
    6.6763   -1.2985   -0.2407 H   0  0  0  0  0  0  0  0  0  0  0  0
    5.8046   -0.9372   -2.3189 H   0  0  0  0  0  0  0  0  0  0  0  0
    6.2840   -2.5799   -2.8188 H   0  0  0  0  0  0  0  0  0  0  0  0
    2.8212   -1.8505   -4.8731 H   0  0  0  0  0  0  0  0  0  0  0  0
    1.3523   -3.0442   -3.6365 H   0  0  0  0  0  0  0  0  0  0  0  0
    0.8722   -4.0719   -1.4688 H   0  0  0  0  0  0  0  0  0  0  0  0
    5.6276   -1.2519    1.7333 H   0  0  0  0  0  0  0  0  0  0  0  0
    4.5386   -0.5789    0.5606 H   0  0  0  0  0  0  0  0  0  0  0  0
    3.5633   -0.9530    2.8518 H   0  0  0  0  0  0  0  0  0  0  0  0
    2.6501   -1.6918    1.5684 H   0  0  0  0  0  0  0  0  0  0  0  0
    2.7696   -4.2305    4.2419 H   0  0  0  0  0  0  0  0  0  0  0  0
    1.6697   -3.2250    3.3065 H   0  0  0  0  0  0  0  0  0  0  0  0
    2.6849   -2.4947    4.5179 H   0  0  0  0  0  0  0  0  0  0  0  0
    3.8958   -5.0613    2.3484 H   0  0  0  0  0  0  0  0  0  0  0  0
    1.8004   -3.7872    1.3625 H   0  0  0  0  0  0  0  0  0  0  0  0
    2.3508   -5.2096    0.5882 H   0  0  0  0  0  0  0  0  0  0  0  0
  1  2  1  0
  1 24  1  0
  1 25  1  0
  1 26  1  0
  3  2  1  6
  3 17  1  0
  3 22  1  0
  3  4  1  0
  4  5  1  0
  4 27  1  0
  4 28  1  0
  5  6  1  0
  5 29  1  0
  5 30  1  0
  6  7  2  0
  6  8  1  0
  8 17  1  0
  8  9  1  0
  8 31  1  1
  9 10  1  0
  9 32  1  0
  9 33  1  0
 10 16  2  0
 10 11  1  0
 11 12  1  0
 11 13  2  0
 12 34  1  0
 13 14  1  0
 13 35  1  0
 14 15  2  0
 14 36  1  0
 15 23  1  0
 15 16  1  0
 16 17  1  0
 17 18  1  1
 18 19  1  0
 18 37  1  0
 18 38  1  0
 19 20  1  0
 19 39  1  0
 19 40  1  0
 20 21  1  0
 20 22  1  0
 21 41  1  0
 21 42  1  0
 21 43  1  0
 22 23  1  0
 22 44  1  1
 23 45  1  0
 23 46  1  0
M  END
>  <i_m_ct_stereo_status>  (424) 
1

>  <s_m_source_file>  (424) 
/var/tmp/pbs.5076255.sched01/tmpxmhsyh4a/135ajud44o5.sdf

>  <i_m_source_file_index>  (424) 
40

>  <i_lp_mmshare_version>  (424) 
48012

>  <i_f3d_flags>  (424) 
0

>  <s_epik_input>  (424) 
W0NIM11PW0NAQF0xKFtDQEBdMjM0KVtDQEBIXShOKFtDSDNdKVtDSDJdW0NIMl00KVtDSDJdYzVjM2MoYyhbT0hdKVtjSF1bY0hdNSlbQ0gyXVtDQEBIXTJDKD1PKVtDSDJdW0NIMl0x

>  <s_epik_cmdline>  (424) 
J2VwaWtfcHl0aG9uJywgJy1waHQnLCAnMi4wJywgJy1waCcsICc3LjAnLCAnLXRuJywgJzgnLCAnLW1hJywgJzIwMCcsICctaW1hZScsICc8aW5maWxlLm1hZT4nLCAnLW9tYWUnLCAnPG91dGZpbGUubWFlPic=

>  <r_lp_tautomer_probability>  (424) 
1

>  <r_epik_Ionization_Penalty>  (424) 
0.828871

>  <r_epik_Ionization_Penalty_Charging>  (424) 
0

>  <r_epik_Ionization_Penalty_Neutral>  (424) 
0.828871

>  <r_epik_State_Penalty>  (424) 
0.862412

>  <r_epik_Charging_Adjusted_Penalty>  (424) 
0.862412

>  <i_epik_Tot_Q>  (424) 
0

>  <i_epik_Tot_abs_Q>  (424) 
0

>  <s_lp_Force_Field>  (424) 
OPLS3e

>  <r_lp_Energy>  (424) 
57.3002

>  <b_lp_Chiralities_Consistent>  (424) 
1

>  <s_lp_Variant>  (424) 
116:0-2

>  <s_i_glide_gridfile>  (424) 
pfpi4k_grid

>  <i_i_glide_lignum>  (424) 
40

>  <i_i_glide_rotatable_bonds>  (424) 
2

>  <r_i_docking_score>  (424) 
-4.08916

>  <r_i_glide_ligand_efficiency>  (424) 
-0.17779

>  <r_i_glide_ligand_efficiency_sa>  (424) 
-0.50561

>  <r_i_glide_ligand_efficiency_ln>  (424) 
-0.988796

>  <r_i_glide_gscore>  (424) 
-4.08916

>  <r_i_glide_lipo>  (424) 
-0.699244

>  <r_i_glide_hbond>  (424) 
-0.589889

>  <r_i_glide_metal>  (424) 
-0

>  <r_i_glide_rewards>  (424) 
-1.46635

>  <r_i_glide_evdw>  (424) 
-22.2343

>  <r_i_glide_ecoul>  (424) 
-1.47973

>  <r_i_glide_erotb>  (424) 
0

>  <r_i_glide_esite>  (424) 
0

>  <r_i_glide_emodel>  (424) 
-26.0571

>  <r_i_glide_energy>  (424) 
-23.714

>  <r_i_glide_einternal>  (424) 
2.46051

>  <r_i_glide_intrahb_reward>  (424) 
-0

>  <i_i_glide_confnum>  (424) 
1

>  <i_i_glide_posenum>  (424) 
16

>  <r_i_glide_eff_state_penalty>  (424) 
0

>  <ligand_id>  (424) 
116

>  <original_smiles>  (424) 
COC12CCC(=O)C3Cc4c(O)ccc5c4C31CCN(C)C2C5

>  <smiles>  (424) 
[H]Oc1c([H])c([H])c2c3c1C([H])([H])C1([H])C(=O)C([H])([H])C([H])([H])C4(OC([H])([H])[H])C([H])(N(C([H])([H])[H])C([H])([H])C([H])([H])C314)C2([H])[H]

$$$$
117:0:0
     RDKit          3D

 25 27  0  0  1  0  0  0  0  0999 V2000
    3.5019   -1.7382   -3.7890 C   0  0  0  0  0  0  0  0  0  0  0  0
    3.5065   -2.6310   -2.5639 C   0  0  0  0  0  0  0  0  0  0  0  0
    4.7030   -3.0416   -1.9455 C   0  0  0  0  0  0  0  0  0  0  0  0
    4.6353   -3.8593   -0.7968 C   0  0  0  0  0  0  0  0  0  0  0  0
    3.3614   -4.2435   -0.3055 C   0  0  0  0  0  0  0  0  0  0  0  0
    3.2214   -5.1079    0.8101 N   0  0  0  0  0  0  0  0  0  0  0  0
    4.1470   -5.1865    1.7911 C   0  0  0  0  0  0  0  0  0  0  0  0
    3.8693   -6.0069    2.8055 N   0  0  0  0  0  0  0  0  0  0  0  0
    2.6297   -6.5129    2.4343 C   0  0  0  0  0  0  0  0  0  0  0  0
    1.8756   -7.3884    3.1139 N   0  0  0  0  0  0  0  0  0  0  0  0
    0.7002   -7.7149    2.5148 C   0  0  0  0  0  0  0  0  0  0  0  0
    0.2760   -7.1620    1.2826 C   0  0  0  0  0  0  0  0  0  0  0  0
    1.0039   -6.2545    0.5898 N   0  0  0  0  0  0  0  0  0  0  0  0
    2.1936   -5.9595    1.1967 C   0  0  0  0  0  0  0  0  0  0  0  0
    2.2192   -3.8378   -0.8970 N   0  0  0  0  0  0  0  0  0  0  0  0
    2.2938   -3.0673   -1.9999 C   0  0  0  0  0  0  0  0  0  0  0  0
    4.4434   -1.2028   -3.8835 H   0  0  0  0  0  0  0  0  0  0  0  0
    2.6981   -1.0028   -3.7303 H   0  0  0  0  0  0  0  0  0  0  0  0
    3.3516   -2.3274   -4.6904 H   0  0  0  0  0  0  0  0  0  0  0  0
    5.6566   -2.7411   -2.3582 H   0  0  0  0  0  0  0  0  0  0  0  0
    5.5450   -4.2028   -0.3297 H   0  0  0  0  0  0  0  0  0  0  0  0
    5.0576   -4.6099    1.7921 H   0  0  0  0  0  0  0  0  0  0  0  0
    0.0765   -8.4351    3.0265 H   0  0  0  0  0  0  0  0  0  0  0  0
   -0.6584   -7.4569    0.8367 H   0  0  0  0  0  0  0  0  0  0  0  0
    1.3497   -2.7920   -2.4405 H   0  0  0  0  0  0  0  0  0  0  0  0
  1  2  1  0
  1 17  1  0
  1 18  1  0
  1 19  1  0
  2 16  2  0
  2  3  1  0
  3  4  2  0
  3 20  1  0
  4  5  1  0
  4 21  1  0
  5  6  1  0
  5 15  2  0
  6 14  1  0
  6  7  1  0
  7  8  2  0
  7 22  1  0
  8  9  1  0
  9 14  2  0
  9 10  1  0
 10 11  2  0
 11 12  1  0
 11 23  1  0
 12 13  2  0
 12 24  1  0
 13 14  1  0
 15 16  1  0
 16 25  1  0
M  END
>  <i_m_ct_stereo_status>  (425) 
1

>  <s_m_source_file>  (425) 
/var/tmp/pbs.5076255.sched01/tmpxmhsyh4a/135ajud44o5.sdf

>  <i_m_source_file_index>  (425) 
41

>  <i_lp_mmshare_version>  (425) 
48012

>  <i_f3d_flags>  (425) 
0

>  <s_epik_input>  (425) 
W0NIM11jMVtjSF1bY0hdYyhuW2NIXTEpLW4oW2NIXW4yKWMoYzIzKW5bY0hdW2NIXW4z

>  <s_epik_cmdline>  (425) 
J2VwaWtfcHl0aG9uJywgJy1waHQnLCAnMi4wJywgJy1waCcsICc3LjAnLCAnLXRuJywgJzgnLCAnLW1hJywgJzIwMCcsICctaW1hZScsICc8aW5maWxlLm1hZT4nLCAnLW9tYWUnLCAnPG91dGZpbGUubWFlPic=

>  <r_lp_tautomer_probability>  (425) 
1

>  <r_epik_Ionization_Penalty>  (425) 
2.68625e-07

>  <r_epik_Ionization_Penalty_Charging>  (425) 
0

>  <r_epik_Ionization_Penalty_Neutral>  (425) 
2.68625e-07

>  <r_epik_State_Penalty>  (425) 
-0

>  <r_epik_Charging_Adjusted_Penalty>  (425) 
0

>  <i_epik_Tot_Q>  (425) 
0

>  <i_epik_Tot_abs_Q>  (425) 
0

>  <s_lp_Force_Field>  (425) 
OPLS3e

>  <r_lp_Energy>  (425) 
24.8113

>  <b_lp_Chiralities_Consistent>  (425) 
1

>  <s_lp_Variant>  (425) 
117:0-1

>  <s_i_glide_gridfile>  (425) 
pfpi4k_grid

>  <i_i_glide_lignum>  (425) 
41

>  <i_i_glide_rotatable_bonds>  (425) 
1

>  <r_i_docking_score>  (425) 
-3.48503

>  <r_i_glide_ligand_efficiency>  (425) 
-0.217815

>  <r_i_glide_ligand_efficiency_sa>  (425) 
-0.548858

>  <r_i_glide_ligand_efficiency_ln>  (425) 
-0.923778

>  <r_i_glide_gscore>  (425) 
-3.48503

>  <r_i_glide_lipo>  (425) 
-0.234338

>  <r_i_glide_hbond>  (425) 
-0.16

>  <r_i_glide_metal>  (425) 
-0

>  <r_i_glide_rewards>  (425) 
-1.98879

>  <r_i_glide_evdw>  (425) 
-20.5026

>  <r_i_glide_ecoul>  (425) 
-2.49206

>  <r_i_glide_erotb>  (425) 
0.372696

>  <r_i_glide_esite>  (425) 
-0.0756626

>  <r_i_glide_emodel>  (425) 
-28.6453

>  <r_i_glide_energy>  (425) 
-22.9947

>  <r_i_glide_einternal>  (425) 
0.160835

>  <r_i_glide_intrahb_reward>  (425) 
-0

>  <i_i_glide_confnum>  (425) 
3

>  <i_i_glide_posenum>  (425) 
3

>  <r_i_glide_eff_state_penalty>  (425) 
0

>  <ligand_id>  (425) 
117

>  <original_smiles>  (425) 
Cc1ccc(-n2cnc3nccnc32)nc1

>  <smiles>  (425) 
[H]c1nc2nc([H])n(-c3nc([H])c(C([H])([H])[H])c([H])c3[H])c2nc1[H]

$$$$
117:0:1
     RDKit          3D

 25 27  0  0  1  0  0  0  0  0999 V2000
   -1.3678   -9.1853    2.8846 C   0  0  0  0  0  0  0  0  0  0  0  0
   -0.0632   -8.5325    2.4804 C   0  0  0  0  0  0  0  0  0  0  0  0
    1.1777   -9.1469    2.7450 C   0  0  0  0  0  0  0  0  0  0  0  0
    2.3584   -8.4962    2.3300 C   0  0  0  0  0  0  0  0  0  0  0  0
    2.2646   -7.2445    1.6664 C   0  0  0  0  0  0  0  0  0  0  0  0
    3.4123   -6.5393    1.2013 N   0  0  0  0  0  0  0  0  0  0  0  0
    4.6812   -6.9763    1.3743 C   0  0  0  0  0  0  0  0  0  0  0  0
    5.6528   -6.2023    0.8850 N   0  0  0  0  0  0  0  0  0  0  0  0
    4.9322   -5.1547    0.3307 C   0  0  0  0  0  0  0  0  0  0  0  0
    5.4235   -4.0815   -0.3026 N   0  0  0  0  0  0  0  0  0  0  0  0
    4.4855   -3.2095   -0.7542 C   0  0  0  0  0  0  0  0  0  0  0  0
    3.0947   -3.3952   -0.5711 C   0  0  0  0  0  0  0  0  0  0  0  0
    2.5769   -4.4607    0.0793 N   0  0  0  0  0  0  0  0  0  0  0  0
    3.5306   -5.3335    0.5160 C   0  0  0  0  0  0  0  0  0  0  0  0
    1.0602   -6.6707    1.4228 N   0  0  0  0  0  0  0  0  0  0  0  0
   -0.0617   -7.3014    1.8095 C   0  0  0  0  0  0  0  0  0  0  0  0
   -1.2260  -10.2514    3.0423 H   0  0  0  0  0  0  0  0  0  0  0  0
   -2.1279   -9.0519    2.1141 H   0  0  0  0  0  0  0  0  0  0  0  0
   -1.7425   -8.7558    3.8145 H   0  0  0  0  0  0  0  0  0  0  0  0
    1.2243  -10.1045    3.2489 H   0  0  0  0  0  0  0  0  0  0  0  0
    3.3019   -8.9818    2.5184 H   0  0  0  0  0  0  0  0  0  0  0  0
    4.9399   -7.8895    1.8823 H   0  0  0  0  0  0  0  0  0  0  0  0
    4.8450   -2.3297   -1.2704 H   0  0  0  0  0  0  0  0  0  0  0  0
    2.3783   -2.6809   -0.9478 H   0  0  0  0  0  0  0  0  0  0  0  0
   -0.9831   -6.7879    1.5863 H   0  0  0  0  0  0  0  0  0  0  0  0
  1  2  1  0
  1 17  1  0
  1 18  1  0
  1 19  1  0
  2 16  2  0
  2  3  1  0
  3  4  2  0
  3 20  1  0
  4  5  1  0
  4 21  1  0
  5  6  1  0
  5 15  2  0
  6 14  1  0
  6  7  1  0
  7  8  2  0
  7 22  1  0
  8  9  1  0
  9 14  2  0
  9 10  1  0
 10 11  2  0
 11 12  1  0
 11 23  1  0
 12 13  2  0
 12 24  1  0
 13 14  1  0
 15 16  1  0
 16 25  1  0
M  END
>  <i_m_ct_stereo_status>  (426) 
1

>  <s_m_source_file>  (426) 
/var/tmp/pbs.5076255.sched01/tmpxmhsyh4a/135ajud44o5.sdf

>  <i_m_source_file_index>  (426) 
41

>  <i_lp_mmshare_version>  (426) 
48012

>  <i_f3d_flags>  (426) 
0

>  <s_epik_input>  (426) 
W0NIM11jMVtjSF1bY0hdYyhuW2NIXTEpLW4oW2NIXW4yKWMoYzIzKW5bY0hdW2NIXW4z

>  <s_epik_cmdline>  (426) 
J2VwaWtfcHl0aG9uJywgJy1waHQnLCAnMi4wJywgJy1waCcsICc3LjAnLCAnLXRuJywgJzgnLCAnLW1hJywgJzIwMCcsICctaW1hZScsICc8aW5maWxlLm1hZT4nLCAnLW9tYWUnLCAnPG91dGZpbGUubWFlPic=

>  <r_lp_tautomer_probability>  (426) 
1

>  <r_epik_Ionization_Penalty>  (426) 
2.68625e-07

>  <r_epik_Ionization_Penalty_Charging>  (426) 
0

>  <r_epik_Ionization_Penalty_Neutral>  (426) 
2.68625e-07

>  <r_epik_State_Penalty>  (426) 
-0

>  <r_epik_Charging_Adjusted_Penalty>  (426) 
0

>  <i_epik_Tot_Q>  (426) 
0

>  <i_epik_Tot_abs_Q>  (426) 
0

>  <s_lp_Force_Field>  (426) 
OPLS3e

>  <r_lp_Energy>  (426) 
24.8113

>  <b_lp_Chiralities_Consistent>  (426) 
1

>  <s_lp_Variant>  (426) 
117:0-1

>  <s_i_glide_gridfile>  (426) 
pfpi4k_grid

>  <i_i_glide_lignum>  (426) 
41

>  <i_i_glide_rotatable_bonds>  (426) 
1

>  <r_i_docking_score>  (426) 
-3.34679

>  <r_i_glide_ligand_efficiency>  (426) 
-0.209174

>  <r_i_glide_ligand_efficiency_sa>  (426) 
-0.527086

>  <r_i_glide_ligand_efficiency_ln>  (426) 
-0.887133

>  <r_i_glide_gscore>  (426) 
-3.34679

>  <r_i_glide_lipo>  (426) 
-0.105327

>  <r_i_glide_hbond>  (426) 
-0.00463874

>  <r_i_glide_metal>  (426) 
-0

>  <r_i_glide_rewards>  (426) 
-2.25595

>  <r_i_glide_evdw>  (426) 
-21.8217

>  <r_i_glide_ecoul>  (426) 
-1.61121

>  <r_i_glide_erotb>  (426) 
0.372696

>  <r_i_glide_esite>  (426) 
-0.0208019

>  <r_i_glide_emodel>  (426) 
-28.9557

>  <r_i_glide_energy>  (426) 
-23.4329

>  <r_i_glide_einternal>  (426) 
0.0110248

>  <r_i_glide_intrahb_reward>  (426) 
-0

>  <i_i_glide_confnum>  (426) 
5

>  <i_i_glide_posenum>  (426) 
37

>  <r_i_glide_eff_state_penalty>  (426) 
0

>  <ligand_id>  (426) 
117

>  <original_smiles>  (426) 
Cc1ccc(-n2cnc3nccnc32)nc1

>  <smiles>  (426) 
[H]c1nc2nc([H])n(-c3nc([H])c(C([H])([H])[H])c([H])c3[H])c2nc1[H]

$$$$
117:0:2
     RDKit          3D

 25 27  0  0  1  0  0  0  0  0999 V2000
    4.2850   -1.9540   -0.5965 C   0  0  0  0  0  0  0  0  0  0  0  0
    3.5557   -2.8591    0.3780 C   0  0  0  0  0  0  0  0  0  0  0  0
    3.3412   -4.2199    0.0869 C   0  0  0  0  0  0  0  0  0  0  0  0
    2.6644   -5.0168    1.0318 C   0  0  0  0  0  0  0  0  0  0  0  0
    2.2337   -4.4345    2.2466 C   0  0  0  0  0  0  0  0  0  0  0  0
    1.5223   -5.2337    3.1765 N   0  0  0  0  0  0  0  0  0  0  0  0
    1.6333   -5.0253    4.5058 C   0  0  0  0  0  0  0  0  0  0  0  0
    0.8985   -5.8126    5.2934 N   0  0  0  0  0  0  0  0  0  0  0  0
    0.2574   -6.6222    4.3681 C   0  0  0  0  0  0  0  0  0  0  0  0
   -0.6223   -7.5956    4.6233 N   0  0  0  0  0  0  0  0  0  0  0  0
   -1.1092   -8.2281    3.5255 C   0  0  0  0  0  0  0  0  0  0  0  0
   -0.7535   -7.8683    2.2019 C   0  0  0  0  0  0  0  0  0  0  0  0
    0.1025   -6.8592    1.9097 N   0  0  0  0  0  0  0  0  0  0  0  0
    0.6151   -6.2730    3.0321 C   0  0  0  0  0  0  0  0  0  0  0  0
    2.4371   -3.1226    2.5168 N   0  0  0  0  0  0  0  0  0  0  0  0
    3.0711   -2.3586    1.6019 C   0  0  0  0  0  0  0  0  0  0  0  0
    4.8927   -2.5307   -1.2923 H   0  0  0  0  0  0  0  0  0  0  0  0
    4.9412   -1.2658   -0.0646 H   0  0  0  0  0  0  0  0  0  0  0  0
    3.5755   -1.3666   -1.1763 H   0  0  0  0  0  0  0  0  0  0  0  0
    3.6852   -4.6464   -0.8446 H   0  0  0  0  0  0  0  0  0  0  0  0
    2.4840   -6.0617    0.8261 H   0  0  0  0  0  0  0  0  0  0  0  0
    2.2689   -4.2594    4.9233 H   0  0  0  0  0  0  0  0  0  0  0  0
   -1.8092   -9.0329    3.7037 H   0  0  0  0  0  0  0  0  0  0  0  0
   -1.1731   -8.3945    1.3584 H   0  0  0  0  0  0  0  0  0  0  0  0
    3.2046   -1.3202    1.8580 H   0  0  0  0  0  0  0  0  0  0  0  0
  1  2  1  0
  1 17  1  0
  1 18  1  0
  1 19  1  0
  2 16  2  0
  2  3  1  0
  3  4  2  0
  3 20  1  0
  4  5  1  0
  4 21  1  0
  5  6  1  0
  5 15  2  0
  6 14  1  0
  6  7  1  0
  7  8  2  0
  7 22  1  0
  8  9  1  0
  9 14  2  0
  9 10  1  0
 10 11  2  0
 11 12  1  0
 11 23  1  0
 12 13  2  0
 12 24  1  0
 13 14  1  0
 15 16  1  0
 16 25  1  0
M  END
>  <i_m_ct_stereo_status>  (427) 
1

>  <s_m_source_file>  (427) 
/var/tmp/pbs.5076255.sched01/tmpxmhsyh4a/135ajud44o5.sdf

>  <i_m_source_file_index>  (427) 
41

>  <i_lp_mmshare_version>  (427) 
48012

>  <i_f3d_flags>  (427) 
0

>  <s_epik_input>  (427) 
W0NIM11jMVtjSF1bY0hdYyhuW2NIXTEpLW4oW2NIXW4yKWMoYzIzKW5bY0hdW2NIXW4z

>  <s_epik_cmdline>  (427) 
J2VwaWtfcHl0aG9uJywgJy1waHQnLCAnMi4wJywgJy1waCcsICc3LjAnLCAnLXRuJywgJzgnLCAnLW1hJywgJzIwMCcsICctaW1hZScsICc8aW5maWxlLm1hZT4nLCAnLW9tYWUnLCAnPG91dGZpbGUubWFlPic=

>  <r_lp_tautomer_probability>  (427) 
1

>  <r_epik_Ionization_Penalty>  (427) 
2.68625e-07

>  <r_epik_Ionization_Penalty_Charging>  (427) 
0

>  <r_epik_Ionization_Penalty_Neutral>  (427) 
2.68625e-07

>  <r_epik_State_Penalty>  (427) 
-0

>  <r_epik_Charging_Adjusted_Penalty>  (427) 
0

>  <i_epik_Tot_Q>  (427) 
0

>  <i_epik_Tot_abs_Q>  (427) 
0

>  <s_lp_Force_Field>  (427) 
OPLS3e

>  <r_lp_Energy>  (427) 
24.8113

>  <b_lp_Chiralities_Consistent>  (427) 
1

>  <s_lp_Variant>  (427) 
117:0-1

>  <s_i_glide_gridfile>  (427) 
pfpi4k_grid

>  <i_i_glide_lignum>  (427) 
41

>  <i_i_glide_rotatable_bonds>  (427) 
1

>  <r_i_docking_score>  (427) 
-3.02265

>  <r_i_glide_ligand_efficiency>  (427) 
-0.188915

>  <r_i_glide_ligand_efficiency_sa>  (427) 
-0.476037

>  <r_i_glide_ligand_efficiency_ln>  (427) 
-0.801213

>  <r_i_glide_gscore>  (427) 
-3.02265

>  <r_i_glide_lipo>  (427) 
0

>  <r_i_glide_hbond>  (427) 
-0.036236

>  <r_i_glide_metal>  (427) 
-0

>  <r_i_glide_rewards>  (427) 
-1.96894

>  <r_i_glide_evdw>  (427) 
-18.0282

>  <r_i_glide_ecoul>  (427) 
-2.48882

>  <r_i_glide_erotb>  (427) 
0.372696

>  <r_i_glide_esite>  (427) 
-0.115438

>  <r_i_glide_emodel>  (427) 
-25.2612

>  <r_i_glide_energy>  (427) 
-20.517

>  <r_i_glide_einternal>  (427) 
0.537608

>  <r_i_glide_intrahb_reward>  (427) 
-0

>  <i_i_glide_confnum>  (427) 
4

>  <i_i_glide_posenum>  (427) 
20

>  <r_i_glide_eff_state_penalty>  (427) 
0

>  <ligand_id>  (427) 
117

>  <original_smiles>  (427) 
Cc1ccc(-n2cnc3nccnc32)nc1

>  <smiles>  (427) 
[H]c1nc2nc([H])n(-c3nc([H])c(C([H])([H])[H])c([H])c3[H])c2nc1[H]

$$$$
119:0:0
     RDKit          3D

 72 77  0  0  1  0  0  0  0  0999 V2000
    7.1178   -7.2218    6.1037 C   0  0  0  0  0  0  0  0  0  0  0  0
    6.6888   -7.5519    4.6595 C   0  0  0  0  0  0  0  0  0  0  0  0
    7.7059   -8.4905    3.9912 C   0  0  0  0  0  0  0  0  0  0  0  0
    5.4770   -8.3162    4.7025 O   0  0  0  0  0  0  0  0  0  0  0  0
    4.4401   -7.5369    4.1368 C   0  0  1  0  0  0  0  0  0  0  0  0
    5.1319   -6.7462    3.0258 C   0  0  1  0  0  0  0  0  0  0  0  0
    4.1857   -5.7055    2.3984 C   0  0  1  0  0  0  0  0  0  0  0  0
    4.7802   -4.9092    1.2424 C   0  0  0  0  0  0  0  0  0  0  0  0
    5.9376   -5.0481    0.6017 C   0  0  0  0  0  0  0  0  0  0  0  0
    6.0420   -4.2257   -0.4820 O   0  0  0  0  0  0  0  0  0  0  0  0
    4.8826   -3.4485   -0.6057 C   0  0  1  0  0  0  0  0  0  0  0  0
    4.2898   -3.5368   -1.8836 O   0  0  0  0  0  0  0  0  0  0  0  0
    3.9290   -3.8920    0.5555 C   0  0  2  0  0  0  0  0  0  0  0  0
    3.6409   -2.6699    1.4509 C   0  0  0  0  0  0  0  0  0  0  0  0
    2.6293   -4.5992    0.0933 C   0  0  0  0  0  0  0  0  0  0  0  0
    1.9468   -5.3792    1.2430 C   0  0  0  0  0  0  0  0  0  0  0  0
    2.8793   -6.4091    1.9188 C   0  0  2  0  0  0  0  0  0  0  0  0
    2.1936   -7.1724    3.0957 C   0  0  1  0  0  0  0  0  0  0  0  0
    0.7033   -7.5831    2.8954 C   0  0  0  0  0  0  0  0  0  0  0  0
    0.1438   -8.6456    3.8908 C   0  0  1  0  0  0  0  0  0  0  0  0
   -1.2251   -8.3410    4.1095 O   0  0  0  0  0  0  0  0  0  0  0  0
    0.0288  -10.0377    3.2153 C   0  0  0  0  0  0  0  0  0  0  0  0
    1.3668  -10.6977    2.9659 C   0  0  0  0  0  0  0  0  0  0  0  0
    1.6700  -11.7788    3.4719 O   0  0  0  0  0  0  0  0  0  0  0  0
    2.1601   -9.9206    2.2404 O   0  0  0  0  0  0  0  0  0  0  0  0
    3.3563   -9.5567    2.8492 C   0  0  1  0  0  0  0  0  0  0  0  0
    4.3324   -9.4072    1.8483 O   0  0  0  0  0  0  0  0  0  0  0  0
    3.1054   -8.2652    3.7644 C   0  0  1  0  0  0  0  0  0  0  0  0
    2.4528   -8.7756    5.1011 C   0  0  0  0  0  0  0  0  0  0  0  0
    0.9008   -8.6339    5.2765 C   0  0  0  0  0  0  0  0  0  0  0  0
    0.5826   -7.3347    6.0639 C   0  0  0  0  0  0  0  0  0  0  0  0
    0.4404   -9.8018    6.1898 C   0  0  0  0  0  0  0  0  0  0  0  0
    6.3933   -6.3083    3.7605 C   0  0  1  0  0  0  0  0  0  0  0  0
    6.1719   -5.1245    4.5066 O   0  0  0  0  0  0  0  0  0  0  0  0
    8.0366   -6.6382    6.1247 H   0  0  0  0  0  0  0  0  0  0  0  0
    7.2916   -8.1335    6.6730 H   0  0  0  0  0  0  0  0  0  0  0  0
    6.3514   -6.6550    6.6330 H   0  0  0  0  0  0  0  0  0  0  0  0
    8.6824   -8.0173    3.8906 H   0  0  0  0  0  0  0  0  0  0  0  0
    7.3672   -8.7823    2.9956 H   0  0  0  0  0  0  0  0  0  0  0  0
    7.8275   -9.4028    4.5757 H   0  0  0  0  0  0  0  0  0  0  0  0
    4.1756   -6.8021    4.9041 H   0  0  0  0  0  0  0  0  0  0  0  0
    5.4771   -7.4030    2.2347 H   0  0  0  0  0  0  0  0  0  0  0  0
    3.9151   -4.9725    3.1583 H   0  0  0  0  0  0  0  0  0  0  0  0
    6.7581   -5.7226    0.7639 H   0  0  0  0  0  0  0  0  0  0  0  0
    5.1927   -2.4120   -0.4954 H   0  0  0  0  0  0  0  0  0  0  0  0
    3.9259   -4.4078   -1.9911 H   0  0  0  0  0  0  0  0  0  0  0  0
    3.0983   -1.9064    0.8950 H   0  0  0  0  0  0  0  0  0  0  0  0
    4.5647   -2.2240    1.8171 H   0  0  0  0  0  0  0  0  0  0  0  0
    3.0400   -2.9299    2.3216 H   0  0  0  0  0  0  0  0  0  0  0  0
    1.9432   -3.8738   -0.3468 H   0  0  0  0  0  0  0  0  0  0  0  0
    2.8598   -5.3159   -0.6906 H   0  0  0  0  0  0  0  0  0  0  0  0
    1.5821   -4.6801    1.9951 H   0  0  0  0  0  0  0  0  0  0  0  0
    1.0755   -5.8822    0.8310 H   0  0  0  0  0  0  0  0  0  0  0  0
    3.1372   -7.1413    1.1532 H   0  0  0  0  0  0  0  0  0  0  0  0
    2.1237   -6.3939    3.8541 H   0  0  0  0  0  0  0  0  0  0  0  0
    0.1009   -6.6794    2.9749 H   0  0  0  0  0  0  0  0  0  0  0  0
    0.5516   -7.9264    1.8722 H   0  0  0  0  0  0  0  0  0  0  0  0
   -1.6353   -9.1340    4.4465 H   0  0  0  0  0  0  0  0  0  0  0  0
   -0.5634  -10.7102    3.8321 H   0  0  0  0  0  0  0  0  0  0  0  0
   -0.4998   -9.9638    2.2636 H   0  0  0  0  0  0  0  0  0  0  0  0
    3.7369  -10.3763    3.4688 H   0  0  0  0  0  0  0  0  0  0  0  0
    4.3976  -10.2376    1.3927 H   0  0  0  0  0  0  0  0  0  0  0  0
    2.7468   -9.8142    5.2712 H   0  0  0  0  0  0  0  0  0  0  0  0
    2.9166   -8.2733    5.9502 H   0  0  0  0  0  0  0  0  0  0  0  0
    1.1219   -7.2926    7.0096 H   0  0  0  0  0  0  0  0  0  0  0  0
   -0.4727   -7.2694    6.3127 H   0  0  0  0  0  0  0  0  0  0  0  0
    0.8099   -6.4244    5.5165 H   0  0  0  0  0  0  0  0  0  0  0  0
    0.9094   -9.7533    7.1752 H   0  0  0  0  0  0  0  0  0  0  0  0
    0.7108  -10.7767    5.7750 H   0  0  0  0  0  0  0  0  0  0  0  0
   -0.6377   -9.8105    6.3456 H   0  0  0  0  0  0  0  0  0  0  0  0
    7.2135   -6.1113    3.0698 H   0  0  0  0  0  0  0  0  0  0  0  0
    5.9670   -4.4296    3.8981 H   0  0  0  0  0  0  0  0  0  0  0  0
  1  2  1  0
  1 35  1  0
  1 36  1  0
  1 37  1  0
  2 33  1  0
  2  3  1  0
  2  4  1  0
  3 38  1  0
  3 39  1  0
  3 40  1  0
  4  5  1  0
  5 28  1  0
  5  6  1  0
  5 41  1  1
  6  7  1  0
  6 33  1  0
  6 42  1  6
  7 17  1  0
  7  8  1  0
  7 43  1  1
  8 13  1  0
  8  9  2  0
  9 10  1  0
  9 44  1  0
 10 11  1  0
 11 12  1  0
 11 13  1  0
 11 45  1  1
 12 46  1  0
 13 14  1  1
 13 15  1  0
 14 47  1  0
 14 48  1  0
 14 49  1  0
 15 16  1  0
 15 50  1  0
 15 51  1  0
 16 17  1  0
 16 52  1  0
 16 53  1  0
 17 18  1  0
 17 54  1  6
 18 28  1  0
 18 19  1  0
 18 55  1  1
 19 20  1  0
 19 56  1  0
 19 57  1  0
 20 30  1  0
 20 21  1  1
 20 22  1  0
 21 58  1  0
 22 23  1  0
 22 59  1  0
 22 60  1  0
 23 24  2  0
 23 25  1  0
 25 26  1  0
 26 27  1  0
 26 28  1  0
 26 61  1  1
 27 62  1  0
 28 29  1  1
 29 30  1  0
 29 63  1  0
 29 64  1  0
 30 31  1  0
 30 32  1  0
 31 65  1  0
 31 66  1  0
 31 67  1  0
 32 68  1  0
 32 69  1  0
 32 70  1  0
 33 34  1  0
 33 71  1  6
 34 72  1  0
M  END
>  <i_m_ct_stereo_status>  (428) 
1

>  <s_m_source_file>  (428) 
/var/tmp/pbs.5076255.sched01/tmpxmhsyh4a/135ajud44o5.sdf

>  <i_m_source_file_index>  (428) 
44

>  <i_lp_mmshare_version>  (428) 
48012

>  <i_f3d_flags>  (428) 
0

>  <s_epik_input>  (428) 
W0NIM11DKE8xKShbQ0gzXSlbQ0BIXShbT0hdKVtDQEBIXShbQ0BIXTFbQ0BAXTIzNClbQ0BIXTVDPTZbQ0BAXShbQ0gzXSkoW0NASF0oW09IXSlPW0NIXTYpW0NIMl1bQ0gyXVtDQEBIXTVbQ0BIXTJbQ0gyXVtDQF0oW09IXSkoQyhbQ0gyXTQpKFtDSDNdKVtDSDNdKVtDSDJdQyg9TylPW0NASF0zW09IXQ==

>  <s_epik_cmdline>  (428) 
J2VwaWtfcHl0aG9uJywgJy1waHQnLCAnMi4wJywgJy1waCcsICc3LjAnLCAnLXRuJywgJzgnLCAnLW1hJywgJzIwMCcsICctaW1hZScsICc8aW5maWxlLm1hZT4nLCAnLW9tYWUnLCAnPG91dGZpbGUubWFlPic=

>  <r_lp_tautomer_probability>  (428) 
1

>  <r_epik_Ionization_Penalty>  (428) 
1.04158e-06

>  <r_epik_Ionization_Penalty_Charging>  (428) 
0

>  <r_epik_Ionization_Penalty_Neutral>  (428) 
1.04158e-06

>  <r_epik_State_Penalty>  (428) 
-0

>  <r_epik_Charging_Adjusted_Penalty>  (428) 
0

>  <i_epik_Tot_Q>  (428) 
0

>  <i_epik_Tot_abs_Q>  (428) 
0

>  <s_epik_Chemistry_Notes>  (428) 
This compound has an ester and may undergo hydrolysis at high or low pH. This compound contains an acetal/aminal-like group ( X-CH(R)-Y where X, Y are N, S, or O) that may be acid/base labile, releasing an aldehyde.

>  <s_lp_Force_Field>  (428) 
OPLS3e

>  <r_lp_Energy>  (428) 
65.2444

>  <b_lp_Chiralities_Consistent>  (428) 
1

>  <s_lp_Variant>  (428) 
119:0-1

>  <s_i_glide_gridfile>  (428) 
pfpi4k_grid

>  <i_i_glide_lignum>  (428) 
44

>  <i_i_glide_rotatable_bonds>  (428) 
4

>  <r_i_docking_score>  (428) 
-3.11921

>  <r_i_glide_ligand_efficiency>  (428) 
-0.0917414

>  <r_i_glide_ligand_efficiency_sa>  (428) 
-0.297206

>  <r_i_glide_ligand_efficiency_ln>  (428) 
-0.68912

>  <r_i_glide_gscore>  (428) 
-3.11921

>  <r_i_glide_lipo>  (428) 
-0.168244

>  <r_i_glide_hbond>  (428) 
-0.122414

>  <r_i_glide_metal>  (428) 
-0

>  <r_i_glide_rewards>  (428) 
-0.404402

>  <r_i_glide_evdw>  (428) 
-28.1084

>  <r_i_glide_ecoul>  (428) 
-6.63155

>  <r_i_glide_erotb>  (428) 
0

>  <r_i_glide_esite>  (428) 
-0.0239955

>  <r_i_glide_emodel>  (428) 
-41.8935

>  <r_i_glide_energy>  (428) 
-34.7399

>  <r_i_glide_einternal>  (428) 
0.901371

>  <r_i_glide_intrahb_reward>  (428) 
-0

>  <i_i_glide_confnum>  (428) 
1

>  <i_i_glide_posenum>  (428) 
33

>  <r_i_glide_eff_state_penalty>  (428) 
0

>  <ligand_id>  (428) 
119

>  <original_smiles>  (428) 
CC1(C)OC2C(C3C4=COC(O)C4(C)CCC3C3CC4(O)CC(=O)OC(O)C32CC4(C)C)C1O

>  <smiles>  (428) 
[H]OC1([H])OC([H])=C2C3([H])C4([H])C([H])(O[H])C(C([H])([H])[H])(C([H])([H])[H])OC4([H])C45C([H])(O[H])OC(=O)C([H])([H])C(O[H])(C([H])([H])C4([H])C3([H])C([H])([H])C([H])([H])C21C([H])([H])[H])C(C([H])([H])[H])(C([H])([H])[H])C5([H])[H]

$$$$
119:0:1
     RDKit          3D

 72 77  0  0  1  0  0  0  0  0999 V2000
    7.2756   -8.3506    6.4169 C   0  0  0  0  0  0  0  0  0  0  0  0
    6.8379   -8.4545    4.9413 C   0  0  0  0  0  0  0  0  0  0  0  0
    7.6495   -9.5366    4.2093 C   0  0  0  0  0  0  0  0  0  0  0  0
    5.4870   -8.9332    4.9011 O   0  0  0  0  0  0  0  0  0  0  0  0
    4.6608   -7.9094    4.3806 C   0  0  1  0  0  0  0  0  0  0  0  0
    5.5498   -7.1934    3.3611 C   0  0  1  0  0  0  0  0  0  0  0  0
    4.8733   -5.9244    2.8075 C   0  0  1  0  0  0  0  0  0  0  0  0
    5.6688   -5.1878    1.7356 C   0  0  0  0  0  0  0  0  0  0  0  0
    6.7932   -5.5198    1.1087 C   0  0  0  0  0  0  0  0  0  0  0  0
    7.1123   -4.6549    0.1035 O   0  0  0  0  0  0  0  0  0  0  0  0
    6.1547   -3.6338    0.0321 C   0  0  1  0  0  0  0  0  0  0  0  0
    5.6047   -3.4831   -1.2598 O   0  0  0  0  0  0  0  0  0  0  0  0
    5.0801   -3.9577    1.1262 C   0  0  2  0  0  0  0  0  0  0  0  0
    5.0284   -2.7835    2.1229 C   0  0  0  0  0  0  0  0  0  0  0  0
    3.6752   -4.3247    0.5739 C   0  0  0  0  0  0  0  0  0  0  0  0
    2.7931   -5.0093    1.6466 C   0  0  0  0  0  0  0  0  0  0  0  0
    3.4593   -6.2782    2.2478 C   0  0  2  0  0  0  0  0  0  0  0  0
    2.5871   -6.9812    3.3385 C   0  0  1  0  0  0  0  0  0  0  0  0
    1.0546   -7.0466    3.0757 C   0  0  0  0  0  0  0  0  0  0  0  0
    0.2439   -8.0440    3.9622 C   0  0  1  0  0  0  0  0  0  0  0  0
   -1.0236   -7.4419    4.1725 O   0  0  0  0  0  0  0  0  0  0  0  0
   -0.1550   -9.3241    3.1723 C   0  0  0  0  0  0  0  0  0  0  0  0
    1.0166  -10.2472    2.8822 C   0  0  0  0  0  0  0  0  0  0  0  0
    1.0550  -11.4124    3.2839 O   0  0  0  0  0  0  0  0  0  0  0  0
    1.9889   -9.6034    2.2396 O   0  0  0  0  0  0  0  0  0  0  0  0
    3.2140   -9.5402    2.9030 C   0  0  1  0  0  0  0  0  0  0  0  0
    4.2426   -9.5233    1.9394 O   0  0  0  0  0  0  0  0  0  0  0  0
    3.2141   -8.2980    3.9213 C   0  0  1  0  0  0  0  0  0  0  0  0
    2.4207   -8.7631    5.1974 C   0  0  0  0  0  0  0  0  0  0  0  0
    0.9299   -8.3053    5.3611 C   0  0  0  0  0  0  0  0  0  0  0  0
    0.8581   -7.0393    6.2592 C   0  0  0  0  0  0  0  0  0  0  0  0
    0.2015   -9.4217    6.1592 C   0  0  0  0  0  0  0  0  0  0  0  0
    6.8554   -7.1074    4.1483 C   0  0  1  0  0  0  0  0  0  0  0  0
    6.9080   -5.9592    4.9806 O   0  0  0  0  0  0  0  0  0  0  0  0
    8.2982   -7.9868    6.5073 H   0  0  0  0  0  0  0  0  0  0  0  0
    7.2285   -9.3243    6.9036 H   0  0  0  0  0  0  0  0  0  0  0  0
    6.6303   -7.6808    6.9849 H   0  0  0  0  0  0  0  0  0  0  0  0
    8.7085   -9.2836    4.1653 H   0  0  0  0  0  0  0  0  0  0  0  0
    7.2925   -9.6648    3.1861 H   0  0  0  0  0  0  0  0  0  0  0  0
    7.5520  -10.5004    4.7099 H   0  0  0  0  0  0  0  0  0  0  0  0
    4.5315   -7.1994    5.2030 H   0  0  0  0  0  0  0  0  0  0  0  0
    5.7733   -7.8420    2.5209 H   0  0  0  0  0  0  0  0  0  0  0  0
    4.7471   -5.2165    3.6254 H   0  0  0  0  0  0  0  0  0  0  0  0
    7.4487   -6.3669    1.2289 H   0  0  0  0  0  0  0  0  0  0  0  0
    6.6787   -2.7029    0.2457 H   0  0  0  0  0  0  0  0  0  0  0  0
    5.0613   -4.2373   -1.4333 H   0  0  0  0  0  0  0  0  0  0  0  0
    4.6850   -1.8741    1.6313 H   0  0  0  0  0  0  0  0  0  0  0  0
    6.0134   -2.5820    2.5416 H   0  0  0  0  0  0  0  0  0  0  0  0
    4.3573   -2.9786    2.9582 H   0  0  0  0  0  0  0  0  0  0  0  0
    3.1745   -3.4343    0.1901 H   0  0  0  0  0  0  0  0  0  0  0  0
    3.7631   -5.0134   -0.2679 H   0  0  0  0  0  0  0  0  0  0  0  0
    2.5592   -4.3027    2.4415 H   0  0  0  0  0  0  0  0  0  0  0  0
    1.8435   -5.2689    1.1817 H   0  0  0  0  0  0  0  0  0  0  0  0
    3.5815   -6.9807    1.4224 H   0  0  0  0  0  0  0  0  0  0  0  0
    2.6575   -6.2740    4.1639 H   0  0  0  0  0  0  0  0  0  0  0  0
    0.6624   -6.0402    3.2251 H   0  0  0  0  0  0  0  0  0  0  0  0
    0.8692   -7.2610    2.0238 H   0  0  0  0  0  0  0  0  0  0  0  0
   -1.6029   -8.1192    4.4920 H   0  0  0  0  0  0  0  0  0  0  0  0
   -0.9124   -9.8871    3.7156 H   0  0  0  0  0  0  0  0  0  0  0  0
   -0.6171   -9.0513    2.2226 H   0  0  0  0  0  0  0  0  0  0  0  0
    3.3885  -10.4673    3.4580 H   0  0  0  0  0  0  0  0  0  0  0  0
    4.2170  -10.3579    1.4816 H   0  0  0  0  0  0  0  0  0  0  0  0
    2.4797   -9.8497    5.2784 H   0  0  0  0  0  0  0  0  0  0  0  0
    2.9526   -8.4499    6.0960 H   0  0  0  0  0  0  0  0  0  0  0  0
    1.3716   -7.1889    7.2085 H   0  0  0  0  0  0  0  0  0  0  0  0
   -0.1696   -6.7775    6.5105 H   0  0  0  0  0  0  0  0  0  0  0  0
    1.2927   -6.1568    5.7974 H   0  0  0  0  0  0  0  0  0  0  0  0
    0.6275   -9.5526    7.1563 H   0  0  0  0  0  0  0  0  0  0  0  0
    0.2768  -10.3968    5.6719 H   0  0  0  0  0  0  0  0  0  0  0  0
   -0.8635   -9.2158    6.2801 H   0  0  0  0  0  0  0  0  0  0  0  0
    7.7183   -7.0497    3.4847 H   0  0  0  0  0  0  0  0  0  0  0  0
    6.1820   -5.9868    5.5831 H   0  0  0  0  0  0  0  0  0  0  0  0
  1  2  1  0
  1 35  1  0
  1 36  1  0
  1 37  1  0
  2 33  1  0
  2  3  1  0
  2  4  1  0
  3 38  1  0
  3 39  1  0
  3 40  1  0
  4  5  1  0
  5 28  1  0
  5  6  1  0
  5 41  1  1
  6  7  1  0
  6 33  1  0
  6 42  1  6
  7 17  1  0
  7  8  1  0
  7 43  1  1
  8 13  1  0
  8  9  2  0
  9 10  1  0
  9 44  1  0
 10 11  1  0
 11 12  1  0
 11 13  1  0
 11 45  1  1
 12 46  1  0
 13 14  1  1
 13 15  1  0
 14 47  1  0
 14 48  1  0
 14 49  1  0
 15 16  1  0
 15 50  1  0
 15 51  1  0
 16 17  1  0
 16 52  1  0
 16 53  1  0
 17 18  1  0
 17 54  1  6
 18 28  1  0
 18 19  1  0
 18 55  1  1
 19 20  1  0
 19 56  1  0
 19 57  1  0
 20 30  1  0
 20 21  1  1
 20 22  1  0
 21 58  1  0
 22 23  1  0
 22 59  1  0
 22 60  1  0
 23 24  2  0
 23 25  1  0
 25 26  1  0
 26 27  1  0
 26 28  1  0
 26 61  1  1
 27 62  1  0
 28 29  1  1
 29 30  1  0
 29 63  1  0
 29 64  1  0
 30 31  1  0
 30 32  1  0
 31 65  1  0
 31 66  1  0
 31 67  1  0
 32 68  1  0
 32 69  1  0
 32 70  1  0
 33 34  1  0
 33 71  1  6
 34 72  1  0
M  END
>  <i_m_ct_stereo_status>  (429) 
1

>  <s_m_source_file>  (429) 
/var/tmp/pbs.5076255.sched01/tmpxmhsyh4a/135ajud44o5.sdf

>  <i_m_source_file_index>  (429) 
44

>  <i_lp_mmshare_version>  (429) 
48012

>  <i_f3d_flags>  (429) 
0

>  <s_epik_input>  (429) 
W0NIM11DKE8xKShbQ0gzXSlbQ0BIXShbT0hdKVtDQEBIXShbQ0BIXTFbQ0BAXTIzNClbQ0BIXTVDPTZbQ0BAXShbQ0gzXSkoW0NASF0oW09IXSlPW0NIXTYpW0NIMl1bQ0gyXVtDQEBIXTVbQ0BIXTJbQ0gyXVtDQF0oW09IXSkoQyhbQ0gyXTQpKFtDSDNdKVtDSDNdKVtDSDJdQyg9TylPW0NASF0zW09IXQ==

>  <s_epik_cmdline>  (429) 
J2VwaWtfcHl0aG9uJywgJy1waHQnLCAnMi4wJywgJy1waCcsICc3LjAnLCAnLXRuJywgJzgnLCAnLW1hJywgJzIwMCcsICctaW1hZScsICc8aW5maWxlLm1hZT4nLCAnLW9tYWUnLCAnPG91dGZpbGUubWFlPic=

>  <r_lp_tautomer_probability>  (429) 
1

>  <r_epik_Ionization_Penalty>  (429) 
1.04158e-06

>  <r_epik_Ionization_Penalty_Charging>  (429) 
0

>  <r_epik_Ionization_Penalty_Neutral>  (429) 
1.04158e-06

>  <r_epik_State_Penalty>  (429) 
-0

>  <r_epik_Charging_Adjusted_Penalty>  (429) 
0

>  <i_epik_Tot_Q>  (429) 
0

>  <i_epik_Tot_abs_Q>  (429) 
0

>  <s_epik_Chemistry_Notes>  (429) 
This compound has an ester and may undergo hydrolysis at high or low pH. This compound contains an acetal/aminal-like group ( X-CH(R)-Y where X, Y are N, S, or O) that may be acid/base labile, releasing an aldehyde.

>  <s_lp_Force_Field>  (429) 
OPLS3e

>  <r_lp_Energy>  (429) 
65.2444

>  <b_lp_Chiralities_Consistent>  (429) 
1

>  <s_lp_Variant>  (429) 
119:0-1

>  <s_i_glide_gridfile>  (429) 
pfpi4k_grid

>  <i_i_glide_lignum>  (429) 
44

>  <i_i_glide_rotatable_bonds>  (429) 
4

>  <r_i_docking_score>  (429) 
-3.01319

>  <r_i_glide_ligand_efficiency>  (429) 
-0.0886233

>  <r_i_glide_ligand_efficiency_sa>  (429) 
-0.287105

>  <r_i_glide_ligand_efficiency_ln>  (429) 
-0.665698

>  <r_i_glide_gscore>  (429) 
-3.01319

>  <r_i_glide_lipo>  (429) 
-0.247906

>  <r_i_glide_hbond>  (429) 
0

>  <r_i_glide_metal>  (429) 
-0

>  <r_i_glide_rewards>  (429) 
-0.450551

>  <r_i_glide_evdw>  (429) 
-32.2464

>  <r_i_glide_ecoul>  (429) 
-4.53961

>  <r_i_glide_erotb>  (429) 
0

>  <r_i_glide_esite>  (429) 
-0.0214714

>  <r_i_glide_emodel>  (429) 
-43.9326

>  <r_i_glide_energy>  (429) 
-36.786

>  <r_i_glide_einternal>  (429) 
0.42948

>  <r_i_glide_intrahb_reward>  (429) 
-0

>  <i_i_glide_confnum>  (429) 
1

>  <i_i_glide_posenum>  (429) 
38

>  <r_i_glide_eff_state_penalty>  (429) 
0

>  <ligand_id>  (429) 
119

>  <original_smiles>  (429) 
CC1(C)OC2C(C3C4=COC(O)C4(C)CCC3C3CC4(O)CC(=O)OC(O)C32CC4(C)C)C1O

>  <smiles>  (429) 
[H]OC1([H])OC([H])=C2C3([H])C4([H])C([H])(O[H])C(C([H])([H])[H])(C([H])([H])[H])OC4([H])C45C([H])(O[H])OC(=O)C([H])([H])C(O[H])(C([H])([H])C4([H])C3([H])C([H])([H])C([H])([H])C21C([H])([H])[H])C(C([H])([H])[H])(C([H])([H])[H])C5([H])[H]

$$$$
119:0:2
     RDKit          3D

 72 77  0  0  1  0  0  0  0  0999 V2000
    3.5740   -1.1871   -2.5029 C   0  0  0  0  0  0  0  0  0  0  0  0
    4.2818   -1.9478   -1.3624 C   0  0  0  0  0  0  0  0  0  0  0  0
    5.7813   -2.0605   -1.6626 C   0  0  0  0  0  0  0  0  0  0  0  0
    4.2270   -1.1802   -0.1513 O   0  0  0  0  0  0  0  0  0  0  0  0
    3.4389   -1.8952    0.7849 C   0  0  1  0  0  0  0  0  0  0  0  0
    3.7471   -3.3625    0.4991 C   0  0  1  0  0  0  0  0  0  0  0  0
    2.8521   -4.3114    1.3171 C   0  0  1  0  0  0  0  0  0  0  0  0
    3.1687   -5.7949    1.1452 C   0  0  0  0  0  0  0  0  0  0  0  0
    4.1696   -6.3984    0.5175 C   0  0  0  0  0  0  0  0  0  0  0  0
    4.2088   -7.7495    0.7288 O   0  0  0  0  0  0  0  0  0  0  0  0
    3.1140   -8.1298    1.5341 C   0  0  1  0  0  0  0  0  0  0  0  0
    3.4785   -8.9147    2.6464 O   0  0  0  0  0  0  0  0  0  0  0  0
    2.3644   -6.7991    1.9131 C   0  0  2  0  0  0  0  0  0  0  0  0
    0.9026   -6.8759    1.4222 C   0  0  0  0  0  0  0  0  0  0  0  0
    2.4558   -6.4166    3.4104 C   0  0  0  0  0  0  0  0  0  0  0  0
    2.0758   -4.9336    3.6604 C   0  0  0  0  0  0  0  0  0  0  0  0
    2.9330   -3.9446    2.8338 C   0  0  2  0  0  0  0  0  0  0  0  0
    2.5633   -2.4493    3.0759 C   0  0  1  0  0  0  0  0  0  0  0  0
    2.2304   -2.0308    4.5396 C   0  0  0  0  0  0  0  0  0  0  0  0
    2.2367   -0.4995    4.8348 C   0  0  1  0  0  0  0  0  0  0  0  0
    1.2174   -0.2794    5.7893 O   0  0  0  0  0  0  0  0  0  0  0  0
    3.5116   -0.0522    5.6027 C   0  0  0  0  0  0  0  0  0  0  0  0
    4.7713   -0.0918    4.7608 C   0  0  0  0  0  0  0  0  0  0  0  0
    5.4621    0.9041    4.5824 O   0  0  0  0  0  0  0  0  0  0  0  0
    4.9664   -1.2878    4.2210 O   0  0  0  0  0  0  0  0  0  0  0  0
    4.9655   -1.3102    2.8229 C   0  0  1  0  0  0  0  0  0  0  0  0
    5.8090   -2.3410    2.3920 O   0  0  0  0  0  0  0  0  0  0  0  0
    3.4624   -1.4272    2.2816 C   0  0  1  0  0  0  0  0  0  0  0  0
    2.8451    0.0218    2.3509 C   0  0  0  0  0  0  0  0  0  0  0  0
    1.8945    0.3587    3.5532 C   0  0  0  0  0  0  0  0  0  0  0  0
    0.4215    0.1690    3.1177 C   0  0  0  0  0  0  0  0  0  0  0  0
    2.0394    1.8804    3.8268 C   0  0  0  0  0  0  0  0  0  0  0  0
    3.6597   -3.3377   -1.0205 C   0  0  1  0  0  0  0  0  0  0  0  0
    2.3221   -3.4360   -1.4744 O   0  0  0  0  0  0  0  0  0  0  0  0
    3.6104   -1.7506   -3.4286 H   0  0  0  0  0  0  0  0  0  0  0  0
    4.0388   -0.2189   -2.6730 H   0  0  0  0  0  0  0  0  0  0  0  0
    2.5280   -0.9969   -2.2813 H   0  0  0  0  0  0  0  0  0  0  0  0
    5.9586   -2.6420   -2.5695 H   0  0  0  0  0  0  0  0  0  0  0  0
    6.3193   -2.5286   -0.8311 H   0  0  0  0  0  0  0  0  0  0  0  0
    6.1933   -1.0618   -1.8045 H   0  0  0  0  0  0  0  0  0  0  0  0
    2.3954   -1.7497    0.4884 H   0  0  0  0  0  0  0  0  0  0  0  0
    4.7881   -3.6012    0.7107 H   0  0  0  0  0  0  0  0  0  0  0  0
    1.8226   -4.1812    0.9931 H   0  0  0  0  0  0  0  0  0  0  0  0
    4.9467   -5.9895   -0.0891 H   0  0  0  0  0  0  0  0  0  0  0  0
    2.4631   -8.7593    0.9396 H   0  0  0  0  0  0  0  0  0  0  0  0
    3.7542   -9.7623    2.3185 H   0  0  0  0  0  0  0  0  0  0  0  0
    0.3695   -7.6731    1.9258 H   0  0  0  0  0  0  0  0  0  0  0  0
    0.8531   -7.0648    0.3565 H   0  0  0  0  0  0  0  0  0  0  0  0
    0.3572   -5.9570    1.6081 H   0  0  0  0  0  0  0  0  0  0  0  0
    1.8153   -7.0812    3.9966 H   0  0  0  0  0  0  0  0  0  0  0  0
    3.4780   -6.5806    3.7600 H   0  0  0  0  0  0  0  0  0  0  0  0
    1.0243   -4.7780    3.4434 H   0  0  0  0  0  0  0  0  0  0  0  0
    2.2094   -4.7498    4.7222 H   0  0  0  0  0  0  0  0  0  0  0  0
    3.9596   -4.0804    3.1790 H   0  0  0  0  0  0  0  0  0  0  0  0
    1.5903   -2.3941    2.5743 H   0  0  0  0  0  0  0  0  0  0  0  0
    1.2483   -2.4346    4.7734 H   0  0  0  0  0  0  0  0  0  0  0  0
    2.9045   -2.5455    5.2155 H   0  0  0  0  0  0  0  0  0  0  0  0
    0.3821   -0.4475    5.3591 H   0  0  0  0  0  0  0  0  0  0  0  0
    3.3732    0.9540    5.9919 H   0  0  0  0  0  0  0  0  0  0  0  0
    3.6569   -0.6932    6.4652 H   0  0  0  0  0  0  0  0  0  0  0  0
    5.4178   -0.4089    2.4190 H   0  0  0  0  0  0  0  0  0  0  0  0
    5.4321   -3.1542    2.6799 H   0  0  0  0  0  0  0  0  0  0  0  0
    3.6398    0.7715    2.2791 H   0  0  0  0  0  0  0  0  0  0  0  0
    2.2731    0.2016    1.4381 H   0  0  0  0  0  0  0  0  0  0  0  0
    0.1962    0.7180    2.2014 H   0  0  0  0  0  0  0  0  0  0  0  0
   -0.2779    0.5462    3.8598 H   0  0  0  0  0  0  0  0  0  0  0  0
    0.1569   -0.8694    2.9394 H   0  0  0  0  0  0  0  0  0  0  0  0
    1.7229    2.4633    2.9523 H   0  0  0  0  0  0  0  0  0  0  0  0
    3.0805    2.1563    4.0292 H   0  0  0  0  0  0  0  0  0  0  0  0
    1.4322    2.2001    4.6813 H   0  0  0  0  0  0  0  0  0  0  0  0
    4.2449   -4.1502   -1.4520 H   0  0  0  0  0  0  0  0  0  0  0  0
    1.8919   -2.5921   -1.3378 H   0  0  0  0  0  0  0  0  0  0  0  0
  1  2  1  0
  1 35  1  0
  1 36  1  0
  1 37  1  0
  2 33  1  0
  2  3  1  0
  2  4  1  0
  3 38  1  0
  3 39  1  0
  3 40  1  0
  4  5  1  0
  5 28  1  0
  5  6  1  0
  5 41  1  6
  6  7  1  0
  6 33  1  0
  6 42  1  6
  7 17  1  0
  7  8  1  0
  7 43  1  6
  8 13  1  0
  8  9  2  0
  9 10  1  0
  9 44  1  0
 10 11  1  0
 11 12  1  0
 11 13  1  0
 11 45  1  6
 12 46  1  0
 13 14  1  6
 13 15  1  0
 14 47  1  0
 14 48  1  0
 14 49  1  0
 15 16  1  0
 15 50  1  0
 15 51  1  0
 16 17  1  0
 16 52  1  0
 16 53  1  0
 17 18  1  0
 17 54  1  1
 18 28  1  0
 18 19  1  0
 18 55  1  6
 19 20  1  0
 19 56  1  0
 19 57  1  0
 20 30  1  0
 20 21  1  1
 20 22  1  0
 21 58  1  0
 22 23  1  0
 22 59  1  0
 22 60  1  0
 23 24  2  0
 23 25  1  0
 25 26  1  0
 26 27  1  0
 26 28  1  0
 26 61  1  6
 27 62  1  0
 28 29  1  6
 29 30  1  0
 29 63  1  0
 29 64  1  0
 30 31  1  0
 30 32  1  0
 31 65  1  0
 31 66  1  0
 31 67  1  0
 32 68  1  0
 32 69  1  0
 32 70  1  0
 33 34  1  0
 33 71  1  6
 34 72  1  0
M  END
>  <i_m_ct_stereo_status>  (430) 
1

>  <s_m_source_file>  (430) 
/var/tmp/pbs.5076255.sched01/tmpxmhsyh4a/135ajud44o5.sdf

>  <i_m_source_file_index>  (430) 
44

>  <i_lp_mmshare_version>  (430) 
48012

>  <i_f3d_flags>  (430) 
0

>  <s_epik_input>  (430) 
W0NIM11DKE8xKShbQ0gzXSlbQ0BIXShbT0hdKVtDQEBIXShbQ0BIXTFbQ0BAXTIzNClbQ0BIXTVDPTZbQ0BAXShbQ0gzXSkoW0NASF0oW09IXSlPW0NIXTYpW0NIMl1bQ0gyXVtDQEBIXTVbQ0BIXTJbQ0gyXVtDQF0oW09IXSkoQyhbQ0gyXTQpKFtDSDNdKVtDSDNdKVtDSDJdQyg9TylPW0NASF0zW09IXQ==

>  <s_epik_cmdline>  (430) 
J2VwaWtfcHl0aG9uJywgJy1waHQnLCAnMi4wJywgJy1waCcsICc3LjAnLCAnLXRuJywgJzgnLCAnLW1hJywgJzIwMCcsICctaW1hZScsICc8aW5maWxlLm1hZT4nLCAnLW9tYWUnLCAnPG91dGZpbGUubWFlPic=

>  <r_lp_tautomer_probability>  (430) 
1

>  <r_epik_Ionization_Penalty>  (430) 
1.04158e-06

>  <r_epik_Ionization_Penalty_Charging>  (430) 
0

>  <r_epik_Ionization_Penalty_Neutral>  (430) 
1.04158e-06

>  <r_epik_State_Penalty>  (430) 
-0

>  <r_epik_Charging_Adjusted_Penalty>  (430) 
0

>  <i_epik_Tot_Q>  (430) 
0

>  <i_epik_Tot_abs_Q>  (430) 
0

>  <s_epik_Chemistry_Notes>  (430) 
This compound has an ester and may undergo hydrolysis at high or low pH. This compound contains an acetal/aminal-like group ( X-CH(R)-Y where X, Y are N, S, or O) that may be acid/base labile, releasing an aldehyde.

>  <s_lp_Force_Field>  (430) 
OPLS3e

>  <r_lp_Energy>  (430) 
65.2444

>  <b_lp_Chiralities_Consistent>  (430) 
1

>  <s_lp_Variant>  (430) 
119:0-1

>  <s_i_glide_gridfile>  (430) 
pfpi4k_grid

>  <i_i_glide_lignum>  (430) 
44

>  <i_i_glide_rotatable_bonds>  (430) 
4

>  <r_i_docking_score>  (430) 
-2.5756

>  <r_i_glide_ligand_efficiency>  (430) 
-0.0757528

>  <r_i_glide_ligand_efficiency_sa>  (430) 
-0.24541

>  <r_i_glide_ligand_efficiency_ln>  (430) 
-0.569021

>  <r_i_glide_gscore>  (430) 
-2.5756

>  <r_i_glide_lipo>  (430) 
-0.187643

>  <r_i_glide_hbond>  (430) 
0

>  <r_i_glide_metal>  (430) 
-0

>  <r_i_glide_rewards>  (430) 
-0.328372

>  <r_i_glide_evdw>  (430) 
-33.787

>  <r_i_glide_ecoul>  (430) 
-2.40436

>  <r_i_glide_erotb>  (430) 
0

>  <r_i_glide_esite>  (430) 
-0.00957533

>  <r_i_glide_emodel>  (430) 
-41.7788

>  <r_i_glide_energy>  (430) 
-36.1914

>  <r_i_glide_einternal>  (430) 
0.663459

>  <r_i_glide_intrahb_reward>  (430) 
-0

>  <i_i_glide_confnum>  (430) 
1

>  <i_i_glide_posenum>  (430) 
3

>  <r_i_glide_eff_state_penalty>  (430) 
0

>  <ligand_id>  (430) 
119

>  <original_smiles>  (430) 
CC1(C)OC2C(C3C4=COC(O)C4(C)CCC3C3CC4(O)CC(=O)OC(O)C32CC4(C)C)C1O

>  <smiles>  (430) 
[H]OC1([H])OC([H])=C2C3([H])C4([H])C([H])(O[H])C(C([H])([H])[H])(C([H])([H])[H])OC4([H])C45C([H])(O[H])OC(=O)C([H])([H])C(O[H])(C([H])([H])C4([H])C3([H])C([H])([H])C([H])([H])C21C([H])([H])[H])C(C([H])([H])[H])(C([H])([H])[H])C5([H])[H]

$$$$
