1:0:0
     RDKit          3D

 21 25  0  0  1  0  0  0  0  0999 V2000
    2.5245   -0.0149   -5.0215 C   0  0  0  0  0  0  0  0  0  0  0  0
    3.1423   -1.1294   -4.1829 C   0  0  2  0  0  0  0  0  0  0  0  0
    4.5772   -1.3390   -4.3590 O   0  0  0  0  0  0  0  0  0  0  0  0
    4.9825   -2.4170   -3.4651 C   0  0  2  0  0  0  0  0  0  0  0  0
    3.7640   -3.4157   -3.6068 C   0  0  1  0  0  0  0  0  0  0  0  0
    2.3677   -2.5228   -2.8643 C   0  0  2  0  0  0  0  0  0  0  0  0
    2.6191   -2.6358   -4.0374 C   0  0  2  0  0  0  0  0  0  0  0  0
    3.3505   -3.2173   -2.4804 C   0  0  2  0  0  0  0  0  0  0  0  0
    4.2209   -1.9922   -2.1947 C   0  0  1  0  0  0  0  0  0  0  0  0
    4.8430   -1.7977   -0.9494 O   0  0  0  0  0  0  0  0  0  0  0  0
    3.0730   -1.1847   -2.6561 C   0  0  1  0  0  0  0  0  0  0  0  0
    1.4544    0.1270   -4.8313 H   0  0  0  0  0  0  0  0  0  0  0  0
    2.6420   -0.2273   -6.0806 H   0  0  0  0  0  0  0  0  0  0  0  0
    3.0058    0.9393   -4.8162 H   0  0  0  0  0  0  0  0  0  0  0  0
    6.0111   -2.7917   -3.3910 H   0  0  0  0  0  0  0  0  0  0  0  0
    3.9147   -4.5043   -3.7933 H   0  0  0  0  0  0  0  0  0  0  0  0
    1.2682   -2.6948   -2.7853 H   0  0  0  0  0  0  0  0  0  0  0  0
    1.7211   -3.0272   -4.5821 H   0  0  0  0  0  0  0  0  0  0  0  0
    3.4299   -4.1875   -1.9308 H   0  0  0  0  0  0  0  0  0  0  0  0
    4.1459   -1.7514   -0.3082 H   0  0  0  0  0  0  0  0  0  0  0  0
    2.5574   -0.4502   -2.0431 H   0  0  0  0  0  0  0  0  0  0  0  0
  2  1  1  6
  1 12  1  0
  1 13  1  0
  1 14  1  0
  2  7  1  0
  2 11  1  0
  2  3  1  0
  3  4  1  0
  4  9  1  0
  4  5  1  0
  4 15  1  1
  5  8  1  0
  5  6  1  0
  5 16  1  6
  6 11  1  0
  6  7  1  0
  6 17  1  6
  7  8  1  0
  7 18  1  6
  8  9  1  0
  8 19  1  1
  9 10  1  1
  9 11  1  0
 10 20  1  0
 11 21  1  1
M  END
>  <i_m_ct_stereo_status>  (1) 
1

>  <s_m_source_file>  (1) 
/var/tmp/pbs.5076255.sched01/tmpc_kifbv4/0gx9_4qhc.sdf

>  <i_m_source_file_index>  (1) 
2

>  <i_lp_mmshare_version>  (1) 
48012

>  <i_f3d_flags>  (1) 
0

>  <s_epik_input>  (1) 
W0NIM11bQ0BAXTEyW0NAQEhdM1tDQEhdNFtDQEhdNVtDQEBIXShPMSlbQ0BAXShbQ0BASF0zNSkoW09IXSlbQ0BASF0yNA==

>  <s_epik_cmdline>  (1) 
J2VwaWtfcHl0aG9uJywgJy1waHQnLCAnMi4wJywgJy1waCcsICc3LjAnLCAnLXRuJywgJzgnLCAnLW1hJywgJzIwMCcsICctaW1hZScsICc8aW5maWxlLm1hZT4nLCAnLW9tYWUnLCAnPG91dGZpbGUubWFlPic=

>  <r_lp_tautomer_probability>  (1) 
1

>  <r_epik_Ionization_Penalty>  (1) 
8.69559e-08

>  <r_epik_Ionization_Penalty_Charging>  (1) 
0

>  <r_epik_Ionization_Penalty_Neutral>  (1) 
8.69559e-08

>  <r_epik_State_Penalty>  (1) 
-0

>  <r_epik_Charging_Adjusted_Penalty>  (1) 
0

>  <i_epik_Tot_Q>  (1) 
0

>  <i_epik_Tot_abs_Q>  (1) 
0

>  <s_lp_Force_Field>  (1) 
OPLS3e

>  <r_lp_Energy>  (1) 
404.589

>  <b_lp_Chiralities_Consistent>  (1) 
1

>  <s_lp_Variant>  (1) 
1:0-1

>  <s_i_glide_gridfile>  (1) 
pfpi4k_grid

>  <i_i_glide_lignum>  (1) 
2

>  <i_i_glide_rotatable_bonds>  (1) 
1

>  <r_i_docking_score>  (1) 
-4.11828

>  <r_i_glide_ligand_efficiency>  (1) 
-0.374389

>  <r_i_glide_ligand_efficiency_sa>  (1) 
-0.832634

>  <r_i_glide_ligand_efficiency_ln>  (1) 
-1.21201

>  <r_i_glide_gscore>  (1) 
-4.11828

>  <r_i_glide_lipo>  (1) 
-0.384

>  <r_i_glide_hbond>  (1) 
-0.257165

>  <r_i_glide_metal>  (1) 
-0

>  <r_i_glide_rewards>  (1) 
-2.25

>  <r_i_glide_evdw>  (1) 
-10.3565

>  <r_i_glide_ecoul>  (1) 
-4.72858

>  <r_i_glide_erotb>  (1) 
0

>  <r_i_glide_esite>  (1) 
0

>  <r_i_glide_emodel>  (1) 
-19.5934

>  <r_i_glide_energy>  (1) 
-15.0851

>  <r_i_glide_einternal>  (1) 
0.572004

>  <r_i_glide_intrahb_reward>  (1) 
-0

>  <i_i_glide_confnum>  (1) 
2

>  <i_i_glide_posenum>  (1) 
8

>  <r_i_glide_eff_state_penalty>  (1) 
0

>  <ligand_id>  (1) 
1

>  <original_smiles>  (1) 
CC12OC3C4C5C1C4C3(O)C52

>  <smiles>  (1) 
[H]OC12C3([H])OC4(C([H])([H])[H])C5([H])C([H])(C3([H])C51[H])C42[H]

$$$$
1:0:1
     RDKit          3D

 21 25  0  0  1  0  0  0  0  0999 V2000
    3.7168   -0.4634   -4.4718 C   0  0  0  0  0  0  0  0  0  0  0  0
    4.0999   -1.3257   -3.2881 C   0  0  2  0  0  0  0  0  0  0  0  0
    5.0007   -0.7260   -2.2965 O   0  0  0  0  0  0  0  0  0  0  0  0
    5.1800   -1.7115   -1.2363 C   0  0  2  0  0  0  0  0  0  0  0  0
    5.3364   -3.0469   -2.0908 C   0  0  1  0  0  0  0  0  0  0  0  0
    3.6945   -3.2967   -2.8254 C   0  0  2  0  0  0  0  0  0  0  0  0
    4.6737   -2.8147   -3.3474 C   0  0  2  0  0  0  0  0  0  0  0  0
    4.2774   -3.5125   -1.7175 C   0  0  2  0  0  0  0  0  0  0  0  0
    3.7365   -2.2314   -1.0824 C   0  0  1  0  0  0  0  0  0  0  0  0
    3.0159   -2.2392    0.1262 O   0  0  0  0  0  0  0  0  0  0  0  0
    3.0657   -1.9882   -2.3713 C   0  0  1  0  0  0  0  0  0  0  0  0
    3.0273   -0.9908   -5.1337 H   0  0  0  0  0  0  0  0  0  0  0  0
    4.5949   -0.1724   -5.0408 H   0  0  0  0  0  0  0  0  0  0  0  0
    3.2160    0.4475   -4.1426 H   0  0  0  0  0  0  0  0  0  0  0  0
    5.8068   -1.5358   -0.3560 H   0  0  0  0  0  0  0  0  0  0  0  0
    6.1441   -3.7826   -1.8939 H   0  0  0  0  0  0  0  0  0  0  0  0
    3.2630   -3.9666   -3.6008 H   0  0  0  0  0  0  0  0  0  0  0  0
    4.8684   -3.3483   -4.3067 H   0  0  0  0  0  0  0  0  0  0  0  0
    4.5372   -4.4506   -1.1696 H   0  0  0  0  0  0  0  0  0  0  0  0
    2.2825   -1.6401   -0.0099 H   0  0  0  0  0  0  0  0  0  0  0  0
    1.9830   -1.9057   -2.4870 H   0  0  0  0  0  0  0  0  0  0  0  0
  2  1  1  6
  1 12  1  0
  1 13  1  0
  1 14  1  0
  2  7  1  0
  2 11  1  0
  2  3  1  0
  3  4  1  0
  4  9  1  0
  4  5  1  0
  4 15  1  1
  5  8  1  0
  5  6  1  0
  5 16  1  6
  6 11  1  0
  6  7  1  0
  6 17  1  6
  7  8  1  0
  7 18  1  6
  8  9  1  0
  8 19  1  6
  9 10  1  1
  9 11  1  0
 10 20  1  0
 11 21  1  1
M  END
>  <i_m_ct_stereo_status>  (2) 
1

>  <s_m_source_file>  (2) 
/var/tmp/pbs.5076255.sched01/tmpc_kifbv4/0gx9_4qhc.sdf

>  <i_m_source_file_index>  (2) 
2

>  <i_lp_mmshare_version>  (2) 
48012

>  <i_f3d_flags>  (2) 
0

>  <s_epik_input>  (2) 
W0NIM11bQ0BAXTEyW0NAQEhdM1tDQEhdNFtDQEhdNVtDQEBIXShPMSlbQ0BAXShbQ0BASF0zNSkoW09IXSlbQ0BASF0yNA==

>  <s_epik_cmdline>  (2) 
J2VwaWtfcHl0aG9uJywgJy1waHQnLCAnMi4wJywgJy1waCcsICc3LjAnLCAnLXRuJywgJzgnLCAnLW1hJywgJzIwMCcsICctaW1hZScsICc8aW5maWxlLm1hZT4nLCAnLW9tYWUnLCAnPG91dGZpbGUubWFlPic=

>  <r_lp_tautomer_probability>  (2) 
1

>  <r_epik_Ionization_Penalty>  (2) 
8.69559e-08

>  <r_epik_Ionization_Penalty_Charging>  (2) 
0

>  <r_epik_Ionization_Penalty_Neutral>  (2) 
8.69559e-08

>  <r_epik_State_Penalty>  (2) 
-0

>  <r_epik_Charging_Adjusted_Penalty>  (2) 
0

>  <i_epik_Tot_Q>  (2) 
0

>  <i_epik_Tot_abs_Q>  (2) 
0

>  <s_lp_Force_Field>  (2) 
OPLS3e

>  <r_lp_Energy>  (2) 
404.589

>  <b_lp_Chiralities_Consistent>  (2) 
1

>  <s_lp_Variant>  (2) 
1:0-1

>  <s_i_glide_gridfile>  (2) 
pfpi4k_grid

>  <i_i_glide_lignum>  (2) 
2

>  <i_i_glide_rotatable_bonds>  (2) 
1

>  <r_i_docking_score>  (2) 
-4.02619

>  <r_i_glide_ligand_efficiency>  (2) 
-0.366017

>  <r_i_glide_ligand_efficiency_sa>  (2) 
-0.814015

>  <r_i_glide_ligand_efficiency_ln>  (2) 
-1.18491

>  <r_i_glide_gscore>  (2) 
-4.02619

>  <r_i_glide_lipo>  (2) 
-0.656605

>  <r_i_glide_hbond>  (2) 
0

>  <r_i_glide_metal>  (2) 
-0

>  <r_i_glide_rewards>  (2) 
-2.25

>  <r_i_glide_evdw>  (2) 
-13.4679

>  <r_i_glide_ecoul>  (2) 
-2.97459

>  <r_i_glide_erotb>  (2) 
0

>  <r_i_glide_esite>  (2) 
0

>  <r_i_glide_emodel>  (2) 
-20.6498

>  <r_i_glide_energy>  (2) 
-16.4425

>  <r_i_glide_einternal>  (2) 
0.759834

>  <r_i_glide_intrahb_reward>  (2) 
-0

>  <i_i_glide_confnum>  (2) 
1

>  <i_i_glide_posenum>  (2) 
7

>  <r_i_glide_eff_state_penalty>  (2) 
0

>  <ligand_id>  (2) 
1

>  <original_smiles>  (2) 
CC12OC3C4C5C1C4C3(O)C52

>  <smiles>  (2) 
[H]OC12C3([H])OC4(C([H])([H])[H])C5([H])C([H])(C3([H])C51[H])C42[H]

$$$$
1:0:2
     RDKit          3D

 21 25  0  0  1  0  0  0  0  0999 V2000
    4.0902   -0.8200   -4.5257 C   0  0  0  0  0  0  0  0  0  0  0  0
    4.2133   -1.6299   -3.2555 C   0  0  2  0  0  0  0  0  0  0  0  0
    5.3052   -1.2938   -2.3344 O   0  0  0  0  0  0  0  0  0  0  0  0
    5.1691   -2.1757   -1.1621 C   0  0  2  0  0  0  0  0  0  0  0  0
    4.8008   -3.5458   -1.8942 C   0  0  1  0  0  0  0  0  0  0  0  0
    3.1617   -3.2477   -2.5921 C   0  0  2  0  0  0  0  0  0  0  0  0
    4.2199   -3.2237   -3.1564 C   0  0  2  0  0  0  0  0  0  0  0  0
    3.6760   -3.5564   -1.4671 C   0  0  2  0  0  0  0  0  0  0  0  0
    3.6557   -2.1140   -0.9540 C   0  0  1  0  0  0  0  0  0  0  0  0
    3.0119   -1.7927    0.2592 O   0  0  0  0  0  0  0  0  0  0  0  0
    3.0806   -1.7659   -2.2752 C   0  0  1  0  0  0  0  0  0  0  0  0
    3.2298   -1.1151   -5.1290 H   0  0  0  0  0  0  0  0  0  0  0  0
    4.9944   -0.9602   -5.1232 H   0  0  0  0  0  0  0  0  0  0  0  0
    3.9827    0.2434   -4.3016 H   0  0  0  0  0  0  0  0  0  0  0  0
    5.8337   -2.1879   -0.2985 H   0  0  0  0  0  0  0  0  0  0  0  0
    5.2542   -4.5044   -1.6163 H   0  0  0  0  0  0  0  0  0  0  0  0
    2.4879   -3.8031   -3.2807 H   0  0  0  0  0  0  0  0  0  0  0  0
    4.1367   -3.8867   -4.0300 H   0  0  0  0  0  0  0  0  0  0  0  0
    3.6022   -4.4742   -0.8388 H   0  0  0  0  0  0  0  0  0  0  0  0
    2.1440   -1.4575   -0.0134 H   0  0  0  0  0  0  0  0  0  0  0  0
    2.1484   -1.2473   -2.4111 H   0  0  0  0  0  0  0  0  0  0  0  0
  2  1  1  6
  1 12  1  0
  1 13  1  0
  1 14  1  0
  2  7  1  0
  2 11  1  0
  2  3  1  0
  3  4  1  0
  4  9  1  0
  4  5  1  0
  4 15  1  1
  5  8  1  0
  5  6  1  0
  5 16  1  6
  6 11  1  0
  6  7  1  0
  6 17  1  6
  7  8  1  0
  7 18  1  6
  8  9  1  0
  8 19  1  6
  9 10  1  1
  9 11  1  0
 10 20  1  0
 11 21  1  1
M  END
>  <i_m_ct_stereo_status>  (3) 
1

>  <s_m_source_file>  (3) 
/var/tmp/pbs.5076255.sched01/tmpc_kifbv4/0gx9_4qhc.sdf

>  <i_m_source_file_index>  (3) 
2

>  <i_lp_mmshare_version>  (3) 
48012

>  <i_f3d_flags>  (3) 
0

>  <s_epik_input>  (3) 
W0NIM11bQ0BAXTEyW0NAQEhdM1tDQEhdNFtDQEhdNVtDQEBIXShPMSlbQ0BAXShbQ0BASF0zNSkoW09IXSlbQ0BASF0yNA==

>  <s_epik_cmdline>  (3) 
J2VwaWtfcHl0aG9uJywgJy1waHQnLCAnMi4wJywgJy1waCcsICc3LjAnLCAnLXRuJywgJzgnLCAnLW1hJywgJzIwMCcsICctaW1hZScsICc8aW5maWxlLm1hZT4nLCAnLW9tYWUnLCAnPG91dGZpbGUubWFlPic=

>  <r_lp_tautomer_probability>  (3) 
1

>  <r_epik_Ionization_Penalty>  (3) 
8.69559e-08

>  <r_epik_Ionization_Penalty_Charging>  (3) 
0

>  <r_epik_Ionization_Penalty_Neutral>  (3) 
8.69559e-08

>  <r_epik_State_Penalty>  (3) 
-0

>  <r_epik_Charging_Adjusted_Penalty>  (3) 
0

>  <i_epik_Tot_Q>  (3) 
0

>  <i_epik_Tot_abs_Q>  (3) 
0

>  <s_lp_Force_Field>  (3) 
OPLS3e

>  <r_lp_Energy>  (3) 
404.589

>  <b_lp_Chiralities_Consistent>  (3) 
1

>  <s_lp_Variant>  (3) 
1:0-1

>  <s_i_glide_gridfile>  (3) 
pfpi4k_grid

>  <i_i_glide_lignum>  (3) 
2

>  <i_i_glide_rotatable_bonds>  (3) 
1

>  <r_i_docking_score>  (3) 
-3.74486

>  <r_i_glide_ligand_efficiency>  (3) 
-0.340442

>  <r_i_glide_ligand_efficiency_sa>  (3) 
-0.757136

>  <r_i_glide_ligand_efficiency_ln>  (3) 
-1.10211

>  <r_i_glide_gscore>  (3) 
-3.74486

>  <r_i_glide_lipo>  (3) 
-0.276982

>  <r_i_glide_hbond>  (3) 
0

>  <r_i_glide_metal>  (3) 
-0

>  <r_i_glide_rewards>  (3) 
-2.25

>  <r_i_glide_evdw>  (3) 
-9.3956

>  <r_i_glide_ecoul>  (3) 
-4.98734

>  <r_i_glide_erotb>  (3) 
0

>  <r_i_glide_esite>  (3) 
0

>  <r_i_glide_emodel>  (3) 
-18.1528

>  <r_i_glide_energy>  (3) 
-14.3829

>  <r_i_glide_einternal>  (3) 
1.12479

>  <r_i_glide_intrahb_reward>  (3) 
-0

>  <i_i_glide_confnum>  (3) 
1

>  <i_i_glide_posenum>  (3) 
1

>  <r_i_glide_eff_state_penalty>  (3) 
0

>  <ligand_id>  (3) 
1

>  <original_smiles>  (3) 
CC12OC3C4C5C1C4C3(O)C52

>  <smiles>  (3) 
[H]OC12C3([H])OC4(C([H])([H])[H])C5([H])C([H])(C3([H])C51[H])C42[H]

$$$$
2:0:0
     RDKit          3D

 49 54  0  0  1  0  0  0  0  0999 V2000
    2.3768   -2.3489   -2.0703 C   0  0  0  0  0  0  0  0  0  0  0  0
    3.4791   -3.3896   -1.9598 C   0  0  2  0  0  0  0  0  0  0  0  0
    3.6917   -4.0566   -0.5541 C   0  0  1  0  0  0  0  0  0  0  0  0
    4.9431   -5.1095   -0.6656 C   0  0  0  0  0  0  0  0  0  0  0  0
    4.7608   -5.4536    0.4254 C   0  0  0  0  0  0  0  0  0  0  0  0
    6.0086   -4.1394    0.5309 C   0  0  1  0  0  0  0  0  0  0  0  0
    6.2728   -5.4351    0.4816 C   0  0  1  0  0  0  0  0  0  0  0  0
    6.0969   -5.5944    2.2767 C   0  0  0  0  0  0  0  0  0  0  0  0
    5.2587   -4.2871    2.8418 C   0  0  2  0  0  0  0  0  0  0  0  0
    4.1740   -3.9035    3.6550 O   0  0  0  0  0  0  0  0  0  0  0  0
    3.7322   -3.9749    2.2740 C   0  0  2  0  0  0  0  0  0  0  0  0
    2.4517   -4.8059    2.4245 C   0  0  0  0  0  0  0  0  0  0  0  0
    3.6937   -3.0644    0.8417 C   0  0  2  0  0  0  0  0  0  0  0  0
    2.4934   -2.3309    0.9261 O   0  0  0  0  0  0  0  0  0  0  0  0
    4.8809   -2.0450    0.6301 C   0  0  2  0  0  0  0  0  0  0  0  0
    5.2851   -1.4443    2.0142 C   0  0  0  0  0  0  0  0  0  0  0  0
    5.2668   -0.9371   -0.3364 C   0  0  0  0  0  0  0  0  0  0  0  0
    6.6145   -1.5443   -0.2872 O   0  0  0  0  0  0  0  0  0  0  0  0
    5.9112   -2.7993   -0.3285 C   0  0  1  0  0  0  0  0  0  0  0  0
    6.0435   -2.9449   -1.9140 C   0  0  0  0  0  0  0  0  0  0  0  0
    4.7581   -3.0602   -2.7762 C   0  0  1  0  0  0  0  0  0  0  0  0
    4.9359   -4.0880   -3.8994 C   0  0  0  0  0  0  0  0  0  0  0  0
    4.5944   -1.8682   -3.5259 O   0  0  0  0  0  0  0  0  0  0  0  0
    2.6424   -1.4023   -1.5991 H   0  0  0  0  0  0  0  0  0  0  0  0
    1.4877   -2.7700   -1.6062 H   0  0  0  0  0  0  0  0  0  0  0  0
    2.0902   -2.1406   -3.1033 H   0  0  0  0  0  0  0  0  0  0  0  0
    2.9710   -4.1498   -2.5425 H   0  0  0  0  0  0  0  0  0  0  0  0
    2.7709   -4.6439   -0.4743 H   0  0  0  0  0  0  0  0  0  0  0  0
    3.9072   -5.8665    0.9434 H   0  0  0  0  0  0  0  0  0  0  0  0
    6.8976   -3.9191    1.1404 H   0  0  0  0  0  0  0  0  0  0  0  0
    7.2546   -5.6860    0.0840 H   0  0  0  0  0  0  0  0  0  0  0  0
    5.6193   -6.5237    2.5940 H   0  0  0  0  0  0  0  0  0  0  0  0
    7.0823   -5.5816    2.7453 H   0  0  0  0  0  0  0  0  0  0  0  0
    5.9932   -3.5365    3.0738 H   0  0  0  0  0  0  0  0  0  0  0  0
    1.9931   -5.0769    1.4752 H   0  0  0  0  0  0  0  0  0  0  0  0
    1.7142   -4.2519    3.0057 H   0  0  0  0  0  0  0  0  0  0  0  0
    2.6814   -5.7259    2.9618 H   0  0  0  0  0  0  0  0  0  0  0  0
    2.3328   -1.8424    0.1253 H   0  0  0  0  0  0  0  0  0  0  0  0
    5.2168   -0.3604    2.0557 H   0  0  0  0  0  0  0  0  0  0  0  0
    6.3280   -1.6507    2.2475 H   0  0  0  0  0  0  0  0  0  0  0  0
    4.6540   -1.7236    2.8496 H   0  0  0  0  0  0  0  0  0  0  0  0
    4.7856   -0.8973   -1.3056 H   0  0  0  0  0  0  0  0  0  0  0  0
    5.2543    0.0693    0.0658 H   0  0  0  0  0  0  0  0  0  0  0  0
    6.7104   -2.2030   -2.3465 H   0  0  0  0  0  0  0  0  0  0  0  0
    6.6300   -3.8428   -2.0949 H   0  0  0  0  0  0  0  0  0  0  0  0
    5.0164   -5.0936   -3.4917 H   0  0  0  0  0  0  0  0  0  0  0  0
    5.8387   -3.8647   -4.4527 H   0  0  0  0  0  0  0  0  0  0  0  0
    4.1095   -4.0902   -4.6129 H   0  0  0  0  0  0  0  0  0  0  0  0
    3.9694   -1.3303   -3.0654 H   0  0  0  0  0  0  0  0  0  0  0  0
  1  2  1  0
  1 24  1  0
  1 25  1  0
  1 26  1  0
  2 21  1  0
  2  3  1  0
  2 27  1  6
  3 13  1  0
  3  4  1  0
  3 28  1  1
  4  7  1  0
  4  5  2  0
  5  6  1  0
  5 29  1  0
  6 19  1  0
  6  7  1  0
  6 30  1  1
  7  8  1  0
  7 31  1  6
  8  9  1  0
  8 32  1  0
  8 33  1  0
  9 11  1  0
  9 10  1  0
  9 34  1  6
 10 11  1  0
 11 12  1  1
 11 13  1  0
 12 35  1  0
 12 36  1  0
 12 37  1  0
 13 14  1  1
 13 15  1  0
 14 38  1  0
 15 19  1  0
 15 16  1  1
 15 17  1  0
 16 39  1  0
 16 40  1  0
 16 41  1  0
 17 18  1  0
 17 42  1  0
 17 43  1  0
 19 18  1  1
 19 20  1  0
 20 21  1  0
 20 44  1  0
 20 45  1  0
 21 22  1  0
 21 23  1  6
 22 46  1  0
 22 47  1  0
 22 48  1  0
 23 49  1  0
M  END
>  <i_m_ct_stereo_status>  (4) 
1

>  <s_m_source_file>  (4) 
/var/tmp/pbs.5076255.sched01/tmpc_kifbv4/0gx9_4qhc.sdf

>  <i_m_source_file_index>  (4) 
3

>  <i_lp_mmshare_version>  (4) 
48012

>  <i_f3d_flags>  (4) 
0

>  <s_epik_input>  (4) 
W0NAXTEyM1tDQEBIXTRbQ0BASF01Qyg9W0NIXTQpW0NASF0oW0NAQEhdKFtDSDNdKVtDQEBdKFtDSDJdMykoW0NIM10pW09IXSlbQ0BdKFtPSF0pKFtDQF0xKFtDSDNdKVtDSDJdTzIpW0NAQF02KFtDSDNdKVtDSF0oTzYpW0NIMl01

>  <s_epik_cmdline>  (4) 
J2VwaWtfcHl0aG9uJywgJy1waHQnLCAnMi4wJywgJy1waCcsICc3LjAnLCAnLXRuJywgJzgnLCAnLW1hJywgJzIwMCcsICctaW1hZScsICc8aW5maWxlLm1hZT4nLCAnLW9tYWUnLCAnPG91dGZpbGUubWFlPic=

>  <r_lp_tautomer_probability>  (4) 
1

>  <r_epik_Ionization_Penalty>  (4) 
2.74005e-07

>  <r_epik_Ionization_Penalty_Charging>  (4) 
0

>  <r_epik_Ionization_Penalty_Neutral>  (4) 
2.74005e-07

>  <r_epik_State_Penalty>  (4) 
-0

>  <r_epik_Charging_Adjusted_Penalty>  (4) 
0

>  <i_epik_Tot_Q>  (4) 
0

>  <i_epik_Tot_abs_Q>  (4) 
0

>  <s_lp_Force_Field>  (4) 
OPLS3e

>  <r_lp_Energy>  (4) 
598.135

>  <b_lp_Chiralities_Consistent>  (4) 
1

>  <s_lp_Variant>  (4) 
2:0-1

>  <s_i_glide_gridfile>  (4) 
pfpi4k_grid

>  <i_i_glide_lignum>  (4) 
3

>  <i_i_glide_rotatable_bonds>  (4) 
2

>  <r_i_docking_score>  (4) 
-3.66241

>  <r_i_glide_ligand_efficiency>  (4) 
-0.159235

>  <r_i_glide_ligand_efficiency_sa>  (4) 
-0.452844

>  <r_i_glide_ligand_efficiency_ln>  (4) 
-0.885604

>  <r_i_glide_gscore>  (4) 
-3.66241

>  <r_i_glide_lipo>  (4) 
-0.694099

>  <r_i_glide_hbond>  (4) 
-0.234345

>  <r_i_glide_metal>  (4) 
-0

>  <r_i_glide_rewards>  (4) 
-1.23813

>  <r_i_glide_evdw>  (4) 
-13.3852

>  <r_i_glide_ecoul>  (4) 
-5.51049

>  <r_i_glide_erotb>  (4) 
0

>  <r_i_glide_esite>  (4) 
0

>  <r_i_glide_emodel>  (4) 
-21.7431

>  <r_i_glide_energy>  (4) 
-18.8957

>  <r_i_glide_einternal>  (4) 
0.954295

>  <r_i_glide_intrahb_reward>  (4) 
-0

>  <i_i_glide_confnum>  (4) 
2

>  <i_i_glide_posenum>  (4) 
26

>  <r_i_glide_eff_state_penalty>  (4) 
0

>  <ligand_id>  (4) 
2

>  <original_smiles>  (4) 
CC1C2C3=CC4C3CC3OC3(C)C2(O)C2(C)COC42CC1(C)O

>  <smiles>  (4) 
[H]OC1(C([H])([H])[H])C([H])([H])C23OC([H])([H])C2(C([H])([H])[H])C2(O[H])C([H])(C4=C([H])C3([H])C4([H])C([H])([H])C3([H])OC32C([H])([H])[H])C1([H])C([H])([H])[H]

$$$$
2:0:1
     RDKit          3D

 49 54  0  0  1  0  0  0  0  0999 V2000
    2.0945   -3.2279   -1.8595 C   0  0  0  0  0  0  0  0  0  0  0  0
    3.5506   -2.9376   -2.2174 C   0  0  2  0  0  0  0  0  0  0  0  0
    4.6044   -3.5679   -1.2553 C   0  0  1  0  0  0  0  0  0  0  0  0
    6.0967   -3.0663   -1.7407 C   0  0  0  0  0  0  0  0  0  0  0  0
    6.5313   -3.7241   -0.8943 C   0  0  0  0  0  0  0  0  0  0  0  0
    6.4528   -2.1204   -0.1089 C   0  0  1  0  0  0  0  0  0  0  0  0
    7.5199   -2.6229   -0.7568 C   0  0  1  0  0  0  0  0  0  0  0  0
    8.0935   -3.4776    0.7512 C   0  0  0  0  0  0  0  0  0  0  0  0
    6.7668   -3.6801    1.7566 C   0  0  2  0  0  0  0  0  0  0  0  0
    6.1374   -4.5984    2.5973 O   0  0  0  0  0  0  0  0  0  0  0  0
    5.4364   -4.5090    1.3172 C   0  0  2  0  0  0  0  0  0  0  0  0
    5.3006   -5.9824    0.9334 C   0  0  0  0  0  0  0  0  0  0  0  0
    4.3204   -3.5533    0.4489 C   0  0  2  0  0  0  0  0  0  0  0  0
    3.0656   -4.1187    0.7587 O   0  0  0  0  0  0  0  0  0  0  0  0
    4.2750   -2.0218    0.8583 C   0  0  2  0  0  0  0  0  0  0  0  0
    4.5018   -1.8733    2.3998 C   0  0  0  0  0  0  0  0  0  0  0  0
    3.4094   -0.7975    0.5628 C   0  0  0  0  0  0  0  0  0  0  0  0
    4.6936   -0.0792    0.4665 O   0  0  0  0  0  0  0  0  0  0  0  0
    5.1454   -1.2503   -0.2318 C   0  0  1  0  0  0  0  0  0  0  0  0
    4.8149   -0.7100   -1.7010 C   0  0  0  0  0  0  0  0  0  0  0  0
    3.8293   -1.4607   -2.6229 C   0  0  1  0  0  0  0  0  0  0  0  0
    4.3243   -1.3822   -4.0672 C   0  0  0  0  0  0  0  0  0  0  0  0
    2.6464   -0.7081   -2.7422 O   0  0  0  0  0  0  0  0  0  0  0  0
    1.8476   -2.6788   -0.9608 H   0  0  0  0  0  0  0  0  0  0  0  0
    1.9080   -4.2788   -1.6720 H   0  0  0  0  0  0  0  0  0  0  0  0
    1.4249   -2.9347   -2.6699 H   0  0  0  0  0  0  0  0  0  0  0  0
    3.6808   -3.5133   -3.1332 H   0  0  0  0  0  0  0  0  0  0  0  0
    4.4993   -4.6285   -1.5180 H   0  0  0  0  0  0  0  0  0  0  0  0
    6.4444   -4.7696   -0.6739 H   0  0  0  0  0  0  0  0  0  0  0  0
    7.0264   -1.5340    0.6321 H   0  0  0  0  0  0  0  0  0  0  0  0
    8.1947   -1.8620   -1.1417 H   0  0  0  0  0  0  0  0  0  0  0  0
    8.5482   -4.4477    0.5462 H   0  0  0  0  0  0  0  0  0  0  0  0
    8.8548   -2.8905    1.2571 H   0  0  0  0  0  0  0  0  0  0  0  0
    6.6718   -2.7539    2.2882 H   0  0  0  0  0  0  0  0  0  0  0  0
    4.9206   -6.1334   -0.0746 H   0  0  0  0  0  0  0  0  0  0  0  0
    4.6376   -6.4831    1.6381 H   0  0  0  0  0  0  0  0  0  0  0  0
    6.2879   -6.4374    1.0021 H   0  0  0  0  0  0  0  0  0  0  0  0
    2.4210   -3.5788    0.3276 H   0  0  0  0  0  0  0  0  0  0  0  0
    3.6926   -1.3737    2.9300 H   0  0  0  0  0  0  0  0  0  0  0  0
    5.3658   -1.2359    2.5966 H   0  0  0  0  0  0  0  0  0  0  0  0
    4.5853   -2.8039    2.9521 H   0  0  0  0  0  0  0  0  0  0  0  0
    2.8068   -0.7967   -0.3304 H   0  0  0  0  0  0  0  0  0  0  0  0
    2.7943   -0.4112    1.3673 H   0  0  0  0  0  0  0  0  0  0  0  0
    4.4847    0.3099   -1.7359 H   0  0  0  0  0  0  0  0  0  0  0  0
    5.7695   -0.6258   -2.2122 H   0  0  0  0  0  0  0  0  0  0  0  0
    5.2334   -1.9613   -4.0836 H   0  0  0  0  0  0  0  0  0  0  0  0
    4.5514   -0.3633   -4.3935 H   0  0  0  0  0  0  0  0  0  0  0  0
    3.6111   -1.8150   -4.7702 H   0  0  0  0  0  0  0  0  0  0  0  0
    2.1021   -0.8415   -1.9707 H   0  0  0  0  0  0  0  0  0  0  0  0
  1  2  1  0
  1 24  1  0
  1 25  1  0
  1 26  1  0
  2 21  1  0
  2  3  1  0
  2 27  1  6
  3 13  1  0
  3  4  1  0
  3 28  1  6
  4  7  1  0
  4  5  2  0
  5  6  1  0
  5 29  1  0
  6 19  1  0
  6  7  1  0
  6 30  1  1
  7  8  1  0
  7 31  1  6
  8  9  1  0
  8 32  1  0
  8 33  1  0
  9 11  1  0
  9 10  1  0
  9 34  1  1
 10 11  1  0
 11 12  1  6
 11 13  1  0
 12 35  1  0
 12 36  1  0
 12 37  1  0
 13 14  1  6
 13 15  1  0
 14 38  1  0
 15 19  1  0
 15 16  1  1
 15 17  1  0
 16 39  1  0
 16 40  1  0
 16 41  1  0
 17 18  1  0
 17 42  1  0
 17 43  1  0
 19 18  1  1
 19 20  1  0
 20 21  1  0
 20 44  1  0
 20 45  1  0
 21 22  1  0
 21 23  1  6
 22 46  1  0
 22 47  1  0
 22 48  1  0
 23 49  1  0
M  END
>  <i_m_ct_stereo_status>  (5) 
1

>  <s_m_source_file>  (5) 
/var/tmp/pbs.5076255.sched01/tmpc_kifbv4/0gx9_4qhc.sdf

>  <i_m_source_file_index>  (5) 
3

>  <i_lp_mmshare_version>  (5) 
48012

>  <i_f3d_flags>  (5) 
0

>  <s_epik_input>  (5) 
W0NAXTEyM1tDQEBIXTRbQ0BASF01Qyg9W0NIXTQpW0NASF0oW0NAQEhdKFtDSDNdKVtDQEBdKFtDSDJdMykoW0NIM10pW09IXSlbQ0BdKFtPSF0pKFtDQF0xKFtDSDNdKVtDSDJdTzIpW0NAQF02KFtDSDNdKVtDSF0oTzYpW0NIMl01

>  <s_epik_cmdline>  (5) 
J2VwaWtfcHl0aG9uJywgJy1waHQnLCAnMi4wJywgJy1waCcsICc3LjAnLCAnLXRuJywgJzgnLCAnLW1hJywgJzIwMCcsICctaW1hZScsICc8aW5maWxlLm1hZT4nLCAnLW9tYWUnLCAnPG91dGZpbGUubWFlPic=

>  <r_lp_tautomer_probability>  (5) 
1

>  <r_epik_Ionization_Penalty>  (5) 
2.74005e-07

>  <r_epik_Ionization_Penalty_Charging>  (5) 
0

>  <r_epik_Ionization_Penalty_Neutral>  (5) 
2.74005e-07

>  <r_epik_State_Penalty>  (5) 
-0

>  <r_epik_Charging_Adjusted_Penalty>  (5) 
0

>  <i_epik_Tot_Q>  (5) 
0

>  <i_epik_Tot_abs_Q>  (5) 
0

>  <s_lp_Force_Field>  (5) 
OPLS3e

>  <r_lp_Energy>  (5) 
598.135

>  <b_lp_Chiralities_Consistent>  (5) 
1

>  <s_lp_Variant>  (5) 
2:0-1

>  <s_i_glide_gridfile>  (5) 
pfpi4k_grid

>  <i_i_glide_lignum>  (5) 
3

>  <i_i_glide_rotatable_bonds>  (5) 
2

>  <r_i_docking_score>  (5) 
-2.84224

>  <r_i_glide_ligand_efficiency>  (5) 
-0.123576

>  <r_i_glide_ligand_efficiency_sa>  (5) 
-0.351432

>  <r_i_glide_ligand_efficiency_ln>  (5) 
-0.687279

>  <r_i_glide_gscore>  (5) 
-2.84224

>  <r_i_glide_lipo>  (5) 
-0.723542

>  <r_i_glide_hbond>  (5) 
-0.16

>  <r_i_glide_metal>  (5) 
-0

>  <r_i_glide_rewards>  (5) 
-1.23813

>  <r_i_glide_evdw>  (5) 
-7.66514

>  <r_i_glide_ecoul>  (5) 
-2.24871

>  <r_i_glide_erotb>  (5) 
0

>  <r_i_glide_esite>  (5) 
0

>  <r_i_glide_emodel>  (5) 
-12.1981

>  <r_i_glide_energy>  (5) 
-9.91385

>  <r_i_glide_einternal>  (5) 
0.262872

>  <r_i_glide_intrahb_reward>  (5) 
-0

>  <i_i_glide_confnum>  (5) 
1

>  <i_i_glide_posenum>  (5) 
13

>  <r_i_glide_eff_state_penalty>  (5) 
0

>  <ligand_id>  (5) 
2

>  <original_smiles>  (5) 
CC1C2C3=CC4C3CC3OC3(C)C2(O)C2(C)COC42CC1(C)O

>  <smiles>  (5) 
[H]OC1(C([H])([H])[H])C([H])([H])C23OC([H])([H])C2(C([H])([H])[H])C2(O[H])C([H])(C4=C([H])C3([H])C4([H])C([H])([H])C3([H])OC32C([H])([H])[H])C1([H])C([H])([H])[H]

$$$$
2:0:2
     RDKit          3D

 49 54  0  0  1  0  0  0  0  0999 V2000
    3.9262   -5.5525    1.8127 C   0  0  0  0  0  0  0  0  0  0  0  0
    3.7866   -4.0097    1.8409 C   0  0  2  0  0  0  0  0  0  0  0  0
    3.6784   -3.3030    0.4427 C   0  0  1  0  0  0  0  0  0  0  0  0
    3.5939   -1.6717    0.6795 C   0  0  0  0  0  0  0  0  0  0  0  0
    3.4250   -1.5314   -0.4560 C   0  0  0  0  0  0  0  0  0  0  0  0
    5.2434   -1.3507   -0.2209 C   0  0  1  0  0  0  0  0  0  0  0  0
    4.3589   -0.3665   -0.2493 C   0  0  1  0  0  0  0  0  0  0  0  0
    4.4880   -0.2713   -2.0988 C   0  0  0  0  0  0  0  0  0  0  0  0
    5.0525   -1.7453   -2.6167 C   0  0  2  0  0  0  0  0  0  0  0  0
    4.9047   -2.6979   -3.6018 O   0  0  0  0  0  0  0  0  0  0  0  0
    4.2896   -3.1134   -2.3489 C   0  0  2  0  0  0  0  0  0  0  0  0
    2.8741   -3.4366   -2.8087 C   0  0  0  0  0  0  0  0  0  0  0  0
    4.7155   -3.8048   -0.8332 C   0  0  2  0  0  0  0  0  0  0  0  0
    4.6513   -5.1908   -0.9719 O   0  0  0  0  0  0  0  0  0  0  0  0
    6.1915   -3.5195   -0.3294 C   0  0  2  0  0  0  0  0  0  0  0  0
    7.1971   -3.4567   -1.5372 C   0  0  0  0  0  0  0  0  0  0  0  0
    7.0933   -4.0129    0.7979 C   0  0  0  0  0  0  0  0  0  0  0  0
    7.4439   -2.5868    0.9508 O   0  0  0  0  0  0  0  0  0  0  0  0
    6.0374   -2.3445    0.7146 C   0  0  1  0  0  0  0  0  0  0  0  0
    5.6943   -2.2923    2.2665 C   0  0  0  0  0  0  0  0  0  0  0  0
    4.6644   -3.2770    2.8843 C   0  0  1  0  0  0  0  0  0  0  0  0
    3.8138   -2.5247    3.9284 C   0  0  0  0  0  0  0  0  0  0  0  0
    5.3581   -4.1959    3.7071 O   0  0  0  0  0  0  0  0  0  0  0  0
    4.9174   -5.8905    1.5206 H   0  0  0  0  0  0  0  0  0  0  0  0
    3.1952   -5.9934    1.1370 H   0  0  0  0  0  0  0  0  0  0  0  0
    3.7283   -5.9762    2.7933 H   0  0  0  0  0  0  0  0  0  0  0  0
    2.7744   -3.8901    2.2334 H   0  0  0  0  0  0  0  0  0  0  0  0
    2.6941   -3.6400    0.1211 H   0  0  0  0  0  0  0  0  0  0  0  0
    2.7168   -1.8887   -1.1434 H   0  0  0  0  0  0  0  0  0  0  0  0
    6.0781   -0.7658   -0.6323 H   0  0  0  0  0  0  0  0  0  0  0  0
    4.6994    0.5152    0.3248 H   0  0  0  0  0  0  0  0  0  0  0  0
    3.5448   -0.0699   -2.5923 H   0  0  0  0  0  0  0  0  0  0  0  0
    5.1889    0.4562   -2.4224 H   0  0  0  0  0  0  0  0  0  0  0  0
    6.1004   -1.6635   -2.5155 H   0  0  0  0  0  0  0  0  0  0  0  0
    2.2518   -3.8685   -2.0265 H   0  0  0  0  0  0  0  0  0  0  0  0
    2.9668   -4.1455   -3.6075 H   0  0  0  0  0  0  0  0  0  0  0  0
    2.4076   -2.5439   -3.2625 H   0  0  0  0  0  0  0  0  0  0  0  0
    4.9526   -5.5884   -0.1665 H   0  0  0  0  0  0  0  0  0  0  0  0
    8.0855   -4.0525   -1.4184 H   0  0  0  0  0  0  0  0  0  0  0  0
    7.6649   -2.4651   -1.6233 H   0  0  0  0  0  0  0  0  0  0  0  0
    6.7717   -3.7697   -2.4932 H   0  0  0  0  0  0  0  0  0  0  0  0
    6.6453   -4.4728    1.6646 H   0  0  0  0  0  0  0  0  0  0  0  0
    7.9338   -4.6329    0.5112 H   0  0  0  0  0  0  0  0  0  0  0  0
    6.5615   -2.2673    2.9022 H   0  0  0  0  0  0  0  0  0  0  0  0
    5.3492   -1.2779    2.4418 H   0  0  0  0  0  0  0  0  0  0  0  0
    3.1825   -1.7641    3.4684 H   0  0  0  0  0  0  0  0  0  0  0  0
    4.4351   -2.0269    4.6769 H   0  0  0  0  0  0  0  0  0  0  0  0
    3.1612   -3.2142    4.4669 H   0  0  0  0  0  0  0  0  0  0  0  0
    5.8258   -4.8037    3.1514 H   0  0  0  0  0  0  0  0  0  0  0  0
  1  2  1  0
  1 24  1  0
  1 25  1  0
  1 26  1  0
  2 21  1  0
  2  3  1  0
  2 27  1  1
  3 13  1  0
  3  4  1  0
  3 28  1  6
  4  7  1  0
  4  5  2  0
  5  6  1  0
  5 29  1  0
  6 19  1  0
  6  7  1  0
  6 30  1  6
  7  8  1  0
  7 31  1  1
  8  9  1  0
  8 32  1  0
  8 33  1  0
  9 11  1  0
  9 10  1  0
  9 34  1  1
 10 11  1  0
 11 12  1  6
 11 13  1  0
 12 35  1  0
 12 36  1  0
 12 37  1  0
 13 14  1  6
 13 15  1  0
 14 38  1  0
 15 19  1  0
 15 16  1  6
 15 17  1  0
 16 39  1  0
 16 40  1  0
 16 41  1  0
 17 18  1  0
 17 42  1  0
 17 43  1  0
 19 18  1  1
 19 20  1  0
 20 21  1  0
 20 44  1  0
 20 45  1  0
 21 22  1  0
 21 23  1  1
 22 46  1  0
 22 47  1  0
 22 48  1  0
 23 49  1  0
M  END
>  <i_m_ct_stereo_status>  (6) 
1

>  <s_m_source_file>  (6) 
/var/tmp/pbs.5076255.sched01/tmpc_kifbv4/0gx9_4qhc.sdf

>  <i_m_source_file_index>  (6) 
3

>  <i_lp_mmshare_version>  (6) 
48012

>  <i_f3d_flags>  (6) 
0

>  <s_epik_input>  (6) 
W0NAXTEyM1tDQEBIXTRbQ0BASF01Qyg9W0NIXTQpW0NASF0oW0NAQEhdKFtDSDNdKVtDQEBdKFtDSDJdMykoW0NIM10pW09IXSlbQ0BdKFtPSF0pKFtDQF0xKFtDSDNdKVtDSDJdTzIpW0NAQF02KFtDSDNdKVtDSF0oTzYpW0NIMl01

>  <s_epik_cmdline>  (6) 
J2VwaWtfcHl0aG9uJywgJy1waHQnLCAnMi4wJywgJy1waCcsICc3LjAnLCAnLXRuJywgJzgnLCAnLW1hJywgJzIwMCcsICctaW1hZScsICc8aW5maWxlLm1hZT4nLCAnLW9tYWUnLCAnPG91dGZpbGUubWFlPic=

>  <r_lp_tautomer_probability>  (6) 
1

>  <r_epik_Ionization_Penalty>  (6) 
2.74005e-07

>  <r_epik_Ionization_Penalty_Charging>  (6) 
0

>  <r_epik_Ionization_Penalty_Neutral>  (6) 
2.74005e-07

>  <r_epik_State_Penalty>  (6) 
-0

>  <r_epik_Charging_Adjusted_Penalty>  (6) 
0

>  <i_epik_Tot_Q>  (6) 
0

>  <i_epik_Tot_abs_Q>  (6) 
0

>  <s_lp_Force_Field>  (6) 
OPLS3e

>  <r_lp_Energy>  (6) 
598.135

>  <b_lp_Chiralities_Consistent>  (6) 
1

>  <s_lp_Variant>  (6) 
2:0-1

>  <s_i_glide_gridfile>  (6) 
pfpi4k_grid

>  <i_i_glide_lignum>  (6) 
3

>  <i_i_glide_rotatable_bonds>  (6) 
2

>  <r_i_docking_score>  (6) 
-1.88644

>  <r_i_glide_ligand_efficiency>  (6) 
-0.0820192

>  <r_i_glide_ligand_efficiency_sa>  (6) 
-0.233252

>  <r_i_glide_ligand_efficiency_ln>  (6) 
-0.456159

>  <r_i_glide_gscore>  (6) 
-1.88644

>  <r_i_glide_lipo>  (6) 
-0.503895

>  <r_i_glide_hbond>  (6) 
0

>  <r_i_glide_metal>  (6) 
-0

>  <r_i_glide_rewards>  (6) 
-1.23813

>  <r_i_glide_evdw>  (6) 
-3.74838

>  <r_i_glide_ecoul>  (6) 
0.286689

>  <r_i_glide_erotb>  (6) 
0

>  <r_i_glide_esite>  (6) 
0

>  <r_i_glide_emodel>  (6) 
-3.49757

>  <r_i_glide_energy>  (6) 
-3.46169

>  <r_i_glide_einternal>  (6) 
0.180971

>  <r_i_glide_intrahb_reward>  (6) 
-0

>  <i_i_glide_confnum>  (6) 
2

>  <i_i_glide_posenum>  (6) 
2

>  <r_i_glide_eff_state_penalty>  (6) 
0

>  <ligand_id>  (6) 
2

>  <original_smiles>  (6) 
CC1C2C3=CC4C3CC3OC3(C)C2(O)C2(C)COC42CC1(C)O

>  <smiles>  (6) 
[H]OC1(C([H])([H])[H])C([H])([H])C23OC([H])([H])C2(C([H])([H])[H])C2(O[H])C([H])(C4=C([H])C3([H])C4([H])C([H])([H])C3([H])OC32C([H])([H])[H])C1([H])C([H])([H])[H]

$$$$
3:0:0
     RDKit          3D

 88 94  0  0  1  0  0  0  0  0999 V2000
    1.4188   -1.1809    2.3479 C   0  0  0  0  0  0  0  0  0  0  0  0
    2.3371   -1.9651    2.9603 C   0  0  0  0  0  0  0  0  0  0  0  0
    3.4889   -2.5075    2.1087 C   0  0  1  0  0  0  0  0  0  0  0  0
    4.6243   -1.6348    2.0329 O   0  0  0  0  0  0  0  0  0  0  0  0
    4.4314   -0.3776    1.3978 C   0  0  0  0  0  0  0  0  0  0  0  0
    3.9317   -3.9733    2.4291 C   0  0  2  0  0  0  0  0  0  0  0  0
    2.7398   -4.7585    2.4350 O   0  0  0  0  0  0  0  0  0  0  0  0
    2.0748   -5.0676    3.6555 C   0  0  1  0  0  0  0  0  0  0  0  0
    0.8374   -5.9793    3.2392 C   0  0  1  0  0  0  0  0  0  0  0  0
    0.7278   -6.2422    1.8477 O   0  0  0  0  0  0  0  0  0  0  0  0
    0.9806   -7.2662    4.0528 C   0  0  1  0  0  0  0  0  0  0  0  0
    0.0310   -8.5174    3.9032 C   0  0  0  0  0  0  0  0  0  0  0  0
   -1.4342   -8.0683    4.1054 C   0  0  0  0  0  0  0  0  0  0  0  0
    0.0417   -9.3155    2.5706 C   0  0  0  0  0  0  0  0  0  0  0  0
    0.4153   -9.4661    5.0651 C   0  0  0  0  0  0  0  0  0  0  0  0
    1.9215   -9.7904    5.1231 C   0  0  0  0  0  0  0  0  0  0  0  0
    2.7948   -8.5280    5.2981 C   0  0  0  0  0  0  0  0  0  0  0  0
    2.5124   -7.4376    4.2193 C   0  0  1  0  0  0  0  0  0  0  0  0
    3.0431   -7.9702    2.8440 C   0  0  0  0  0  0  0  0  0  0  0  0
    2.9873   -5.9315    4.6175 C   0  0  2  0  0  0  0  0  0  0  0  0
    2.3487   -5.5257    6.0379 C   0  0  1  0  0  0  0  0  0  0  0  0
    3.1907   -5.1871    7.1310 O   0  0  0  0  0  0  0  0  0  0  0  0
    2.8201   -5.3685    8.4147 C   0  0  0  0  0  0  0  0  0  0  0  0
    3.9258   -4.9826    9.3893 C   0  0  0  0  0  0  0  0  0  0  0  0
    1.7296   -5.7848    8.8043 O   0  0  0  0  0  0  0  0  0  0  0  0
    1.3071   -4.4142    5.8489 C   0  0  0  0  0  0  0  0  0  0  0  0
    1.5069   -3.8394    4.4455 C   0  0  1  0  0  0  0  0  0  0  0  0
    2.1794   -2.4229    4.4241 C   0  0  2  0  0  0  0  0  0  0  0  0
    1.2129   -1.4469    5.1704 C   0  0  0  0  0  0  0  0  0  0  0  0
    3.4845   -2.3359    5.2578 C   0  0  0  0  0  0  0  0  0  0  0  0
    4.7882   -2.8649    4.6770 C   0  0  0  0  0  0  0  0  0  0  0  0
    4.7508   -4.1184    3.7607 C   0  0  1  0  0  0  0  0  0  0  0  0
    4.5668   -5.5278    4.4293 C   0  0  1  0  0  0  0  0  0  0  0  0
    5.4608   -5.6006    5.7117 C   0  0  0  0  0  0  0  0  0  0  0  0
    5.3309   -6.5720    3.6128 C   0  0  0  0  0  0  0  0  0  0  0  0
    5.8708   -6.5784    2.3752 C   0  0  0  0  0  0  0  0  0  0  0  0
    5.8474   -5.5355    1.3308 C   0  0  0  0  0  0  0  0  0  0  0  0
    6.7468   -5.4990    0.4874 O   0  0  0  0  0  0  0  0  0  0  0  0
    4.7328   -4.4824    1.1728 C   0  0  1  0  0  0  0  0  0  0  0  0
    3.8561   -4.8871   -0.0348 C   0  0  0  0  0  0  0  0  0  0  0  0
    0.5393   -0.7984    2.8347 H   0  0  0  0  0  0  0  0  0  0  0  0
    1.5287   -0.9154    1.3051 H   0  0  0  0  0  0  0  0  0  0  0  0
    3.0965   -2.5217    1.0937 H   0  0  0  0  0  0  0  0  0  0  0  0
    5.3896    0.1335    1.3286 H   0  0  0  0  0  0  0  0  0  0  0  0
    3.7629    0.2674    1.9662 H   0  0  0  0  0  0  0  0  0  0  0  0
    4.0426   -0.4893    0.3859 H   0  0  0  0  0  0  0  0  0  0  0  0
   -0.1158   -5.5336    3.5153 H   0  0  0  0  0  0  0  0  0  0  0  0
    1.4940   -6.7475    1.6028 H   0  0  0  0  0  0  0  0  0  0  0  0
    0.6100   -6.9451    5.0130 H   0  0  0  0  0  0  0  0  0  0  0  0
   -2.1062   -8.9271    4.1356 H   0  0  0  0  0  0  0  0  0  0  0  0
   -1.7767   -7.4199    3.2992 H   0  0  0  0  0  0  0  0  0  0  0  0
   -1.5598   -7.5303    5.0421 H   0  0  0  0  0  0  0  0  0  0  0  0
   -0.8503   -9.9397    2.4845 H   0  0  0  0  0  0  0  0  0  0  0  0
    0.8667  -10.0245    2.5069 H   0  0  0  0  0  0  0  0  0  0  0  0
    0.0642   -8.6710    1.6946 H   0  0  0  0  0  0  0  0  0  0  0  0
    0.1312   -9.0201    6.0174 H   0  0  0  0  0  0  0  0  0  0  0  0
   -0.1495  -10.3927    5.0001 H   0  0  0  0  0  0  0  0  0  0  0  0
    2.1042  -10.4619    5.9624 H   0  0  0  0  0  0  0  0  0  0  0  0
    2.2305  -10.3465    4.2396 H   0  0  0  0  0  0  0  0  0  0  0  0
    2.6390   -8.1642    6.3109 H   0  0  0  0  0  0  0  0  0  0  0  0
    3.8461   -8.8152    5.2681 H   0  0  0  0  0  0  0  0  0  0  0  0
    3.9456   -8.5707    2.9496 H   0  0  0  0  0  0  0  0  0  0  0  0
    3.2398   -7.1707    2.1338 H   0  0  0  0  0  0  0  0  0  0  0  0
    2.3747   -8.6295    2.3191 H   0  0  0  0  0  0  0  0  0  0  0  0
    1.7866   -6.3641    6.4329 H   0  0  0  0  0  0  0  0  0  0  0  0
    4.8423   -5.5298    9.1624 H   0  0  0  0  0  0  0  0  0  0  0  0
    3.6357   -5.2072   10.4167 H   0  0  0  0  0  0  0  0  0  0  0  0
    4.1338   -3.9149    9.3155 H   0  0  0  0  0  0  0  0  0  0  0  0
    0.3148   -4.8559    5.9108 H   0  0  0  0  0  0  0  0  0  0  0  0
    1.3318   -3.6828    6.6529 H   0  0  0  0  0  0  0  0  0  0  0  0
    0.5199   -3.6247    4.0347 H   0  0  0  0  0  0  0  0  0  0  0  0
    1.2248   -1.5866    6.2518 H   0  0  0  0  0  0  0  0  0  0  0  0
    0.1747   -1.5494    4.8515 H   0  0  0  0  0  0  0  0  0  0  0  0
    1.5050   -0.4075    5.0110 H   0  0  0  0  0  0  0  0  0  0  0  0
    3.6721   -1.2865    5.4910 H   0  0  0  0  0  0  0  0  0  0  0  0
    3.3436   -2.7862    6.2379 H   0  0  0  0  0  0  0  0  0  0  0  0
    5.2712   -2.0452    4.1568 H   0  0  0  0  0  0  0  0  0  0  0  0
    5.4921   -2.9873    5.4925 H   0  0  0  0  0  0  0  0  0  0  0  0
    5.7993   -4.0800    3.4754 H   0  0  0  0  0  0  0  0  0  0  0  0
    5.3278   -4.8082    6.4409 H   0  0  0  0  0  0  0  0  0  0  0  0
    6.5208   -5.5258    5.4574 H   0  0  0  0  0  0  0  0  0  0  0  0
    5.3328   -6.5442    6.2443 H   0  0  0  0  0  0  0  0  0  0  0  0
    5.5022   -7.4809    4.1799 H   0  0  0  0  0  0  0  0  0  0  0  0
    6.3975   -7.4845    2.1050 H   0  0  0  0  0  0  0  0  0  0  0  0
    5.3011   -3.6161    0.8394 H   0  0  0  0  0  0  0  0  0  0  0  0
    4.4526   -4.9379   -0.9475 H   0  0  0  0  0  0  0  0  0  0  0  0
    3.0481   -4.1857   -0.2390 H   0  0  0  0  0  0  0  0  0  0  0  0
    3.4070   -5.8694    0.1041 H   0  0  0  0  0  0  0  0  0  0  0  0
  1  2  2  0
  1 41  1  0
  1 42  1  0
  2 28  1  0
  2  3  1  0
  3  4  1  0
  3  6  1  0
  3 43  1  6
  4  5  1  0
  5 44  1  0
  5 45  1  0
  5 46  1  0
  6 32  1  0
  6 39  1  0
  6  7  1  1
  8  7  1  6
  8 20  1  0
  8 27  1  0
  8  9  1  0
  9 10  1  0
  9 11  1  0
  9 47  1  1
 10 48  1  0
 11 18  1  0
 11 12  1  0
 11 49  1  1
 12 13  1  0
 12 14  1  0
 12 15  1  0
 13 50  1  0
 13 51  1  0
 13 52  1  0
 14 53  1  0
 14 54  1  0
 14 55  1  0
 15 16  1  0
 15 56  1  0
 15 57  1  0
 16 17  1  0
 16 58  1  0
 16 59  1  0
 17 18  1  0
 17 60  1  0
 17 61  1  0
 18 19  1  6
 20 18  1  6
 19 62  1  0
 19 63  1  0
 19 64  1  0
 20 33  1  0
 20 21  1  0
 21 22  1  0
 21 26  1  0
 21 65  1  1
 22 23  1  0
 23 24  1  0
 23 25  2  0
 24 66  1  0
 24 67  1  0
 24 68  1  0
 26 27  1  0
 26 69  1  0
 26 70  1  0
 27 28  1  0
 27 71  1  6
 28 29  1  1
 28 30  1  0
 29 72  1  0
 29 73  1  0
 29 74  1  0
 30 31  1  0
 30 75  1  0
 30 76  1  0
 31 32  1  0
 31 77  1  0
 31 78  1  0
 32 33  1  0
 32 79  1  6
 33 34  1  1
 33 35  1  0
 34 80  1  0
 34 81  1  0
 34 82  1  0
 35 36  2  0
 35 83  1  0
 36 37  1  0
 36 84  1  0
 37 38  2  0
 37 39  1  0
 39 40  1  0
 39 85  1  6
 40 86  1  0
 40 87  1  0
 40 88  1  0
M  END
>  <i_m_ct_stereo_status>  (7) 
1

>  <s_m_source_file>  (7) 
/var/tmp/pbs.5076255.sched01/tmpc_kifbv4/0gx9_4qhc.sdf

>  <i_m_source_file_index>  (7) 
4

>  <i_lp_mmshare_version>  (7) 
48012

>  <i_f3d_flags>  (7) 
0

>  <s_epik_input>  (7) 
W0NIM11bQ0BASF0xQyg9TylbQ0hdPVtDSF1bQ0BdKFtDQEhdMltDQF0xMzQpKFtDSDNdKVtDQEBdNTZbQ0BdKE80KShbQ0BASF0oW0NIMl1bQ0BASF02T0MoPU8pW0NIM10pW0NAQF0oW0NIM10pKFtDSDJdW0NIMl0yKUMoPVtDSDJdKVtDQEhdM09bQ0gzXSlbQ0BASF0oW09IXSlbQ0BASF03W0NAXTUoW0NIM10pW0NIMl1bQ0gyXVtDSDJdQzcoW0NIM10pW0NIM10=

>  <s_epik_cmdline>  (7) 
J2VwaWtfcHl0aG9uJywgJy1waHQnLCAnMi4wJywgJy1waCcsICc3LjAnLCAnLXRuJywgJzgnLCAnLW1hJywgJzIwMCcsICctaW1hZScsICc8aW5maWxlLm1hZT4nLCAnLW9tYWUnLCAnPG91dGZpbGUubWFlPic=

>  <r_lp_tautomer_probability>  (7) 
1

>  <r_epik_Ionization_Penalty>  (7) 
5.02512e-08

>  <r_epik_Ionization_Penalty_Charging>  (7) 
0

>  <r_epik_Ionization_Penalty_Neutral>  (7) 
5.02512e-08

>  <r_epik_State_Penalty>  (7) 
-0

>  <r_epik_Charging_Adjusted_Penalty>  (7) 
0

>  <i_epik_Tot_Q>  (7) 
0

>  <i_epik_Tot_abs_Q>  (7) 
0

>  <s_epik_Chemistry_Notes>  (7) 
This compound has an ester and may undergo hydrolysis at high or low pH.

>  <s_lp_Force_Field>  (7) 
OPLS3e

>  <r_lp_Energy>  (7) 
155.332

>  <b_lp_Chiralities_Consistent>  (7) 
1

>  <s_lp_Variant>  (7) 
3:0-1

>  <s_i_glide_gridfile>  (7) 
pfpi4k_grid

>  <i_i_glide_lignum>  (7) 
4

>  <i_i_glide_rotatable_bonds>  (7) 
4

>  <r_i_docking_score>  (7) 
-2.07363

>  <r_i_glide_ligand_efficiency>  (7) 
-0.0518408

>  <r_i_glide_ligand_efficiency_sa>  (7) 
-0.177293

>  <r_i_glide_ligand_efficiency_ln>  (7) 
-0.442245

>  <r_i_glide_gscore>  (7) 
-2.07363

>  <r_i_glide_lipo>  (7) 
-0.222193

>  <r_i_glide_hbond>  (7) 
0

>  <r_i_glide_metal>  (7) 
-0

>  <r_i_glide_rewards>  (7) 
-0.104925

>  <r_i_glide_evdw>  (7) 
-23.652

>  <r_i_glide_ecoul>  (7) 
-4.21214

>  <r_i_glide_erotb>  (7) 
0.0679052

>  <r_i_glide_esite>  (7) 
0

>  <r_i_glide_emodel>  (7) 
-31.4364

>  <r_i_glide_energy>  (7) 
-27.8641

>  <r_i_glide_einternal>  (7) 
0.138967

>  <r_i_glide_intrahb_reward>  (7) 
-0

>  <i_i_glide_confnum>  (7) 
4

>  <i_i_glide_posenum>  (7) 
34

>  <r_i_glide_eff_state_penalty>  (7) 
0

>  <ligand_id>  (7) 
3

>  <original_smiles>  (7) 
C=C1C(OC)C23OC45C(O)C6C(C)(C)CCCC6(C)C46C(OC(C)=O)CC5C1(C)CCC2C6(C)C=CC(=O)C3C

>  <smiles>  (7) 
[H]OC1([H])C2([H])C(C([H])([H])[H])(C([H])([H])[H])C([H])([H])C([H])([H])C([H])([H])C2(C([H])([H])[H])C23C([H])(OC(=O)C([H])([H])[H])C([H])([H])C4([H])C12OC12C([H])(OC([H])([H])[H])C(=C([H])[H])C4(C([H])([H])[H])C([H])([H])C([H])([H])C1([H])C3(C([H])([H])[H])C([H])=C([H])C(=O)C2([H])C([H])([H])[H]

$$$$
3:0:1
     RDKit          3D

 88 94  0  0  1  0  0  0  0  0999 V2000
    2.6284   -1.2418    1.3105 C   0  0  0  0  0  0  0  0  0  0  0  0
    3.2624   -1.9802    2.2469 C   0  0  0  0  0  0  0  0  0  0  0  0
    4.4647   -2.8171    1.7959 C   0  0  1  0  0  0  0  0  0  0  0  0
    5.7148   -2.1138    1.8196 O   0  0  0  0  0  0  0  0  0  0  0  0
    5.8738   -1.0460    0.8971 C   0  0  0  0  0  0  0  0  0  0  0  0
    4.5942   -4.2233    2.4628 C   0  0  2  0  0  0  0  0  0  0  0  0
    3.3216   -4.8515    2.3307 O   0  0  0  0  0  0  0  0  0  0  0  0
    2.3809   -4.8217    3.3995 C   0  0  1  0  0  0  0  0  0  0  0  0
    1.1295   -5.6497    2.8772 C   0  0  1  0  0  0  0  0  0  0  0  0
    1.2615   -6.1606    1.5604 O   0  0  0  0  0  0  0  0  0  0  0  0
    0.9007   -6.7535    3.9086 C   0  0  1  0  0  0  0  0  0  0  0  0
   -0.1788   -7.8906    3.7656 C   0  0  0  0  0  0  0  0  0  0  0  0
   -1.5730   -7.2574    3.5592 C   0  0  0  0  0  0  0  0  0  0  0  0
   -0.0258   -8.9457    2.6358 C   0  0  0  0  0  0  0  0  0  0  0  0
   -0.1875   -8.6173    5.1337 C   0  0  0  0  0  0  0  0  0  0  0  0
    1.2069   -9.0950    5.5927 C   0  0  0  0  0  0  0  0  0  0  0  0
    2.2055   -7.9312    5.7431 C   0  0  0  0  0  0  0  0  0  0  0  0
    2.3185   -7.0613    4.4536 C   0  0  1  0  0  0  0  0  0  0  0  0
    3.0297   -7.9199    3.3536 C   0  0  0  0  0  0  0  0  0  0  0  0
    2.9315   -5.5694    4.6813 C   0  0  2  0  0  0  0  0  0  0  0  0
    2.0861   -4.8089    5.8207 C   0  0  1  0  0  0  0  0  0  0  0  0
    2.7278   -4.3501    7.0013 O   0  0  0  0  0  0  0  0  0  0  0  0
    2.0776   -4.2124    8.1736 C   0  0  0  0  0  0  0  0  0  0  0  0
    3.0047   -3.7546    9.2918 C   0  0  0  0  0  0  0  0  0  0  0  0
    0.8777   -4.4090    8.3671 O   0  0  0  0  0  0  0  0  0  0  0  0
    1.2899   -3.6509    5.2025 C   0  0  0  0  0  0  0  0  0  0  0  0
    1.8607   -3.4021    3.8053 C   0  0  1  0  0  0  0  0  0  0  0  0
    2.7328   -2.1076    3.6942 C   0  0  2  0  0  0  0  0  0  0  0  0
    1.7973   -0.8951    4.0092 C   0  0  0  0  0  0  0  0  0  0  0  0
    3.8284   -2.0014    4.7843 C   0  0  0  0  0  0  0  0  0  0  0  0
    5.1225   -2.7778    4.6119 C   0  0  0  0  0  0  0  0  0  0  0  0
    5.0841   -4.1820    3.9507 C   0  0  1  0  0  0  0  0  0  0  0  0
    4.5580   -5.3949    4.7914 C   0  0  1  0  0  0  0  0  0  0  0  0
    5.1469   -5.3026    6.2372 C   0  0  0  0  0  0  0  0  0  0  0  0
    5.3067   -6.6621    4.3642 C   0  0  0  0  0  0  0  0  0  0  0  0
    6.0800   -6.9828    3.3076 C   0  0  0  0  0  0  0  0  0  0  0  0
    6.4221   -6.1853    2.1085 C   0  0  0  0  0  0  0  0  0  0  0  0
    7.4466   -6.4430    1.4751 O   0  0  0  0  0  0  0  0  0  0  0  0
    5.5418   -5.0615    1.5291 C   0  0  1  0  0  0  0  0  0  0  0  0
    4.8713   -5.6008    0.2412 C   0  0  0  0  0  0  0  0  0  0  0  0
    1.7351   -0.6680    1.5019 H   0  0  0  0  0  0  0  0  0  0  0  0
    2.9866   -1.2113    0.2917 H   0  0  0  0  0  0  0  0  0  0  0  0
    4.2814   -2.9993    0.7386 H   0  0  0  0  0  0  0  0  0  0  0  0
    6.8910   -0.6628    0.9717 H   0  0  0  0  0  0  0  0  0  0  0  0
    5.1995   -0.2160    1.1022 H   0  0  0  0  0  0  0  0  0  0  0  0
    5.7256   -1.3813   -0.1296 H   0  0  0  0  0  0  0  0  0  0  0  0
    0.2235   -5.0543    2.8466 H   0  0  0  0  0  0  0  0  0  0  0  0
    2.0028   -6.7529    1.5653 H   0  0  0  0  0  0  0  0  0  0  0  0
    0.3956   -6.2031    4.6881 H   0  0  0  0  0  0  0  0  0  0  0  0
   -2.3593   -8.0150    3.5835 H   0  0  0  0  0  0  0  0  0  0  0  0
   -1.6413   -6.7615    2.5925 H   0  0  0  0  0  0  0  0  0  0  0  0
   -1.8132   -6.5371    4.3408 H   0  0  0  0  0  0  0  0  0  0  0  0
   -0.9667   -9.4721    2.4564 H   0  0  0  0  0  0  0  0  0  0  0  0
    0.6744   -9.7420    2.8891 H   0  0  0  0  0  0  0  0  0  0  0  0
    0.2762   -8.5084    1.6854 H   0  0  0  0  0  0  0  0  0  0  0  0
   -0.5808   -7.9495    5.9020 H   0  0  0  0  0  0  0  0  0  0  0  0
   -0.8700   -9.4505    5.1024 H   0  0  0  0  0  0  0  0  0  0  0  0
    1.1034   -9.6012    6.5533 H   0  0  0  0  0  0  0  0  0  0  0  0
    1.5954   -9.8542    4.9139 H   0  0  0  0  0  0  0  0  0  0  0  0
    1.9029   -7.3519    6.6120 H   0  0  0  0  0  0  0  0  0  0  0  0
    3.1827   -8.3357    6.0065 H   0  0  0  0  0  0  0  0  0  0  0  0
    3.7879   -8.5850    3.7674 H   0  0  0  0  0  0  0  0  0  0  0  0
    3.4882   -7.3117    2.5784 H   0  0  0  0  0  0  0  0  0  0  0  0
    2.3874   -8.5933    2.8126 H   0  0  0  0  0  0  0  0  0  0  0  0
    1.3317   -5.4790    6.2163 H   0  0  0  0  0  0  0  0  0  0  0  0
    3.8523   -4.4361    9.3875 H   0  0  0  0  0  0  0  0  0  0  0  0
    2.4789   -3.7217   10.2458 H   0  0  0  0  0  0  0  0  0  0  0  0
    3.3881   -2.7574    9.0738 H   0  0  0  0  0  0  0  0  0  0  0  0
    0.2502   -3.9568    5.1076 H   0  0  0  0  0  0  0  0  0  0  0  0
    1.2603   -2.7772    5.8479 H   0  0  0  0  0  0  0  0  0  0  0  0
    1.0246   -3.1661    3.1452 H   0  0  0  0  0  0  0  0  0  0  0  0
    1.5652   -0.8100    5.0702 H   0  0  0  0  0  0  0  0  0  0  0  0
    0.8436   -0.9438    3.4799 H   0  0  0  0  0  0  0  0  0  0  0  0
    2.2749    0.0498    3.7411 H   0  0  0  0  0  0  0  0  0  0  0  0
    4.1269   -0.9553    4.8602 H   0  0  0  0  0  0  0  0  0  0  0  0
    3.4177   -2.2163    5.7690 H   0  0  0  0  0  0  0  0  0  0  0  0
    5.8057   -2.1363    4.0680 H   0  0  0  0  0  0  0  0  0  0  0  0
    5.6294   -2.8020    5.5712 H   0  0  0  0  0  0  0  0  0  0  0  0
    6.1598   -4.3277    3.9145 H   0  0  0  0  0  0  0  0  0  0  0  0
    4.9929   -4.3666    6.7631 H   0  0  0  0  0  0  0  0  0  0  0  0
    6.2355   -5.4011    6.2244 H   0  0  0  0  0  0  0  0  0  0  0  0
    4.7675   -6.0961    6.8840 H   0  0  0  0  0  0  0  0  0  0  0  0
    5.2131   -7.4480    5.1060 H   0  0  0  0  0  0  0  0  0  0  0  0
    6.5034   -7.9781    3.3283 H   0  0  0  0  0  0  0  0  0  0  0  0
    6.2956   -4.3528    1.1893 H   0  0  0  0  0  0  0  0  0  0  0  0
    5.6281   -5.8865   -0.4858 H   0  0  0  0  0  0  0  0  0  0  0  0
    4.2368   -4.8712   -0.2583 H   0  0  0  0  0  0  0  0  0  0  0  0
    4.2633   -6.4831    0.4418 H   0  0  0  0  0  0  0  0  0  0  0  0
  1  2  2  0
  1 41  1  0
  1 42  1  0
  2 28  1  0
  2  3  1  0
  3  4  1  0
  3  6  1  0
  3 43  1  6
  4  5  1  0
  5 44  1  0
  5 45  1  0
  5 46  1  0
  6 32  1  0
  6 39  1  0
  6  7  1  1
  8  7  1  6
  8 20  1  0
  8 27  1  0
  8  9  1  0
  9 10  1  0
  9 11  1  0
  9 47  1  6
 10 48  1  0
 11 18  1  0
 11 12  1  0
 11 49  1  1
 12 13  1  0
 12 14  1  0
 12 15  1  0
 13 50  1  0
 13 51  1  0
 13 52  1  0
 14 53  1  0
 14 54  1  0
 14 55  1  0
 15 16  1  0
 15 56  1  0
 15 57  1  0
 16 17  1  0
 16 58  1  0
 16 59  1  0
 17 18  1  0
 17 60  1  0
 17 61  1  0
 18 19  1  6
 20 18  1  6
 19 62  1  0
 19 63  1  0
 19 64  1  0
 20 33  1  0
 20 21  1  0
 21 22  1  0
 21 26  1  0
 21 65  1  1
 22 23  1  0
 23 24  1  0
 23 25  2  0
 24 66  1  0
 24 67  1  0
 24 68  1  0
 26 27  1  0
 26 69  1  0
 26 70  1  0
 27 28  1  0
 27 71  1  6
 28 29  1  1
 28 30  1  0
 29 72  1  0
 29 73  1  0
 29 74  1  0
 30 31  1  0
 30 75  1  0
 30 76  1  0
 31 32  1  0
 31 77  1  0
 31 78  1  0
 32 33  1  0
 32 79  1  6
 33 34  1  1
 33 35  1  0
 34 80  1  0
 34 81  1  0
 34 82  1  0
 35 36  2  0
 35 83  1  0
 36 37  1  0
 36 84  1  0
 37 38  2  0
 37 39  1  0
 39 40  1  0
 39 85  1  6
 40 86  1  0
 40 87  1  0
 40 88  1  0
M  END
>  <i_m_ct_stereo_status>  (8) 
1

>  <s_m_source_file>  (8) 
/var/tmp/pbs.5076255.sched01/tmpc_kifbv4/0gx9_4qhc.sdf

>  <i_m_source_file_index>  (8) 
4

>  <i_lp_mmshare_version>  (8) 
48012

>  <i_f3d_flags>  (8) 
0

>  <s_epik_input>  (8) 
W0NIM11bQ0BASF0xQyg9TylbQ0hdPVtDSF1bQ0BdKFtDQEhdMltDQF0xMzQpKFtDSDNdKVtDQEBdNTZbQ0BdKE80KShbQ0BASF0oW0NIMl1bQ0BASF02T0MoPU8pW0NIM10pW0NAQF0oW0NIM10pKFtDSDJdW0NIMl0yKUMoPVtDSDJdKVtDQEhdM09bQ0gzXSlbQ0BASF0oW09IXSlbQ0BASF03W0NAXTUoW0NIM10pW0NIMl1bQ0gyXVtDSDJdQzcoW0NIM10pW0NIM10=

>  <s_epik_cmdline>  (8) 
J2VwaWtfcHl0aG9uJywgJy1waHQnLCAnMi4wJywgJy1waCcsICc3LjAnLCAnLXRuJywgJzgnLCAnLW1hJywgJzIwMCcsICctaW1hZScsICc8aW5maWxlLm1hZT4nLCAnLW9tYWUnLCAnPG91dGZpbGUubWFlPic=

>  <r_lp_tautomer_probability>  (8) 
1

>  <r_epik_Ionization_Penalty>  (8) 
5.02512e-08

>  <r_epik_Ionization_Penalty_Charging>  (8) 
0

>  <r_epik_Ionization_Penalty_Neutral>  (8) 
5.02512e-08

>  <r_epik_State_Penalty>  (8) 
-0

>  <r_epik_Charging_Adjusted_Penalty>  (8) 
0

>  <i_epik_Tot_Q>  (8) 
0

>  <i_epik_Tot_abs_Q>  (8) 
0

>  <s_epik_Chemistry_Notes>  (8) 
This compound has an ester and may undergo hydrolysis at high or low pH.

>  <s_lp_Force_Field>  (8) 
OPLS3e

>  <r_lp_Energy>  (8) 
155.332

>  <b_lp_Chiralities_Consistent>  (8) 
1

>  <s_lp_Variant>  (8) 
3:0-1

>  <s_i_glide_gridfile>  (8) 
pfpi4k_grid

>  <i_i_glide_lignum>  (8) 
4

>  <i_i_glide_rotatable_bonds>  (8) 
4

>  <r_i_docking_score>  (8) 
-2.02827

>  <r_i_glide_ligand_efficiency>  (8) 
-0.0507068

>  <r_i_glide_ligand_efficiency_sa>  (8) 
-0.173415

>  <r_i_glide_ligand_efficiency_ln>  (8) 
-0.432571

>  <r_i_glide_gscore>  (8) 
-2.02827

>  <r_i_glide_lipo>  (8) 
-0.35181

>  <r_i_glide_hbond>  (8) 
0

>  <r_i_glide_metal>  (8) 
-0

>  <r_i_glide_rewards>  (8) 
-0.0559115

>  <r_i_glide_evdw>  (8) 
-22.9812

>  <r_i_glide_ecoul>  (8) 
-3.59591

>  <r_i_glide_erotb>  (8) 
0.0679052

>  <r_i_glide_esite>  (8) 
-1.13404e-05

>  <r_i_glide_emodel>  (8) 
-29.9951

>  <r_i_glide_energy>  (8) 
-26.5771

>  <r_i_glide_einternal>  (8) 
0.190292

>  <r_i_glide_intrahb_reward>  (8) 
-0

>  <i_i_glide_confnum>  (8) 
4

>  <i_i_glide_posenum>  (8) 
28

>  <r_i_glide_eff_state_penalty>  (8) 
0

>  <ligand_id>  (8) 
3

>  <original_smiles>  (8) 
C=C1C(OC)C23OC45C(O)C6C(C)(C)CCCC6(C)C46C(OC(C)=O)CC5C1(C)CCC2C6(C)C=CC(=O)C3C

>  <smiles>  (8) 
[H]OC1([H])C2([H])C(C([H])([H])[H])(C([H])([H])[H])C([H])([H])C([H])([H])C([H])([H])C2(C([H])([H])[H])C23C([H])(OC(=O)C([H])([H])[H])C([H])([H])C4([H])C12OC12C([H])(OC([H])([H])[H])C(=C([H])[H])C4(C([H])([H])[H])C([H])([H])C([H])([H])C1([H])C3(C([H])([H])[H])C([H])=C([H])C(=O)C2([H])C([H])([H])[H]

$$$$
3:0:2
     RDKit          3D

 88 94  0  0  1  0  0  0  0  0999 V2000
    1.4200   -1.2029    2.4304 C   0  0  0  0  0  0  0  0  0  0  0  0
    2.3420   -1.9918    3.0244 C   0  0  0  0  0  0  0  0  0  0  0  0
    3.4886   -2.5273    2.1596 C   0  0  1  0  0  0  0  0  0  0  0  0
    4.6241   -1.6535    2.0889 O   0  0  0  0  0  0  0  0  0  0  0  0
    4.4199   -0.3826    1.4854 C   0  0  0  0  0  0  0  0  0  0  0  0
    3.9360   -3.9953    2.4548 C   0  0  2  0  0  0  0  0  0  0  0  0
    2.7415   -4.7743    2.4473 O   0  0  0  0  0  0  0  0  0  0  0  0
    2.0865   -5.0985    3.6683 C   0  0  1  0  0  0  0  0  0  0  0  0
    0.8425   -6.0074    3.2589 C   0  0  1  0  0  0  0  0  0  0  0  0
    0.7222   -6.2560    1.8695 O   0  0  0  0  0  0  0  0  0  0  0  0
    0.9920   -7.3087    4.0545 C   0  0  1  0  0  0  0  0  0  0  0  0
    0.0435   -8.5619    3.9038 C   0  0  0  0  0  0  0  0  0  0  0  0
   -1.4182   -8.1146    4.1252 C   0  0  0  0  0  0  0  0  0  0  0  0
    0.0435   -9.3448    2.5666 C   0  0  0  0  0  0  0  0  0  0  0  0
    0.4414   -9.5253    5.0563 C   0  0  0  0  0  0  0  0  0  0  0  0
    1.9452   -9.8432    5.1004 C   0  0  0  0  0  0  0  0  0  0  0  0
    2.8211   -8.5839    5.2779 C   0  0  0  0  0  0  0  0  0  0  0  0
    2.5281   -7.4793    4.2117 C   0  0  1  0  0  0  0  0  0  0  0  0
    3.0493   -8.0026    2.8320 C   0  0  0  0  0  0  0  0  0  0  0  0
    3.0123   -5.9715    4.6036 C   0  0  2  0  0  0  0  0  0  0  0  0
    2.3889   -5.5800    6.0248 C   0  0  1  0  0  0  0  0  0  0  0  0
    3.2019   -5.2824    7.1523 O   0  0  0  0  0  0  0  0  0  0  0  0
    2.8832   -5.6099    8.4349 C   0  0  0  0  0  0  0  0  0  0  0  0
    1.5679   -6.3604    8.6604 C   0  0  0  0  0  0  0  0  0  0  0  0
    3.6014   -5.3221    9.3892 O   0  0  0  0  0  0  0  0  0  0  0  0
    1.3402   -4.4744    5.8713 C   0  0  0  0  0  0  0  0  0  0  0  0
    1.5225   -3.8777    4.4758 C   0  0  1  0  0  0  0  0  0  0  0  0
    2.1945   -2.4672    4.4806 C   0  0  2  0  0  0  0  0  0  0  0  0
    1.2344   -1.5029    5.2491 C   0  0  0  0  0  0  0  0  0  0  0  0
    3.5069   -2.3928    5.3104 C   0  0  0  0  0  0  0  0  0  0  0  0
    4.8060   -2.9164    4.7157 C   0  0  0  0  0  0  0  0  0  0  0  0
    4.7701   -4.1555    3.7808 C   0  0  1  0  0  0  0  0  0  0  0  0
    4.5895   -5.5732    4.4297 C   0  0  1  0  0  0  0  0  0  0  0  0
    5.4834   -5.6632    5.7086 C   0  0  0  0  0  0  0  0  0  0  0  0
    5.3497   -6.6121    3.5955 C   0  0  0  0  0  0  0  0  0  0  0  0
    5.8764   -6.6031    2.3629 C   0  0  0  0  0  0  0  0  0  0  0  0
    5.8430   -5.5416    1.3341 C   0  0  0  0  0  0  0  0  0  0  0  0
    6.7430   -5.4900    0.4933 O   0  0  0  0  0  0  0  0  0  0  0  0
    4.7270   -4.4933    1.1964 C   0  0  1  0  0  0  0  0  0  0  0  0
    3.8394   -4.8830   -0.0125 C   0  0  0  0  0  0  0  0  0  0  0  0
    0.5386   -0.8274    2.9305 H   0  0  0  0  0  0  0  0  0  0  0  0
    1.5194   -0.9272    1.3890 H   0  0  0  0  0  0  0  0  0  0  0  0
    3.0870   -2.5294    1.1474 H   0  0  0  0  0  0  0  0  0  0  0  0
    5.3767    0.1301    1.4142 H   0  0  0  0  0  0  0  0  0  0  0  0
    3.7591    0.2469    2.0815 H   0  0  0  0  0  0  0  0  0  0  0  0
    4.0144   -0.4735    0.4786 H   0  0  0  0  0  0  0  0  0  0  0  0
   -0.1082   -5.5692    3.5575 H   0  0  0  0  0  0  0  0  0  0  0  0
    1.4918   -6.7427    1.6134 H   0  0  0  0  0  0  0  0  0  0  0  0
    0.6084   -7.0022    5.0098 H   0  0  0  0  0  0  0  0  0  0  0  0
   -2.0898   -8.9717    4.1474 H   0  0  0  0  0  0  0  0  0  0  0  0
   -1.7660   -7.4540    3.3276 H   0  0  0  0  0  0  0  0  0  0  0  0
   -1.5373   -7.5884    5.0679 H   0  0  0  0  0  0  0  0  0  0  0  0
   -0.8506   -9.9638    2.4783 H   0  0  0  0  0  0  0  0  0  0  0  0
    0.8662  -10.0496    2.4849 H   0  0  0  0  0  0  0  0  0  0  0  0
    0.0576   -8.6836    1.6985 H   0  0  0  0  0  0  0  0  0  0  0  0
    0.1568   -9.0915    6.0137 H   0  0  0  0  0  0  0  0  0  0  0  0
   -0.1234  -10.4493    4.9817 H   0  0  0  0  0  0  0  0  0  0  0  0
    2.1314  -10.5258    5.9278 H   0  0  0  0  0  0  0  0  0  0  0  0
    2.2443  -10.3903    4.2084 H   0  0  0  0  0  0  0  0  0  0  0  0
    2.6761   -8.2370    6.2998 H   0  0  0  0  0  0  0  0  0  0  0  0
    3.8705   -8.8755    5.2395 H   0  0  0  0  0  0  0  0  0  0  0  0
    3.9538   -8.6045    2.9271 H   0  0  0  0  0  0  0  0  0  0  0  0
    3.2406   -7.1945    2.1280 H   0  0  0  0  0  0  0  0  0  0  0  0
    2.3750   -8.6563    2.3078 H   0  0  0  0  0  0  0  0  0  0  0  0
    1.8422   -6.4439    6.3558 H   0  0  0  0  0  0  0  0  0  0  0  0
    0.7316   -5.8259    8.2159 H   0  0  0  0  0  0  0  0  0  0  0  0
    1.3464   -6.4702    9.7279 H   0  0  0  0  0  0  0  0  0  0  0  0
    1.6243   -7.3634    8.2396 H   0  0  0  0  0  0  0  0  0  0  0  0
    0.3564   -4.9288    5.9378 H   0  0  0  0  0  0  0  0  0  0  0  0
    1.3759   -3.7557    6.6898 H   0  0  0  0  0  0  0  0  0  0  0  0
    0.5253   -3.6610    4.0829 H   0  0  0  0  0  0  0  0  0  0  0  0
    1.2532   -1.6595    6.3291 H   0  0  0  0  0  0  0  0  0  0  0  0
    0.1926   -1.6055    4.9368 H   0  0  0  0  0  0  0  0  0  0  0  0
    1.5245   -0.4640    5.1008 H   0  0  0  0  0  0  0  0  0  0  0  0
    3.6945   -1.3477    5.5561 H   0  0  0  0  0  0  0  0  0  0  0  0
    3.3723   -2.8553    6.2873 H   0  0  0  0  0  0  0  0  0  0  0  0
    5.2843   -2.0891    4.2032 H   0  0  0  0  0  0  0  0  0  0  0  0
    5.5137   -3.0489    5.5251 H   0  0  0  0  0  0  0  0  0  0  0  0
    5.8150   -4.1118    3.4870 H   0  0  0  0  0  0  0  0  0  0  0  0
    5.3447   -4.8826    6.4530 H   0  0  0  0  0  0  0  0  0  0  0  0
    6.5416   -5.5871    5.4568 H   0  0  0  0  0  0  0  0  0  0  0  0
    5.3538   -6.6128    6.2306 H   0  0  0  0  0  0  0  0  0  0  0  0
    5.5171   -7.5231    4.1564 H   0  0  0  0  0  0  0  0  0  0  0  0
    6.3996   -7.5101    2.0718 H   0  0  0  0  0  0  0  0  0  0  0  0
    5.2897   -3.6192    0.8697 H   0  0  0  0  0  0  0  0  0  0  0  0
    4.4343   -4.9232   -0.9276 H   0  0  0  0  0  0  0  0  0  0  0  0
    3.0304   -4.1777   -0.2009 H   0  0  0  0  0  0  0  0  0  0  0  0
    3.3907   -5.8694    0.1209 H   0  0  0  0  0  0  0  0  0  0  0  0
  1  2  2  0
  1 41  1  0
  1 42  1  0
  2 28  1  0
  2  3  1  0
  3  4  1  0
  3  6  1  0
  3 43  1  6
  4  5  1  0
  5 44  1  0
  5 45  1  0
  5 46  1  0
  6 32  1  0
  6 39  1  0
  6  7  1  1
  8  7  1  6
  8 20  1  0
  8 27  1  0
  8  9  1  0
  9 10  1  0
  9 11  1  0
  9 47  1  1
 10 48  1  0
 11 18  1  0
 11 12  1  0
 11 49  1  1
 12 13  1  0
 12 14  1  0
 12 15  1  0
 13 50  1  0
 13 51  1  0
 13 52  1  0
 14 53  1  0
 14 54  1  0
 14 55  1  0
 15 16  1  0
 15 56  1  0
 15 57  1  0
 16 17  1  0
 16 58  1  0
 16 59  1  0
 17 18  1  0
 17 60  1  0
 17 61  1  0
 18 19  1  6
 20 18  1  6
 19 62  1  0
 19 63  1  0
 19 64  1  0
 20 33  1  0
 20 21  1  0
 21 22  1  0
 21 26  1  0
 21 65  1  1
 22 23  1  0
 23 24  1  0
 23 25  2  0
 24 66  1  0
 24 67  1  0
 24 68  1  0
 26 27  1  0
 26 69  1  0
 26 70  1  0
 27 28  1  0
 27 71  1  6
 28 29  1  1
 28 30  1  0
 29 72  1  0
 29 73  1  0
 29 74  1  0
 30 31  1  0
 30 75  1  0
 30 76  1  0
 31 32  1  0
 31 77  1  0
 31 78  1  0
 32 33  1  0
 32 79  1  6
 33 34  1  1
 33 35  1  0
 34 80  1  0
 34 81  1  0
 34 82  1  0
 35 36  2  0
 35 83  1  0
 36 37  1  0
 36 84  1  0
 37 38  2  0
 37 39  1  0
 39 40  1  0
 39 85  1  6
 40 86  1  0
 40 87  1  0
 40 88  1  0
M  END
>  <i_m_ct_stereo_status>  (9) 
1

>  <s_m_source_file>  (9) 
/var/tmp/pbs.5076255.sched01/tmpc_kifbv4/0gx9_4qhc.sdf

>  <i_m_source_file_index>  (9) 
4

>  <i_lp_mmshare_version>  (9) 
48012

>  <i_f3d_flags>  (9) 
0

>  <s_epik_input>  (9) 
W0NIM11bQ0BASF0xQyg9TylbQ0hdPVtDSF1bQ0BdKFtDQEhdMltDQF0xMzQpKFtDSDNdKVtDQEBdNTZbQ0BdKE80KShbQ0BASF0oW0NIMl1bQ0BASF02T0MoPU8pW0NIM10pW0NAQF0oW0NIM10pKFtDSDJdW0NIMl0yKUMoPVtDSDJdKVtDQEhdM09bQ0gzXSlbQ0BASF0oW09IXSlbQ0BASF03W0NAXTUoW0NIM10pW0NIMl1bQ0gyXVtDSDJdQzcoW0NIM10pW0NIM10=

>  <s_epik_cmdline>  (9) 
J2VwaWtfcHl0aG9uJywgJy1waHQnLCAnMi4wJywgJy1waCcsICc3LjAnLCAnLXRuJywgJzgnLCAnLW1hJywgJzIwMCcsICctaW1hZScsICc8aW5maWxlLm1hZT4nLCAnLW9tYWUnLCAnPG91dGZpbGUubWFlPic=

>  <r_lp_tautomer_probability>  (9) 
1

>  <r_epik_Ionization_Penalty>  (9) 
5.02512e-08

>  <r_epik_Ionization_Penalty_Charging>  (9) 
0

>  <r_epik_Ionization_Penalty_Neutral>  (9) 
5.02512e-08

>  <r_epik_State_Penalty>  (9) 
-0

>  <r_epik_Charging_Adjusted_Penalty>  (9) 
0

>  <i_epik_Tot_Q>  (9) 
0

>  <i_epik_Tot_abs_Q>  (9) 
0

>  <s_epik_Chemistry_Notes>  (9) 
This compound has an ester and may undergo hydrolysis at high or low pH.

>  <s_lp_Force_Field>  (9) 
OPLS3e

>  <r_lp_Energy>  (9) 
155.332

>  <b_lp_Chiralities_Consistent>  (9) 
1

>  <s_lp_Variant>  (9) 
3:0-1

>  <s_i_glide_gridfile>  (9) 
pfpi4k_grid

>  <i_i_glide_lignum>  (9) 
4

>  <i_i_glide_rotatable_bonds>  (9) 
4

>  <r_i_docking_score>  (9) 
-1.99529

>  <r_i_glide_ligand_efficiency>  (9) 
-0.0498822

>  <r_i_glide_ligand_efficiency_sa>  (9) 
-0.170595

>  <r_i_glide_ligand_efficiency_ln>  (9) 
-0.425537

>  <r_i_glide_gscore>  (9) 
-1.99529

>  <r_i_glide_lipo>  (9) 
-0.215773

>  <r_i_glide_hbond>  (9) 
0

>  <r_i_glide_metal>  (9) 
-0

>  <r_i_glide_rewards>  (9) 
-0.104754

>  <r_i_glide_evdw>  (9) 
-23.7345

>  <r_i_glide_ecoul>  (9) 
-3.7063

>  <r_i_glide_erotb>  (9) 
0.0679052

>  <r_i_glide_esite>  (9) 
0

>  <r_i_glide_emodel>  (9) 
-28.3574

>  <r_i_glide_energy>  (9) 
-27.4408

>  <r_i_glide_einternal>  (9) 
5.05806

>  <r_i_glide_intrahb_reward>  (9) 
-0

>  <i_i_glide_confnum>  (9) 
4

>  <i_i_glide_posenum>  (9) 
1

>  <r_i_glide_eff_state_penalty>  (9) 
0

>  <ligand_id>  (9) 
3

>  <original_smiles>  (9) 
C=C1C(OC)C23OC45C(O)C6C(C)(C)CCCC6(C)C46C(OC(C)=O)CC5C1(C)CCC2C6(C)C=CC(=O)C3C

>  <smiles>  (9) 
[H]OC1([H])C2([H])C(C([H])([H])[H])(C([H])([H])[H])C([H])([H])C([H])([H])C([H])([H])C2(C([H])([H])[H])C23C([H])(OC(=O)C([H])([H])[H])C([H])([H])C4([H])C12OC12C([H])(OC([H])([H])[H])C(=C([H])[H])C4(C([H])([H])[H])C([H])([H])C([H])([H])C1([H])C3(C([H])([H])[H])C([H])=C([H])C(=O)C2([H])C([H])([H])[H]

$$$$
4:0:0
     RDKit          3D

 60 64  0  0  1  0  0  0  0  0999 V2000
    6.0267   -4.6946    0.7415 C   0  0  0  0  0  0  0  0  0  0  0  0
    4.5152   -4.5745    1.0293 C   0  0  2  0  0  0  0  0  0  0  0  0
    4.2463   -4.2719    2.5232 C   0  0  0  0  0  0  0  0  0  0  0  0
    4.2976   -5.5173    3.4277 C   0  0  0  0  0  0  0  0  0  0  0  0
    3.2579   -6.5925    2.9926 C   0  0  1  0  0  0  0  0  0  0  0  0
    3.5784   -7.0019    1.5228 C   0  0  2  0  0  0  0  0  0  0  0  0
    4.8001   -7.9434    1.4724 C   0  0  0  0  0  0  0  0  0  0  0  0
    4.5785   -9.1688    2.3578 C   0  0  0  0  0  0  0  0  0  0  0  0
    4.2801   -8.7892    3.8281 C   0  0  2  0  0  0  0  0  0  0  0  0
    4.0447  -10.0423    4.6770 C   0  0  0  0  0  0  0  0  0  0  0  0
    2.8080  -10.8219    4.2475 C   0  0  0  0  0  0  0  0  0  0  0  0
    2.9264  -12.0072    3.2917 C   0  0  0  0  0  0  0  0  0  0  0  0
    2.6633  -12.2455    4.7592 C   0  0  0  0  0  0  0  0  0  0  0  0
    1.5185  -10.0018    4.2276 N   0  0  0  0  0  0  0  0  0  0  0  0
    0.9585   -9.9273    5.6101 C   0  0  0  0  0  0  0  0  0  0  0  0
    0.4386  -10.6125    3.3882 C   0  0  0  0  0  0  0  0  0  0  0  0
    1.7477   -8.6175    3.6399 C   0  0  0  0  0  0  0  0  0  0  0  0
    3.0699   -7.8289    3.9722 C   0  0  2  0  0  0  0  0  0  0  0  0
    2.9844   -7.2623    5.4163 C   0  0  0  0  0  0  0  0  0  0  0  0
    3.6902   -5.7961    0.5425 C   0  0  1  0  0  0  0  0  0  0  0  0
    2.3208   -5.2224    0.1176 C   0  0  0  0  0  0  0  0  0  0  0  0
    2.6030   -3.8344   -0.4604 C   0  0  0  0  0  0  0  0  0  0  0  0
    3.9246   -3.4477    0.1745 C   0  0  0  0  0  0  0  0  0  0  0  0
    4.4594   -2.3501    0.0099 O   0  0  0  0  0  0  0  0  0  0  0  0
    6.4977   -5.4856    1.3163 H   0  0  0  0  0  0  0  0  0  0  0  0
    6.5550   -3.7731    0.9872 H   0  0  0  0  0  0  0  0  0  0  0  0
    6.2137   -4.8965   -0.3127 H   0  0  0  0  0  0  0  0  0  0  0  0
    4.9620   -3.5332    2.8870 H   0  0  0  0  0  0  0  0  0  0  0  0
    3.2649   -3.8102    2.6476 H   0  0  0  0  0  0  0  0  0  0  0  0
    5.3083   -5.9306    3.4412 H   0  0  0  0  0  0  0  0  0  0  0  0
    4.1109   -5.1630    4.4405 H   0  0  0  0  0  0  0  0  0  0  0  0
    2.2978   -6.0767    2.9844 H   0  0  0  0  0  0  0  0  0  0  0  0
    2.7465   -7.5878    1.1367 H   0  0  0  0  0  0  0  0  0  0  0  0
    4.9809   -8.2686    0.4470 H   0  0  0  0  0  0  0  0  0  0  0  0
    5.7102   -7.4434    1.7972 H   0  0  0  0  0  0  0  0  0  0  0  0
    3.7689   -9.7575    1.9276 H   0  0  0  0  0  0  0  0  0  0  0  0
    5.4627   -9.8079    2.3177 H   0  0  0  0  0  0  0  0  0  0  0  0
    5.1675   -8.2865    4.2167 H   0  0  0  0  0  0  0  0  0  0  0  0
    4.9126  -10.7015    4.6011 H   0  0  0  0  0  0  0  0  0  0  0  0
    3.9684   -9.7918    5.7342 H   0  0  0  0  0  0  0  0  0  0  0  0
    2.1249  -12.3079    2.6251 H   0  0  0  0  0  0  0  0  0  0  0  0
    3.9197  -12.2486    2.9191 H   0  0  0  0  0  0  0  0  0  0  0  0
    3.4807  -12.6653    5.3429 H   0  0  0  0  0  0  0  0  0  0  0  0
    1.6817  -12.6082    5.0460 H   0  0  0  0  0  0  0  0  0  0  0  0
    0.2033   -9.1452    5.7068 H   0  0  0  0  0  0  0  0  0  0  0  0
    1.7165   -9.7857    6.3795 H   0  0  0  0  0  0  0  0  0  0  0  0
    0.4598  -10.8604    5.8814 H   0  0  0  0  0  0  0  0  0  0  0  0
   -0.4858  -10.0291    3.4471 H   0  0  0  0  0  0  0  0  0  0  0  0
    0.1935  -11.6195    3.7204 H   0  0  0  0  0  0  0  0  0  0  0  0
    0.7065  -10.6644    2.3310 H   0  0  0  0  0  0  0  0  0  0  0  0
    1.7311   -8.7475    2.5589 H   0  0  0  0  0  0  0  0  0  0  0  0
    0.8832   -7.9830    3.8485 H   0  0  0  0  0  0  0  0  0  0  0  0
    2.7099   -7.9914    6.1679 H   0  0  0  0  0  0  0  0  0  0  0  0
    2.2489   -6.4575    5.4842 H   0  0  0  0  0  0  0  0  0  0  0  0
    3.9425   -6.8703    5.7561 H   0  0  0  0  0  0  0  0  0  0  0  0
    4.1607   -6.1641   -0.3718 H   0  0  0  0  0  0  0  0  0  0  0  0
    1.8123   -5.8580   -0.6086 H   0  0  0  0  0  0  0  0  0  0  0  0
    1.6663   -5.1275    0.9828 H   0  0  0  0  0  0  0  0  0  0  0  0
    2.7261   -3.8678   -1.5438 H   0  0  0  0  0  0  0  0  0  0  0  0
    1.8227   -3.1056   -0.2290 H   0  0  0  0  0  0  0  0  0  0  0  0
  2  1  1  1
  1 25  1  0
  1 26  1  0
  1 27  1  0
  2 20  1  0
  2 23  1  0
  2  3  1  0
  3  4  1  0
  3 28  1  0
  3 29  1  0
  4  5  1  0
  4 30  1  0
  4 31  1  0
  5 18  1  0
  5  6  1  0
  5 32  1  6
  6  7  1  0
  6 20  1  0
  6 33  1  6
  7  8  1  0
  7 34  1  0
  7 35  1  0
  8  9  1  0
  8 36  1  0
  8 37  1  0
  9 18  1  0
  9 10  1  0
  9 38  1  1
 10 11  1  0
 10 39  1  0
 10 40  1  0
 11 13  1  0
 11 12  1  0
 11 14  1  0
 12 13  1  0
 12 41  1  0
 12 42  1  0
 13 43  1  0
 13 44  1  0
 14 15  1  0
 14 16  1  0
 14 17  1  0
 15 45  1  0
 15 46  1  0
 15 47  1  0
 16 48  1  0
 16 49  1  0
 16 50  1  0
 17 18  1  0
 17 51  1  0
 17 52  1  0
 18 19  1  1
 19 53  1  0
 19 54  1  0
 19 55  1  0
 20 21  1  0
 20 56  1  6
 21 22  1  0
 21 57  1  0
 21 58  1  0
 22 23  1  0
 22 59  1  0
 22 60  1  0
 23 24  2  0
M  CHG  1  14   1
M  END
>  <i_m_ct_stereo_status>  (10) 
1

>  <s_m_source_file>  (10) 
/var/tmp/pbs.5076255.sched01/tmpc_kifbv4/0gx9_4qhc.sdf

>  <i_m_source_file_index>  (10) 
5

>  <i_lp_mmshare_version>  (10) 
48012

>  <i_f3d_flags>  (10) 
0

>  <s_epik_input>  (10) 
W0NIMl0xW0NIMl1DKD1PKVtDQEBdKFtDSDNdKShbQ0gyXVtDSDJdMilbQ0BIXTFbQ0BASF0oW0NIMl1bQ0gyXTMpW0NASF0yW0NAQF0oW0NIM10pKFtDSDJdW04rXTQoW0NIM10pW0NIM10pW0NASF0zW0NIMl1DNDVbQ0gyXVtDSDJdNQ==

>  <s_epik_cmdline>  (10) 
J2VwaWtfcHl0aG9uJywgJy1waHQnLCAnMi4wJywgJy1waCcsICc3LjAnLCAnLXRuJywgJzgnLCAnLW1hJywgJzIwMCcsICctaW1hZScsICc8aW5maWxlLm1hZT4nLCAnLW9tYWUnLCAnPG91dGZpbGUubWFlPic=

>  <r_lp_tautomer_probability>  (10) 
1

>  <r_epik_Ionization_Penalty>  (10) 
3.56523e-14

>  <r_epik_Ionization_Penalty_Charging>  (10) 
0

>  <r_epik_Ionization_Penalty_Neutral>  (10) 
3.56523e-14

>  <r_epik_State_Penalty>  (10) 
-0

>  <r_epik_Charging_Adjusted_Penalty>  (10) 
0

>  <i_epik_Tot_Q>  (10) 
1

>  <i_epik_Tot_abs_Q>  (10) 
1

>  <s_lp_Force_Field>  (10) 
OPLS3e

>  <r_lp_Energy>  (10) 
56.5991

>  <b_lp_Chiralities_Consistent>  (10) 
1

>  <s_lp_Variant>  (10) 
4:0-1

>  <s_i_glide_gridfile>  (10) 
pfpi4k_grid

>  <i_i_glide_lignum>  (10) 
5

>  <i_i_glide_rotatable_bonds>  (10) 
0

>  <r_i_docking_score>  (10) 
-2.87092

>  <r_i_glide_ligand_efficiency>  (10) 
-0.119622

>  <r_i_glide_ligand_efficiency_sa>  (10) 
-0.345048

>  <r_i_glide_ligand_efficiency_ln>  (10) 
-0.687143

>  <r_i_glide_gscore>  (10) 
-2.87092

>  <r_i_glide_lipo>  (10) 
-0.267878

>  <r_i_glide_hbond>  (10) 
0

>  <r_i_glide_metal>  (10) 
-0

>  <r_i_glide_rewards>  (10) 
-1.17807

>  <r_i_glide_evdw>  (10) 
-18.1974

>  <r_i_glide_ecoul>  (10) 
-3.31181

>  <r_i_glide_erotb>  (10) 
0

>  <r_i_glide_esite>  (10) 
-0.0183298

>  <r_i_glide_emodel>  (10) 
-26.9248

>  <r_i_glide_energy>  (10) 
-21.5092

>  <r_i_glide_einternal>  (10) 
0

>  <r_i_glide_intrahb_reward>  (10) 
-0

>  <i_i_glide_confnum>  (10) 
1

>  <i_i_glide_posenum>  (10) 
1

>  <r_i_glide_eff_state_penalty>  (10) 
0

>  <ligand_id>  (10) 
4

>  <original_smiles>  (10) 
CC12CCC3C(CCC4CC5(CC5)[N+](C)(C)CC43C)C1CCC2=O

>  <smiles>  (10) 
[H]C([H])([H])C12C(=O)C([H])([H])C([H])([H])C1([H])C1([H])C([H])([H])C([H])([H])C3([H])C([H])([H])C4(C([H])([H])C4([H])[H])[N+](C([H])([H])[H])(C([H])([H])[H])C([H])([H])C3(C([H])([H])[H])C1([H])C([H])([H])C2([H])[H]

$$$$
4:0:1
     RDKit          3D

 60 64  0  0  1  0  0  0  0  0999 V2000
    5.9922   -2.0095   -2.1388 C   0  0  0  0  0  0  0  0  0  0  0  0
    4.4719   -1.9298   -1.9860 C   0  0  2  0  0  0  0  0  0  0  0  0
    4.1217   -1.3215   -0.6166 C   0  0  0  0  0  0  0  0  0  0  0  0
    4.2557   -2.3234    0.5541 C   0  0  0  0  0  0  0  0  0  0  0  0
    3.3464   -3.5803    0.3198 C   0  0  1  0  0  0  0  0  0  0  0  0
    3.7749   -4.2568   -0.9914 C   0  0  2  0  0  0  0  0  0  0  0  0
    5.1036   -5.0155   -0.8084 C   0  0  0  0  0  0  0  0  0  0  0  0
    4.9589   -6.0933    0.2558 C   0  0  0  0  0  0  0  0  0  0  0  0
    4.5181   -5.4648    1.5978 C   0  0  2  0  0  0  0  0  0  0  0  0
    4.3494   -6.5549    2.6600 C   0  0  0  0  0  0  0  0  0  0  0  0
    3.2240   -7.5385    2.3388 C   0  0  0  0  0  0  0  0  0  0  0  0
    3.5088   -8.8676    1.6418 C   0  0  0  0  0  0  0  0  0  0  0  0
    3.1786   -8.8352    3.1205 C   0  0  0  0  0  0  0  0  0  0  0  0
    1.8659   -6.8750    2.1144 N   0  0  0  0  0  0  0  0  0  0  0  0
    1.2081   -6.5697    3.4190 C   0  0  0  0  0  0  0  0  0  0  0  0
    0.8748   -7.7569    1.4120 C   0  0  0  0  0  0  0  0  0  0  0  0
    2.0131   -5.6247    1.2591 C   0  0  0  0  0  0  0  0  0  0  0  0
    3.2168   -4.6323    1.4936 C   0  0  2  0  0  0  0  0  0  0  0  0
    2.9629   -3.8012    2.7655 C   0  0  0  0  0  0  0  0  0  0  0  0
    3.8281   -3.3118   -2.2224 C   0  0  1  0  0  0  0  0  0  0  0  0
    2.4868   -3.0193   -2.8805 C   0  0  0  0  0  0  0  0  0  0  0  0
    2.7191   -1.8036   -3.7925 C   0  0  0  0  0  0  0  0  0  0  0  0
    3.8436   -1.0484   -3.0956 C   0  0  0  0  0  0  0  0  0  0  0  0
    4.2210    0.0974   -3.3979 O   0  0  0  0  0  0  0  0  0  0  0  0
    6.5328   -2.5470   -1.3568 H   0  0  0  0  0  0  0  0  0  0  0  0
    6.3421   -0.9907   -2.1060 H   0  0  0  0  0  0  0  0  0  0  0  0
    6.2843   -2.4726   -3.0891 H   0  0  0  0  0  0  0  0  0  0  0  0
    4.7416   -0.4386   -0.4079 H   0  0  0  0  0  0  0  0  0  0  0  0
    3.0895   -0.9634   -0.6435 H   0  0  0  0  0  0  0  0  0  0  0  0
    5.3040   -2.6181    0.6785 H   0  0  0  0  0  0  0  0  0  0  0  0
    3.9658   -1.7783    1.4584 H   0  0  0  0  0  0  0  0  0  0  0  0
    2.3607   -3.1643    0.1276 H   0  0  0  0  0  0  0  0  0  0  0  0
    3.0114   -5.0177   -1.1187 H   0  0  0  0  0  0  0  0  0  0  0  0
    5.2909   -5.4358   -1.7755 H   0  0  0  0  0  0  0  0  0  0  0  0
    5.9832   -4.4075   -0.5812 H   0  0  0  0  0  0  0  0  0  0  0  0
    4.2368   -6.8251   -0.1080 H   0  0  0  0  0  0  0  0  0  0  0  0
    5.8919   -6.6371    0.3885 H   0  0  0  0  0  0  0  0  0  0  0  0
    5.3304   -4.8011    1.9091 H   0  0  0  0  0  0  0  0  0  0  0  0
    5.2775   -7.1111    2.7600 H   0  0  0  0  0  0  0  0  0  0  0  0
    4.1673   -6.0987    3.6325 H   0  0  0  0  0  0  0  0  0  0  0  0
    2.7806   -9.3705    1.0106 H   0  0  0  0  0  0  0  0  0  0  0  0
    4.5445   -9.0722    1.3789 H   0  0  0  0  0  0  0  0  0  0  0  0
    3.9939   -9.0358    3.8092 H   0  0  0  0  0  0  0  0  0  0  0  0
    2.2195   -9.2339    3.4373 H   0  0  0  0  0  0  0  0  0  0  0  0
    0.3778   -5.8774    3.2860 H   0  0  0  0  0  0  0  0  0  0  0  0
    1.8989   -6.1926    4.1600 H   0  0  0  0  0  0  0  0  0  0  0  0
    0.7886   -7.4818    3.8346 H   0  0  0  0  0  0  0  0  0  0  0  0
   -0.0836   -7.2641    1.2409 H   0  0  0  0  0  0  0  0  0  0  0  0
    0.6827   -8.6991    1.9210 H   0  0  0  0  0  0  0  0  0  0  0  0
    1.2624   -8.0252    0.4561 H   0  0  0  0  0  0  0  0  0  0  0  0
    2.0322   -6.0319    0.2558 H   0  0  0  0  0  0  0  0  0  0  0  0
    1.0866   -5.0726    1.3028 H   0  0  0  0  0  0  0  0  0  0  0  0
    2.7090   -4.3956    3.6315 H   0  0  0  0  0  0  0  0  0  0  0  0
    2.1480   -3.0875    2.6096 H   0  0  0  0  0  0  0  0  0  0  0  0
    3.8560   -3.2410    3.0533 H   0  0  0  0  0  0  0  0  0  0  0  0
    4.4174   -3.7900   -3.0026 H   0  0  0  0  0  0  0  0  0  0  0  0
    2.1264   -3.8535   -3.4800 H   0  0  0  0  0  0  0  0  0  0  0  0
    1.7460   -2.7706   -2.1181 H   0  0  0  0  0  0  0  0  0  0  0  0
    3.0256   -2.0580   -4.8061 H   0  0  0  0  0  0  0  0  0  0  0  0
    1.8768   -1.1524   -3.9005 H   0  0  0  0  0  0  0  0  0  0  0  0
  2  1  1  6
  1 25  1  0
  1 26  1  0
  1 27  1  0
  2 20  1  0
  2 23  1  0
  2  3  1  0
  3  4  1  0
  3 28  1  0
  3 29  1  0
  4  5  1  0
  4 30  1  0
  4 31  1  0
  5 18  1  0
  5  6  1  0
  5 32  1  6
  6  7  1  0
  6 20  1  0
  6 33  1  6
  7  8  1  0
  7 34  1  0
  7 35  1  0
  8  9  1  0
  8 36  1  0
  8 37  1  0
  9 18  1  0
  9 10  1  0
  9 38  1  1
 10 11  1  0
 10 39  1  0
 10 40  1  0
 11 13  1  0
 11 12  1  0
 11 14  1  0
 12 13  1  0
 12 41  1  0
 12 42  1  0
 13 43  1  0
 13 44  1  0
 14 15  1  0
 14 16  1  0
 14 17  1  0
 15 45  1  0
 15 46  1  0
 15 47  1  0
 16 48  1  0
 16 49  1  0
 16 50  1  0
 17 18  1  0
 17 51  1  0
 17 52  1  0
 18 19  1  1
 19 53  1  0
 19 54  1  0
 19 55  1  0
 20 21  1  0
 20 56  1  6
 21 22  1  0
 21 57  1  0
 21 58  1  0
 22 23  1  0
 22 59  1  0
 22 60  1  0
 23 24  2  0
M  CHG  1  14   1
M  END
>  <i_m_ct_stereo_status>  (11) 
1

>  <s_m_source_file>  (11) 
/var/tmp/pbs.5076255.sched01/tmpc_kifbv4/0gx9_4qhc.sdf

>  <i_m_source_file_index>  (11) 
5

>  <i_lp_mmshare_version>  (11) 
48012

>  <i_f3d_flags>  (11) 
0

>  <s_epik_input>  (11) 
W0NIMl0xW0NIMl1DKD1PKVtDQEBdKFtDSDNdKShbQ0gyXVtDSDJdMilbQ0BIXTFbQ0BASF0oW0NIMl1bQ0gyXTMpW0NASF0yW0NAQF0oW0NIM10pKFtDSDJdW04rXTQoW0NIM10pW0NIM10pW0NASF0zW0NIMl1DNDVbQ0gyXVtDSDJdNQ==

>  <s_epik_cmdline>  (11) 
J2VwaWtfcHl0aG9uJywgJy1waHQnLCAnMi4wJywgJy1waCcsICc3LjAnLCAnLXRuJywgJzgnLCAnLW1hJywgJzIwMCcsICctaW1hZScsICc8aW5maWxlLm1hZT4nLCAnLW9tYWUnLCAnPG91dGZpbGUubWFlPic=

>  <r_lp_tautomer_probability>  (11) 
1

>  <r_epik_Ionization_Penalty>  (11) 
3.56523e-14

>  <r_epik_Ionization_Penalty_Charging>  (11) 
0

>  <r_epik_Ionization_Penalty_Neutral>  (11) 
3.56523e-14

>  <r_epik_State_Penalty>  (11) 
-0

>  <r_epik_Charging_Adjusted_Penalty>  (11) 
0

>  <i_epik_Tot_Q>  (11) 
1

>  <i_epik_Tot_abs_Q>  (11) 
1

>  <s_lp_Force_Field>  (11) 
OPLS3e

>  <r_lp_Energy>  (11) 
56.5991

>  <b_lp_Chiralities_Consistent>  (11) 
1

>  <s_lp_Variant>  (11) 
4:0-1

>  <s_i_glide_gridfile>  (11) 
pfpi4k_grid

>  <i_i_glide_lignum>  (11) 
5

>  <i_i_glide_rotatable_bonds>  (11) 
0

>  <r_i_docking_score>  (11) 
-2.2021

>  <r_i_glide_ligand_efficiency>  (11) 
-0.0917541

>  <r_i_glide_ligand_efficiency_sa>  (11) 
-0.264665

>  <r_i_glide_ligand_efficiency_ln>  (11) 
-0.527063

>  <r_i_glide_gscore>  (11) 
-2.2021

>  <r_i_glide_lipo>  (11) 
-0.383737

>  <r_i_glide_hbond>  (11) 
0

>  <r_i_glide_metal>  (11) 
-0

>  <r_i_glide_rewards>  (11) 
-1.25707

>  <r_i_glide_evdw>  (11) 
-7.14197

>  <r_i_glide_ecoul>  (11) 
-1.21426

>  <r_i_glide_erotb>  (11) 
0

>  <r_i_glide_esite>  (11) 
-0.0220534

>  <r_i_glide_emodel>  (11) 
-11.5576

>  <r_i_glide_energy>  (11) 
-8.35623

>  <r_i_glide_einternal>  (11) 
0

>  <r_i_glide_intrahb_reward>  (11) 
-0

>  <i_i_glide_confnum>  (11) 
2

>  <i_i_glide_posenum>  (11) 
4

>  <r_i_glide_eff_state_penalty>  (11) 
0

>  <ligand_id>  (11) 
4

>  <original_smiles>  (11) 
CC12CCC3C(CCC4CC5(CC5)[N+](C)(C)CC43C)C1CCC2=O

>  <smiles>  (11) 
[H]C([H])([H])C12C(=O)C([H])([H])C([H])([H])C1([H])C1([H])C([H])([H])C([H])([H])C3([H])C([H])([H])C4(C([H])([H])C4([H])[H])[N+](C([H])([H])[H])(C([H])([H])[H])C([H])([H])C3(C([H])([H])[H])C1([H])C([H])([H])C2([H])[H]

$$$$
5:0:0
     RDKit          3D

 81 85  0  0  1  0  0  0  0  0999 V2000
   -1.7634   -7.8976    3.5426 C   0  0  0  0  0  0  0  0  0  0  0  0
   -0.3489   -7.9426    4.1522 C   0  0  2  0  0  0  0  0  0  0  0  0
    0.0415   -6.5476    4.6439 C   0  0  0  0  0  0  0  0  0  0  0  0
    1.3945   -6.5846    5.3444 C   0  0  0  0  0  0  0  0  0  0  0  0
    2.5112   -7.0571    4.4046 C   0  0  0  0  0  0  0  0  0  0  0  0
    3.6609   -6.3523    4.1759 C   0  0  0  0  0  0  0  0  0  0  0  0
    3.9210   -4.9525    4.7111 C   0  0  0  0  0  0  0  0  0  0  0  0
    4.1296   -4.0013    3.5429 C   0  0  0  0  0  0  0  0  0  0  0  0
    5.3480   -4.3535    2.6303 C   0  0  2  0  0  0  0  0  0  0  0  0
    5.5519   -3.2431    1.4953 C   0  0  1  0  0  0  0  0  0  0  0  0
    5.5207   -1.8701    2.2363 C   0  0  0  0  0  0  0  0  0  0  0  0
    6.9230   -3.3111    0.7485 C   0  0  0  0  0  0  0  0  0  0  0  0
    7.1004   -2.2814   -0.3856 C   0  0  0  0  0  0  0  0  0  0  0  0
    5.9711   -2.3467   -1.4317 C   0  0  1  0  0  0  0  0  0  0  0  0
    6.2154   -3.4420   -2.2931 O   0  0  0  0  0  0  0  0  0  0  0  0
    4.5444   -2.3703   -0.8086 C   0  0  0  0  0  0  0  0  0  0  0  0
    4.2064   -0.9264   -0.3757 C   0  0  0  0  0  0  0  0  0  0  0  0
    3.4887   -2.6875   -1.9009 C   0  0  0  0  0  0  0  0  0  0  0  0
    4.4252   -3.3761    0.4079 C   0  0  1  0  0  0  0  0  0  0  0  0
    4.3239   -4.8558   -0.0508 C   0  0  0  0  0  0  0  0  0  0  0  0
    4.1634   -5.9030    1.0635 C   0  0  0  0  0  0  0  0  0  0  0  0
    5.2534   -5.8697    2.1654 C   0  0  1  0  0  0  0  0  0  0  0  0
    6.6158   -6.3427    1.5695 C   0  0  0  0  0  0  0  0  0  0  0  0
    4.8778   -6.8656    3.3708 C   0  0  1  0  0  0  0  0  0  0  0  0
    6.0822   -6.9699    4.3630 C   0  0  0  0  0  0  0  0  0  0  0  0
    4.6307   -8.3406    2.9214 C   0  0  0  0  0  0  0  0  0  0  0  0
    3.1807   -8.7063    2.6140 C   0  0  0  0  0  0  0  0  0  0  0  0
    2.2023   -8.4348    3.7777 C   0  0  1  0  0  0  0  0  0  0  0  0
    2.3861   -9.5327    4.8575 C   0  0  0  0  0  0  0  0  0  0  0  0
    0.7414   -8.4705    3.1824 C   0  0  1  0  0  0  0  0  0  0  0  0
    0.3446   -9.8489    2.6090 C   0  0  0  0  0  0  0  0  0  0  0  0
   -1.7874   -7.3517    2.5996 H   0  0  0  0  0  0  0  0  0  0  0  0
   -2.4561   -7.4068    4.2237 H   0  0  0  0  0  0  0  0  0  0  0  0
   -2.1561   -8.9005    3.3709 H   0  0  0  0  0  0  0  0  0  0  0  0
   -0.4038   -8.6099    5.0141 H   0  0  0  0  0  0  0  0  0  0  0  0
    0.0850   -5.8499    3.8081 H   0  0  0  0  0  0  0  0  0  0  0  0
   -0.7130   -6.1684    5.3337 H   0  0  0  0  0  0  0  0  0  0  0  0
    1.5523   -5.6202    5.8096 H   0  0  0  0  0  0  0  0  0  0  0  0
    1.3420   -7.2825    6.1817 H   0  0  0  0  0  0  0  0  0  0  0  0
    3.1255   -4.5386    5.3134 H   0  0  0  0  0  0  0  0  0  0  0  0
    4.7898   -4.9461    5.3705 H   0  0  0  0  0  0  0  0  0  0  0  0
    3.2079   -3.9712    2.9574 H   0  0  0  0  0  0  0  0  0  0  0  0
    4.2217   -3.0199    4.0008 H   0  0  0  0  0  0  0  0  0  0  0  0
    6.2156   -4.2767    3.2785 H   0  0  0  0  0  0  0  0  0  0  0  0
    6.0646   -1.0687    1.7508 H   0  0  0  0  0  0  0  0  0  0  0  0
    6.0051   -1.9451    3.2111 H   0  0  0  0  0  0  0  0  0  0  0  0
    4.5048   -1.5104    2.4006 H   0  0  0  0  0  0  0  0  0  0  0  0
    7.7489   -3.2275    1.4514 H   0  0  0  0  0  0  0  0  0  0  0  0
    7.0581   -4.2625    0.2563 H   0  0  0  0  0  0  0  0  0  0  0  0
    7.1767   -1.2738    0.0152 H   0  0  0  0  0  0  0  0  0  0  0  0
    8.0610   -2.4473   -0.8749 H   0  0  0  0  0  0  0  0  0  0  0  0
    6.0350   -1.4660   -2.0688 H   0  0  0  0  0  0  0  0  0  0  0  0
    7.0624   -3.3393   -2.7019 H   0  0  0  0  0  0  0  0  0  0  0  0
    3.3635   -0.8924    0.3191 H   0  0  0  0  0  0  0  0  0  0  0  0
    3.9343   -0.3267   -1.2444 H   0  0  0  0  0  0  0  0  0  0  0  0
    5.0414   -0.3903    0.0657 H   0  0  0  0  0  0  0  0  0  0  0  0
    2.4821   -2.7220   -1.4765 H   0  0  0  0  0  0  0  0  0  0  0  0
    3.6717   -3.6384   -2.4016 H   0  0  0  0  0  0  0  0  0  0  0  0
    3.4823   -1.9304   -2.6880 H   0  0  0  0  0  0  0  0  0  0  0  0
    3.4716   -3.1558    0.8850 H   0  0  0  0  0  0  0  0  0  0  0  0
    3.4505   -4.9792   -0.6880 H   0  0  0  0  0  0  0  0  0  0  0  0
    5.1736   -5.1219   -0.6736 H   0  0  0  0  0  0  0  0  0  0  0  0
    3.1802   -5.7795    1.5134 H   0  0  0  0  0  0  0  0  0  0  0  0
    4.1638   -6.8804    0.5835 H   0  0  0  0  0  0  0  0  0  0  0  0
    6.8711   -7.3769    1.7776 H   0  0  0  0  0  0  0  0  0  0  0  0
    7.4502   -5.7636    1.9682 H   0  0  0  0  0  0  0  0  0  0  0  0
    6.6407   -6.2853    0.4850 H   0  0  0  0  0  0  0  0  0  0  0  0
    6.8945   -7.5854    3.9724 H   0  0  0  0  0  0  0  0  0  0  0  0
    5.7747   -7.4382    5.3003 H   0  0  0  0  0  0  0  0  0  0  0  0
    6.5256   -6.0092    4.6158 H   0  0  0  0  0  0  0  0  0  0  0  0
    5.2261   -8.6150    2.0541 H   0  0  0  0  0  0  0  0  0  0  0  0
    4.9646   -9.0237    3.7043 H   0  0  0  0  0  0  0  0  0  0  0  0
    2.8488   -8.1737    1.7269 H   0  0  0  0  0  0  0  0  0  0  0  0
    3.1597   -9.7610    2.3394 H   0  0  0  0  0  0  0  0  0  0  0  0
    2.3329  -10.5364    4.4321 H   0  0  0  0  0  0  0  0  0  0  0  0
    1.6299   -9.4833    5.6395 H   0  0  0  0  0  0  0  0  0  0  0  0
    3.3557   -9.4488    5.3493 H   0  0  0  0  0  0  0  0  0  0  0  0
    0.7370   -7.7801    2.3385 H   0  0  0  0  0  0  0  0  0  0  0  0
    0.2089  -10.6011    3.3857 H   0  0  0  0  0  0  0  0  0  0  0  0
    1.0704  -10.2254    1.8916 H   0  0  0  0  0  0  0  0  0  0  0  0
   -0.5933   -9.7813    2.0624 H   0  0  0  0  0  0  0  0  0  0  0  0
  1  2  1  0
  1 32  1  0
  1 33  1  0
  1 34  1  0
  2 30  1  0
  2  3  1  0
  2 35  1  1
  3  4  1  0
  3 36  1  0
  3 37  1  0
  4  5  1  0
  4 38  1  0
  4 39  1  0
  5 28  1  0
  5  6  2  0
  6 24  1  0
  6  7  1  0
  7  8  1  0
  7 40  1  0
  7 41  1  0
  8  9  1  0
  8 42  1  0
  8 43  1  0
  9 22  1  0
  9 10  1  0
  9 44  1  1
 10 19  1  0
 10 11  1  1
 10 12  1  0
 11 45  1  0
 11 46  1  0
 11 47  1  0
 12 13  1  0
 12 48  1  0
 12 49  1  0
 13 14  1  0
 13 50  1  0
 13 51  1  0
 14 15  1  0
 14 16  1  0
 14 52  1  6
 15 53  1  0
 16 17  1  0
 16 18  1  0
 16 19  1  0
 17 54  1  0
 17 55  1  0
 17 56  1  0
 18 57  1  0
 18 58  1  0
 18 59  1  0
 19 20  1  0
 19 60  1  1
 20 21  1  0
 20 61  1  0
 20 62  1  0
 21 22  1  0
 21 63  1  0
 21 64  1  0
 22 23  1  6
 22 24  1  0
 23 65  1  0
 23 66  1  0
 23 67  1  0
 24 25  1  1
 24 26  1  0
 25 68  1  0
 25 69  1  0
 25 70  1  0
 26 27  1  0
 26 71  1  0
 26 72  1  0
 27 28  1  0
 27 73  1  0
 27 74  1  0
 28 29  1  1
 28 30  1  0
 29 75  1  0
 29 76  1  0
 29 77  1  0
 30 31  1  0
 30 78  1  6
 31 79  1  0
 31 80  1  0
 31 81  1  0
M  END
>  <i_m_ct_stereo_status>  (12) 
1

>  <s_m_source_file>  (12) 
/var/tmp/pbs.5076255.sched01/tmpc_kifbv4/0gx9_4qhc.sdf

>  <i_m_source_file_index>  (12) 
6

>  <i_lp_mmshare_version>  (12) 
48012

>  <i_f3d_flags>  (12) 
0

>  <s_epik_input>  (12) 
W0NIMl0xW0NIMl1bQ0BASF0oW0NIM10pW0NASF0oW0NIM10pW0NAQF0oW0NIM10pKFtDSDJdW0NIMl0yKUMxPUMoW0NIMl1bQ0gyXTMpW0NAXTIoW0NIM10pW0NAXShbQ0gzXSkoW0NASF0zW0NAQF00NVtDSDNdKVtDSDJdW0NIMl1bQ0BASF01QyhbQ0gzXSkoW0NIM10pW0NASF0oW09IXSlbQ0gyXVtDSDJdNA==

>  <s_epik_cmdline>  (12) 
J2VwaWtfcHl0aG9uJywgJy1waHQnLCAnMi4wJywgJy1waCcsICc3LjAnLCAnLXRuJywgJzgnLCAnLW1hJywgJzIwMCcsICctaW1hZScsICc8aW5maWxlLm1hZT4nLCAnLW9tYWUnLCAnPG91dGZpbGUubWFlPic=

>  <r_lp_tautomer_probability>  (12) 
1

>  <r_epik_Ionization_Penalty>  (12) 
3.03134e-06

>  <r_epik_Ionization_Penalty_Charging>  (12) 
0

>  <r_epik_Ionization_Penalty_Neutral>  (12) 
3.03134e-06

>  <r_epik_State_Penalty>  (12) 
-0

>  <r_epik_Charging_Adjusted_Penalty>  (12) 
0

>  <i_epik_Tot_Q>  (12) 
0

>  <i_epik_Tot_abs_Q>  (12) 
0

>  <s_lp_Force_Field>  (12) 
OPLS3e

>  <r_lp_Energy>  (12) 
92.7632

>  <b_lp_Chiralities_Consistent>  (12) 
1

>  <s_lp_Variant>  (12) 
5:0-1

>  <s_i_glide_gridfile>  (12) 
pfpi4k_grid

>  <i_i_glide_lignum>  (12) 
6

>  <i_i_glide_rotatable_bonds>  (12) 
1

>  <r_i_docking_score>  (12) 
-2.8259

>  <r_i_glide_ligand_efficiency>  (12) 
-0.091158

>  <r_i_glide_ligand_efficiency_sa>  (12) 
-0.286362

>  <r_i_glide_ligand_efficiency_ln>  (12) 
-0.637326

>  <r_i_glide_gscore>  (12) 
-2.8259

>  <r_i_glide_lipo>  (12) 
-0.497266

>  <r_i_glide_hbond>  (12) 
-0.0959441

>  <r_i_glide_metal>  (12) 
-0

>  <r_i_glide_rewards>  (12) 
-0.499654

>  <r_i_glide_evdw>  (12) 
-32.7429

>  <r_i_glide_ecoul>  (12) 
-0.639249

>  <r_i_glide_erotb>  (12) 
0

>  <r_i_glide_esite>  (12) 
0

>  <r_i_glide_emodel>  (12) 
-38.6833

>  <r_i_glide_energy>  (12) 
-33.3821

>  <r_i_glide_einternal>  (12) 
0.33263

>  <r_i_glide_intrahb_reward>  (12) 
-0

>  <i_i_glide_confnum>  (12) 
1

>  <i_i_glide_posenum>  (12) 
1

>  <r_i_glide_eff_state_penalty>  (12) 
0

>  <ligand_id>  (12) 
5

>  <original_smiles>  (12) 
CC1CCC2=C3CCC4C5(C)CCC(O)C(C)(C)C5CCC4(C)C3(C)CCC2(C)C1C

>  <smiles>  (12) 
[H]OC1([H])C([H])([H])C([H])([H])C2(C([H])([H])[H])C([H])(C([H])([H])C([H])([H])C3(C([H])([H])[H])C2([H])C([H])([H])C([H])([H])C2=C4C([H])([H])C([H])([H])C([H])(C([H])([H])[H])C([H])(C([H])([H])[H])C4(C([H])([H])[H])C([H])([H])C([H])([H])C23C([H])([H])[H])C1(C([H])([H])[H])C([H])([H])[H]

$$$$
5:0:1
     RDKit          3D

 81 85  0  0  1  0  0  0  0  0999 V2000
   -1.8482   -7.9340    3.4819 C   0  0  0  0  0  0  0  0  0  0  0  0
   -0.4420   -7.9871    4.1051 C   0  0  2  0  0  0  0  0  0  0  0  0
   -0.0546   -6.5957    4.6108 C   0  0  0  0  0  0  0  0  0  0  0  0
    1.2937   -6.6387    5.3181 C   0  0  0  0  0  0  0  0  0  0  0  0
    2.4146   -7.1063    4.3839 C   0  0  0  0  0  0  0  0  0  0  0  0
    3.5676   -6.4016    4.1638 C   0  0  0  0  0  0  0  0  0  0  0  0
    3.8249   -5.0046    4.7129 C   0  0  0  0  0  0  0  0  0  0  0  0
    4.0419   -4.0450    3.5548 C   0  0  0  0  0  0  0  0  0  0  0  0
    5.2662   -4.3897    2.6465 C   0  0  2  0  0  0  0  0  0  0  0  0
    5.4736   -3.2699    1.5217 C   0  0  1  0  0  0  0  0  0  0  0  0
    5.4394   -1.9028    2.2758 C   0  0  0  0  0  0  0  0  0  0  0  0
    6.8505   -3.3314    0.7831 C   0  0  0  0  0  0  0  0  0  0  0  0
    7.0306   -2.2952   -0.3459 C   0  0  0  0  0  0  0  0  0  0  0  0
    5.9044   -2.3478   -1.3960 C   0  0  1  0  0  0  0  0  0  0  0  0
    6.1386   -3.4363   -2.2584 O   0  0  0  0  0  0  0  0  0  0  0  0
    4.4763   -2.3786   -0.7805 C   0  0  0  0  0  0  0  0  0  0  0  0
    4.1364   -0.9385   -0.3369 C   0  0  0  0  0  0  0  0  0  0  0  0
    3.4248   -2.6875   -1.8831 C   0  0  0  0  0  0  0  0  0  0  0  0
    4.3532   -3.3948    0.4274 C   0  0  1  0  0  0  0  0  0  0  0  0
    4.2506   -4.8721   -0.0439 C   0  0  0  0  0  0  0  0  0  0  0  0
    4.0833   -5.9249    1.0643 C   0  0  0  0  0  0  0  0  0  0  0  0
    5.1691   -5.9018    2.1689 C   0  0  1  0  0  0  0  0  0  0  0  0
    6.5335   -6.3717    1.5726 C   0  0  0  0  0  0  0  0  0  0  0  0
    4.7874   -6.9075    3.3639 C   0  0  1  0  0  0  0  0  0  0  0  0
    5.9865   -7.0227    4.3600 C   0  0  0  0  0  0  0  0  0  0  0  0
    4.5392   -8.3802    2.8958 C   0  0  0  0  0  0  0  0  0  0  0  0
    3.0915   -8.7419    2.5808 C   0  0  0  0  0  0  0  0  0  0  0  0
    2.1076   -8.4794    3.7407 C   0  0  1  0  0  0  0  0  0  0  0  0
    2.2831   -9.5861    4.8134 C   0  0  0  0  0  0  0  0  0  0  0  0
    0.6512   -8.5082    3.1377 C   0  0  1  0  0  0  0  0  0  0  0  0
    0.2543   -9.8804    2.5471 C   0  0  0  0  0  0  0  0  0  0  0  0
   -1.8648   -7.3825    2.5421 H   0  0  0  0  0  0  0  0  0  0  0  0
   -2.5537   -7.4474    4.1535 H   0  0  0  0  0  0  0  0  0  0  0  0
   -2.2377   -8.9371    3.3013 H   0  0  0  0  0  0  0  0  0  0  0  0
   -0.5051   -8.6601    4.9607 H   0  0  0  0  0  0  0  0  0  0  0  0
   -0.0077   -5.8895    3.7779 H   0  0  0  0  0  0  0  0  0  0  0  0
   -0.8148   -6.2209    5.2983 H   0  0  0  0  0  0  0  0  0  0  0  0
    1.4481   -5.6778    5.7907 H   0  0  0  0  0  0  0  0  0  0  0  0
    1.2338   -7.3392    6.1503 H   0  0  0  0  0  0  0  0  0  0  0  0
    3.0269   -4.5954    5.3159 H   0  0  0  0  0  0  0  0  0  0  0  0
    4.6881   -5.0043    5.3757 H   0  0  0  0  0  0  0  0  0  0  0  0
    3.1249   -4.0097    2.9649 H   0  0  0  0  0  0  0  0  0  0  0  0
    4.1272   -3.0671    4.0205 H   0  0  0  0  0  0  0  0  0  0  0  0
    6.1380   -4.3180    3.2934 H   0  0  0  0  0  0  0  0  0  0  0  0
    5.9877   -1.1004    1.7969 H   0  0  0  0  0  0  0  0  0  0  0  0
    5.9159   -1.9854    3.2529 H   0  0  0  0  0  0  0  0  0  0  0  0
    4.4231   -1.5421    2.4351 H   0  0  0  0  0  0  0  0  0  0  0  0
    7.6681   -3.2531    1.4966 H   0  0  0  0  0  0  0  0  0  0  0  0
    6.9893   -4.2814    0.2873 H   0  0  0  0  0  0  0  0  0  0  0  0
    7.1082   -1.2904    0.0603 H   0  0  0  0  0  0  0  0  0  0  0  0
    7.9871   -2.4628   -0.8363 H   0  0  0  0  0  0  0  0  0  0  0  0
    5.9827   -1.4646   -2.0312 H   0  0  0  0  0  0  0  0  0  0  0  0
    5.8769   -4.2271   -1.8124 H   0  0  0  0  0  0  0  0  0  0  0  0
    3.2947   -0.9029    0.3585 H   0  0  0  0  0  0  0  0  0  0  0  0
    3.8692   -0.3330   -1.2032 H   0  0  0  0  0  0  0  0  0  0  0  0
    4.9749   -0.4063    0.1065 H   0  0  0  0  0  0  0  0  0  0  0  0
    2.4146   -2.7253   -1.4685 H   0  0  0  0  0  0  0  0  0  0  0  0
    3.6068   -3.6343   -2.3923 H   0  0  0  0  0  0  0  0  0  0  0  0
    3.4232   -1.9255   -2.6645 H   0  0  0  0  0  0  0  0  0  0  0  0
    3.3954   -3.1766    0.9025 H   0  0  0  0  0  0  0  0  0  0  0  0
    3.3801   -4.9888   -0.6834 H   0  0  0  0  0  0  0  0  0  0  0  0
    5.1020   -5.1457   -0.6575 H   0  0  0  0  0  0  0  0  0  0  0  0
    3.0947   -5.8016    1.5080 H   0  0  0  0  0  0  0  0  0  0  0  0
    4.0804   -6.8997    0.5752 H   0  0  0  0  0  0  0  0  0  0  0  0
    6.7885   -7.4094    1.7762 H   0  0  0  0  0  0  0  0  0  0  0  0
    7.3666   -5.7955    1.9773 H   0  0  0  0  0  0  0  0  0  0  0  0
    6.5650   -6.3081    0.4876 H   0  0  0  0  0  0  0  0  0  0  0  0
    6.7983   -7.6349    3.9675 H   0  0  0  0  0  0  0  0  0  0  0  0
    5.6728   -7.4976    5.2911 H   0  0  0  0  0  0  0  0  0  0  0  0
    6.4294   -6.0635    4.6233 H   0  0  0  0  0  0  0  0  0  0  0  0
    5.1392   -8.6452    2.0308 H   0  0  0  0  0  0  0  0  0  0  0  0
    4.8712   -9.0696    3.6743 H   0  0  0  0  0  0  0  0  0  0  0  0
    2.7641   -8.2033    1.6951 H   0  0  0  0  0  0  0  0  0  0  0  0
    3.0702   -9.7939    2.2974 H   0  0  0  0  0  0  0  0  0  0  0  0
    2.2287  -10.5862    4.3820 H   0  0  0  0  0  0  0  0  0  0  0  0
    1.5253   -9.5378    5.5927 H   0  0  0  0  0  0  0  0  0  0  0  0
    3.2507   -9.5082    5.3090 H   0  0  0  0  0  0  0  0  0  0  0  0
    0.6499   -7.8098    2.2998 H   0  0  0  0  0  0  0  0  0  0  0  0
    0.1076  -10.6406    3.3147 H   0  0  0  0  0  0  0  0  0  0  0  0
    0.9885  -10.2536    1.8348 H   0  0  0  0  0  0  0  0  0  0  0  0
   -0.6758   -9.8063    1.9893 H   0  0  0  0  0  0  0  0  0  0  0  0
  1  2  1  0
  1 32  1  0
  1 33  1  0
  1 34  1  0
  2 30  1  0
  2  3  1  0
  2 35  1  1
  3  4  1  0
  3 36  1  0
  3 37  1  0
  4  5  1  0
  4 38  1  0
  4 39  1  0
  5 28  1  0
  5  6  2  0
  6 24  1  0
  6  7  1  0
  7  8  1  0
  7 40  1  0
  7 41  1  0
  8  9  1  0
  8 42  1  0
  8 43  1  0
  9 22  1  0
  9 10  1  0
  9 44  1  1
 10 19  1  0
 10 11  1  1
 10 12  1  0
 11 45  1  0
 11 46  1  0
 11 47  1  0
 12 13  1  0
 12 48  1  0
 12 49  1  0
 13 14  1  0
 13 50  1  0
 13 51  1  0
 14 15  1  0
 14 16  1  0
 14 52  1  6
 15 53  1  0
 16 17  1  0
 16 18  1  0
 16 19  1  0
 17 54  1  0
 17 55  1  0
 17 56  1  0
 18 57  1  0
 18 58  1  0
 18 59  1  0
 19 20  1  0
 19 60  1  1
 20 21  1  0
 20 61  1  0
 20 62  1  0
 21 22  1  0
 21 63  1  0
 21 64  1  0
 22 23  1  6
 22 24  1  0
 23 65  1  0
 23 66  1  0
 23 67  1  0
 24 25  1  1
 24 26  1  0
 25 68  1  0
 25 69  1  0
 25 70  1  0
 26 27  1  0
 26 71  1  0
 26 72  1  0
 27 28  1  0
 27 73  1  0
 27 74  1  0
 28 29  1  1
 28 30  1  0
 29 75  1  0
 29 76  1  0
 29 77  1  0
 30 31  1  0
 30 78  1  6
 31 79  1  0
 31 80  1  0
 31 81  1  0
M  END
>  <i_m_ct_stereo_status>  (13) 
1

>  <s_m_source_file>  (13) 
/var/tmp/pbs.5076255.sched01/tmpc_kifbv4/0gx9_4qhc.sdf

>  <i_m_source_file_index>  (13) 
6

>  <i_lp_mmshare_version>  (13) 
48012

>  <i_f3d_flags>  (13) 
0

>  <s_epik_input>  (13) 
W0NIMl0xW0NIMl1bQ0BASF0oW0NIM10pW0NASF0oW0NIM10pW0NAQF0oW0NIM10pKFtDSDJdW0NIMl0yKUMxPUMoW0NIMl1bQ0gyXTMpW0NAXTIoW0NIM10pW0NAXShbQ0gzXSkoW0NASF0zW0NAQF00NVtDSDNdKVtDSDJdW0NIMl1bQ0BASF01QyhbQ0gzXSkoW0NIM10pW0NASF0oW09IXSlbQ0gyXVtDSDJdNA==

>  <s_epik_cmdline>  (13) 
J2VwaWtfcHl0aG9uJywgJy1waHQnLCAnMi4wJywgJy1waCcsICc3LjAnLCAnLXRuJywgJzgnLCAnLW1hJywgJzIwMCcsICctaW1hZScsICc8aW5maWxlLm1hZT4nLCAnLW9tYWUnLCAnPG91dGZpbGUubWFlPic=

>  <r_lp_tautomer_probability>  (13) 
1

>  <r_epik_Ionization_Penalty>  (13) 
3.03134e-06

>  <r_epik_Ionization_Penalty_Charging>  (13) 
0

>  <r_epik_Ionization_Penalty_Neutral>  (13) 
3.03134e-06

>  <r_epik_State_Penalty>  (13) 
-0

>  <r_epik_Charging_Adjusted_Penalty>  (13) 
0

>  <i_epik_Tot_Q>  (13) 
0

>  <i_epik_Tot_abs_Q>  (13) 
0

>  <s_lp_Force_Field>  (13) 
OPLS3e

>  <r_lp_Energy>  (13) 
92.7632

>  <b_lp_Chiralities_Consistent>  (13) 
1

>  <s_lp_Variant>  (13) 
5:0-1

>  <s_i_glide_gridfile>  (13) 
pfpi4k_grid

>  <i_i_glide_lignum>  (13) 
6

>  <i_i_glide_rotatable_bonds>  (13) 
1

>  <r_i_docking_score>  (13) 
-2.63238

>  <r_i_glide_ligand_efficiency>  (13) 
-0.0849156

>  <r_i_glide_ligand_efficiency_sa>  (13) 
-0.266752

>  <r_i_glide_ligand_efficiency_ln>  (13) 
-0.593683

>  <r_i_glide_gscore>  (13) 
-2.63238

>  <r_i_glide_lipo>  (13) 
-0.491738

>  <r_i_glide_hbond>  (13) 
0

>  <r_i_glide_metal>  (13) 
-0

>  <r_i_glide_rewards>  (13) 
-0.499654

>  <r_i_glide_evdw>  (13) 
-32.8455

>  <r_i_glide_ecoul>  (13) 
0.00856426

>  <r_i_glide_erotb>  (13) 
0

>  <r_i_glide_esite>  (13) 
0

>  <r_i_glide_emodel>  (13) 
-37.76

>  <r_i_glide_energy>  (13) 
-32.8369

>  <r_i_glide_einternal>  (13) 
0.20324

>  <r_i_glide_intrahb_reward>  (13) 
-0

>  <i_i_glide_confnum>  (13) 
2

>  <i_i_glide_posenum>  (13) 
37

>  <r_i_glide_eff_state_penalty>  (13) 
0

>  <ligand_id>  (13) 
5

>  <original_smiles>  (13) 
CC1CCC2=C3CCC4C5(C)CCC(O)C(C)(C)C5CCC4(C)C3(C)CCC2(C)C1C

>  <smiles>  (13) 
[H]OC1([H])C([H])([H])C([H])([H])C2(C([H])([H])[H])C([H])(C([H])([H])C([H])([H])C3(C([H])([H])[H])C2([H])C([H])([H])C([H])([H])C2=C4C([H])([H])C([H])([H])C([H])(C([H])([H])[H])C([H])(C([H])([H])[H])C4(C([H])([H])[H])C([H])([H])C([H])([H])C23C([H])([H])[H])C1(C([H])([H])[H])C([H])([H])[H]

$$$$
5:0:2
     RDKit          3D

 81 85  0  0  1  0  0  0  0  0999 V2000
    3.6163   -1.3045   -1.1865 C   0  0  0  0  0  0  0  0  0  0  0  0
    4.5632   -2.4257   -0.7742 C   0  0  2  0  0  0  0  0  0  0  0  0
    3.9957   -3.7543   -1.2632 C   0  0  0  0  0  0  0  0  0  0  0  0
    4.9980   -4.8553   -0.9751 C   0  0  0  0  0  0  0  0  0  0  0  0
    5.2481   -5.0437    0.5145 C   0  0  0  0  0  0  0  0  0  0  0  0
    5.0997   -6.2337    1.1747 C   0  0  0  0  0  0  0  0  0  0  0  0
    4.5483   -7.5029    0.5533 C   0  0  0  0  0  0  0  0  0  0  0  0
    3.2993   -7.9241    1.3077 C   0  0  0  0  0  0  0  0  0  0  0  0
    3.5150   -8.2484    2.8142 C   0  0  2  0  0  0  0  0  0  0  0  0
    2.1592   -8.7706    3.4820 C   0  0  1  0  0  0  0  0  0  0  0  0
    1.6208   -9.8878    2.5353 C   0  0  0  0  0  0  0  0  0  0  0  0
    2.3399   -9.4488    4.8749 C   0  0  0  0  0  0  0  0  0  0  0  0
    1.0280   -9.8807    5.5632 C   0  0  0  0  0  0  0  0  0  0  0  0
    0.0039   -8.7463    5.6950 C   0  0  1  0  0  0  0  0  0  0  0  0
    0.4045   -7.9223    6.7734 O   0  0  0  0  0  0  0  0  0  0  0  0
   -0.2129   -7.9504    4.3723 C   0  0  0  0  0  0  0  0  0  0  0  0
   -1.1266   -8.7823    3.4325 C   0  0  0  0  0  0  0  0  0  0  0  0
   -1.0428   -6.6795    4.6571 C   0  0  0  0  0  0  0  0  0  0  0  0
    1.1517   -7.5740    3.6636 C   0  0  1  0  0  0  0  0  0  0  0  0
    1.8750   -6.3785    4.3502 C   0  0  0  0  0  0  0  0  0  0  0  0
    3.1877   -5.9270    3.6922 C   0  0  0  0  0  0  0  0  0  0  0  0
    4.2586   -7.0336    3.5110 C   0  0  1  0  0  0  0  0  0  0  0  0
    4.8090   -7.4674    4.9052 C   0  0  0  0  0  0  0  0  0  0  0  0
    5.4991   -6.4901    2.6448 C   0  0  1  0  0  0  0  0  0  0  0  0
    6.6525   -7.5475    2.6419 C   0  0  0  0  0  0  0  0  0  0  0  0
    6.1538   -5.2034    3.2304 C   0  0  0  0  0  0  0  0  0  0  0  0
    5.6142   -3.8783    2.6916 C   0  0  0  0  0  0  0  0  0  0  0  0
    5.7144   -3.7321    1.1662 C   0  0  1  0  0  0  0  0  0  0  0  0
    7.1839   -3.4709    0.7437 C   0  0  0  0  0  0  0  0  0  0  0  0
    4.7968   -2.5199    0.7552 C   0  0  1  0  0  0  0  0  0  0  0  0
    5.2418   -1.1580    1.3385 C   0  0  0  0  0  0  0  0  0  0  0  0
    2.6966   -1.3940   -0.6115 H   0  0  0  0  0  0  0  0  0  0  0  0
    3.3577   -1.3498   -2.2469 H   0  0  0  0  0  0  0  0  0  0  0  0
    4.0502   -0.3242   -1.0002 H   0  0  0  0  0  0  0  0  0  0  0  0
    5.5080   -2.2302   -1.2815 H   0  0  0  0  0  0  0  0  0  0  0  0
    3.0288   -3.9751   -0.8035 H   0  0  0  0  0  0  0  0  0  0  0  0
    3.8248   -3.7121   -2.3420 H   0  0  0  0  0  0  0  0  0  0  0  0
    4.6838   -5.7472   -1.4886 H   0  0  0  0  0  0  0  0  0  0  0  0
    5.9108   -4.5594   -1.4621 H   0  0  0  0  0  0  0  0  0  0  0  0
    4.2750   -7.4069   -0.4883 H   0  0  0  0  0  0  0  0  0  0  0  0
    5.2830   -8.3057    0.5631 H   0  0  0  0  0  0  0  0  0  0  0  0
    2.5468   -7.1442    1.1800 H   0  0  0  0  0  0  0  0  0  0  0  0
    2.9324   -8.7932    0.7729 H   0  0  0  0  0  0  0  0  0  0  0  0
    4.1946   -9.0982    2.8282 H   0  0  0  0  0  0  0  0  0  0  0  0
    0.9922  -10.6294    3.0128 H   0  0  0  0  0  0  0  0  0  0  0  0
    2.4414  -10.4790    2.1236 H   0  0  0  0  0  0  0  0  0  0  0  0
    1.0495   -9.4808    1.7015 H   0  0  0  0  0  0  0  0  0  0  0  0
    3.0159  -10.3011    4.7933 H   0  0  0  0  0  0  0  0  0  0  0  0
    2.7963   -8.7723    5.5814 H   0  0  0  0  0  0  0  0  0  0  0  0
    0.5680  -10.7277    5.0589 H   0  0  0  0  0  0  0  0  0  0  0  0
    1.2609  -10.2507    6.5599 H   0  0  0  0  0  0  0  0  0  0  0  0
   -0.9493   -9.1770    6.0034 H   0  0  0  0  0  0  0  0  0  0  0  0
    1.3001   -7.6651    6.6271 H   0  0  0  0  0  0  0  0  0  0  0  0
   -1.0750   -8.4576    2.3920 H   0  0  0  0  0  0  0  0  0  0  0  0
   -2.1741   -8.7334    3.7372 H   0  0  0  0  0  0  0  0  0  0  0  0
   -0.8947   -9.8442    3.4685 H   0  0  0  0  0  0  0  0  0  0  0  0
   -1.1594   -6.1149    3.7361 H   0  0  0  0  0  0  0  0  0  0  0  0
   -0.6010   -6.0270    5.4121 H   0  0  0  0  0  0  0  0  0  0  0  0
   -2.0439   -6.9220    5.0135 H   0  0  0  0  0  0  0  0  0  0  0  0
    0.8813   -7.2152    2.6687 H   0  0  0  0  0  0  0  0  0  0  0  0
    1.2343   -5.5020    4.3474 H   0  0  0  0  0  0  0  0  0  0  0  0
    2.0653   -6.5956    5.3941 H   0  0  0  0  0  0  0  0  0  0  0  0
    2.9507   -5.4717    2.7301 H   0  0  0  0  0  0  0  0  0  0  0  0
    3.5932   -5.1293    4.3153 H   0  0  0  0  0  0  0  0  0  0  0  0
    5.7649   -7.0252    5.1757 H   0  0  0  0  0  0  0  0  0  0  0  0
    4.9765   -8.5447    4.9477 H   0  0  0  0  0  0  0  0  0  0  0  0
    4.1521   -7.1854    5.7260 H   0  0  0  0  0  0  0  0  0  0  0  0
    7.1945   -7.5776    3.5882 H   0  0  0  0  0  0  0  0  0  0  0  0
    7.3951   -7.3131    1.8770 H   0  0  0  0  0  0  0  0  0  0  0  0
    6.3132   -8.5658    2.4551 H   0  0  0  0  0  0  0  0  0  0  0  0
    6.0981   -5.1685    4.3146 H   0  0  0  0  0  0  0  0  0  0  0  0
    7.2224   -5.2285    3.0104 H   0  0  0  0  0  0  0  0  0  0  0  0
    4.5849   -3.7369    3.0113 H   0  0  0  0  0  0  0  0  0  0  0  0
    6.1689   -3.0702    3.1584 H   0  0  0  0  0  0  0  0  0  0  0  0
    7.6126   -2.6284    1.2765 H   0  0  0  0  0  0  0  0  0  0  0  0
    7.2848   -3.2575   -0.3177 H   0  0  0  0  0  0  0  0  0  0  0  0
    7.8183   -4.3322    0.9422 H   0  0  0  0  0  0  0  0  0  0  0  0
    3.8134   -2.7195    1.1850 H   0  0  0  0  0  0  0  0  0  0  0  0
    6.1595   -0.7950    0.8748 H   0  0  0  0  0  0  0  0  0  0  0  0
    5.3994   -1.1929    2.4153 H   0  0  0  0  0  0  0  0  0  0  0  0
    4.4764   -0.3980    1.1887 H   0  0  0  0  0  0  0  0  0  0  0  0
  1  2  1  0
  1 32  1  0
  1 33  1  0
  1 34  1  0
  2 30  1  0
  2  3  1  0
  2 35  1  6
  3  4  1  0
  3 36  1  0
  3 37  1  0
  4  5  1  0
  4 38  1  0
  4 39  1  0
  5 28  1  0
  5  6  2  0
  6 24  1  0
  6  7  1  0
  7  8  1  0
  7 40  1  0
  7 41  1  0
  8  9  1  0
  8 42  1  0
  8 43  1  0
  9 22  1  0
  9 10  1  0
  9 44  1  6
 10 19  1  0
 10 11  1  6
 10 12  1  0
 11 45  1  0
 11 46  1  0
 11 47  1  0
 12 13  1  0
 12 48  1  0
 12 49  1  0
 13 14  1  0
 13 50  1  0
 13 51  1  0
 14 15  1  0
 14 16  1  0
 14 52  1  1
 15 53  1  0
 16 17  1  0
 16 18  1  0
 16 19  1  0
 17 54  1  0
 17 55  1  0
 17 56  1  0
 18 57  1  0
 18 58  1  0
 18 59  1  0
 19 20  1  0
 19 60  1  6
 20 21  1  0
 20 61  1  0
 20 62  1  0
 21 22  1  0
 21 63  1  0
 21 64  1  0
 22 23  1  1
 22 24  1  0
 23 65  1  0
 23 66  1  0
 23 67  1  0
 24 25  1  6
 24 26  1  0
 25 68  1  0
 25 69  1  0
 25 70  1  0
 26 27  1  0
 26 71  1  0
 26 72  1  0
 27 28  1  0
 27 73  1  0
 27 74  1  0
 28 29  1  1
 28 30  1  0
 29 75  1  0
 29 76  1  0
 29 77  1  0
 30 31  1  0
 30 78  1  1
 31 79  1  0
 31 80  1  0
 31 81  1  0
M  END
>  <i_m_ct_stereo_status>  (14) 
1

>  <s_m_source_file>  (14) 
/var/tmp/pbs.5076255.sched01/tmpc_kifbv4/0gx9_4qhc.sdf

>  <i_m_source_file_index>  (14) 
6

>  <i_lp_mmshare_version>  (14) 
48012

>  <i_f3d_flags>  (14) 
0

>  <s_epik_input>  (14) 
W0NIMl0xW0NIMl1bQ0BASF0oW0NIM10pW0NASF0oW0NIM10pW0NAQF0oW0NIM10pKFtDSDJdW0NIMl0yKUMxPUMoW0NIMl1bQ0gyXTMpW0NAXTIoW0NIM10pW0NAXShbQ0gzXSkoW0NASF0zW0NAQF00NVtDSDNdKVtDSDJdW0NIMl1bQ0BASF01QyhbQ0gzXSkoW0NIM10pW0NASF0oW09IXSlbQ0gyXVtDSDJdNA==

>  <s_epik_cmdline>  (14) 
J2VwaWtfcHl0aG9uJywgJy1waHQnLCAnMi4wJywgJy1waCcsICc3LjAnLCAnLXRuJywgJzgnLCAnLW1hJywgJzIwMCcsICctaW1hZScsICc8aW5maWxlLm1hZT4nLCAnLW9tYWUnLCAnPG91dGZpbGUubWFlPic=

>  <r_lp_tautomer_probability>  (14) 
1

>  <r_epik_Ionization_Penalty>  (14) 
3.03134e-06

>  <r_epik_Ionization_Penalty_Charging>  (14) 
0

>  <r_epik_Ionization_Penalty_Neutral>  (14) 
3.03134e-06

>  <r_epik_State_Penalty>  (14) 
-0

>  <r_epik_Charging_Adjusted_Penalty>  (14) 
0

>  <i_epik_Tot_Q>  (14) 
0

>  <i_epik_Tot_abs_Q>  (14) 
0

>  <s_lp_Force_Field>  (14) 
OPLS3e

>  <r_lp_Energy>  (14) 
92.7632

>  <b_lp_Chiralities_Consistent>  (14) 
1

>  <s_lp_Variant>  (14) 
5:0-1

>  <s_i_glide_gridfile>  (14) 
pfpi4k_grid

>  <i_i_glide_lignum>  (14) 
6

>  <i_i_glide_rotatable_bonds>  (14) 
1

>  <r_i_docking_score>  (14) 
-2.57674

>  <r_i_glide_ligand_efficiency>  (14) 
-0.0831206

>  <r_i_glide_ligand_efficiency_sa>  (14) 
-0.261113

>  <r_i_glide_ligand_efficiency_ln>  (14) 
-0.581134

>  <r_i_glide_gscore>  (14) 
-2.57674

>  <r_i_glide_lipo>  (14) 
-0.730263

>  <r_i_glide_hbond>  (14) 
0

>  <r_i_glide_metal>  (14) 
-0

>  <r_i_glide_rewards>  (14) 
-0.499654

>  <r_i_glide_evdw>  (14) 
-21.6263

>  <r_i_glide_ecoul>  (14) 
-1.77005

>  <r_i_glide_erotb>  (14) 
0

>  <r_i_glide_esite>  (14) 
0

>  <r_i_glide_emodel>  (14) 
-28.2893

>  <r_i_glide_energy>  (14) 
-23.3963

>  <r_i_glide_einternal>  (14) 
0.0933607

>  <r_i_glide_intrahb_reward>  (14) 
-0

>  <i_i_glide_confnum>  (14) 
2

>  <i_i_glide_posenum>  (14) 
20

>  <r_i_glide_eff_state_penalty>  (14) 
0

>  <ligand_id>  (14) 
5

>  <original_smiles>  (14) 
CC1CCC2=C3CCC4C5(C)CCC(O)C(C)(C)C5CCC4(C)C3(C)CCC2(C)C1C

>  <smiles>  (14) 
[H]OC1([H])C([H])([H])C([H])([H])C2(C([H])([H])[H])C([H])(C([H])([H])C([H])([H])C3(C([H])([H])[H])C2([H])C([H])([H])C([H])([H])C2=C4C([H])([H])C([H])([H])C([H])(C([H])([H])[H])C([H])(C([H])([H])[H])C4(C([H])([H])[H])C([H])([H])C([H])([H])C23C([H])([H])[H])C1(C([H])([H])[H])C([H])([H])[H]

$$$$
6:0:0
     RDKit          3D

 66 70  0  0  1  0  0  0  0  0999 V2000
    2.0825    3.9525    2.9695 C   0  0  0  0  0  0  0  0  0  0  0  0
    0.8993    4.4165    3.6227 O   0  0  0  0  0  0  0  0  0  0  0  0
    0.4201    3.8824    4.7659 C   0  0  0  0  0  0  0  0  0  0  0  0
   -0.6325    4.2522    5.2850 O   0  0  0  0  0  0  0  0  0  0  0  0
    1.2578    2.7882    5.4450 C   0  0  0  0  0  0  0  0  0  0  0  0
    1.2264    1.4021    4.7236 C   0  0  2  0  0  0  0  0  0  0  0  0
   -0.1117    0.5985    4.7095 C   0  0  1  0  0  0  0  0  0  0  0  0
   -1.1858    1.1714    3.7586 C   0  0  0  0  0  0  0  0  0  0  0  0
    0.4255   -0.7451    4.2348 C   0  0  0  0  0  0  0  0  0  0  0  0
    1.7188   -0.9082    4.6034 C   0  0  0  0  0  0  0  0  0  0  0  0
    2.6640   -2.0880    4.3720 C   0  0  1  0  0  0  0  0  0  0  0  0
    2.7469   -2.8256    5.7338 C   0  0  0  0  0  0  0  0  0  0  0  0
    2.1265   -3.1414    3.3652 C   0  0  0  0  0  0  0  0  0  0  0  0
    2.2799   -2.7793    1.8809 C   0  0  0  0  0  0  0  0  0  0  0  0
    3.7388   -2.4460    1.5314 C   0  0  1  0  0  0  0  0  0  0  0  0
    3.9876   -2.3897    0.0255 C   0  0  0  0  0  0  0  0  0  0  0  0
    4.3673   -3.4114   -0.7597 N   0  0  0  0  0  0  0  0  0  0  0  0
    4.3940   -2.8187   -1.9593 C   0  0  0  0  0  0  0  0  0  0  0  0
    4.7746   -3.5075   -3.2170 C   0  0  0  0  0  0  0  0  0  0  0  0
    4.0887   -1.5372   -1.9766 N   0  0  0  0  0  0  0  0  0  0  0  0
    3.7693   -1.2379   -0.6530 O   0  0  0  0  0  0  0  0  0  0  0  0
    4.2694   -1.2339    2.3867 C   0  0  0  0  0  0  0  0  0  0  0  0
    5.7821   -1.0779    2.0875 C   0  0  0  0  0  0  0  0  0  0  0  0
    3.5456    0.0860    1.9755 C   0  0  0  0  0  0  0  0  0  0  0  0
    4.0857   -1.5757    3.9258 C   0  0  1  0  0  0  0  0  0  0  0  0
    4.6043   -0.5101    4.9332 C   0  0  0  0  0  0  0  0  0  0  0  0
    3.6692    0.6929    5.1707 C   0  0  0  0  0  0  0  0  0  0  0  0
    2.1755    0.3318    5.3617 C   0  0  1  0  0  0  0  0  0  0  0  0
    1.7593    0.1378    6.8226 C   0  0  0  0  0  0  0  0  0  0  0  0
    0.4549    0.1691    7.1921 C   0  0  0  0  0  0  0  0  0  0  0  0
   -0.5980    0.4080    6.1694 C   0  0  0  0  0  0  0  0  0  0  0  0
   -1.7967    0.4353    6.4467 O   0  0  0  0  0  0  0  0  0  0  0  0
    2.3138    4.6046    2.1028 H   0  0  0  0  0  0  0  0  0  0  0  0
    1.9626    2.9225    2.6448 H   0  0  0  0  0  0  0  0  0  0  0  0
    2.9432    4.0300    3.6464 H   0  0  0  0  0  0  0  0  0  0  0  0
    2.2884    3.1282    5.4925 H   0  0  0  0  0  0  0  0  0  0  0  0
    0.9615    2.7298    6.5001 H   0  0  0  0  0  0  0  0  0  0  0  0
    1.5249    1.5686    3.6833 H   0  0  0  0  0  0  0  0  0  0  0  0
   -2.0050    0.4658    3.6416 H   0  0  0  0  0  0  0  0  0  0  0  0
   -0.7875    1.3998    2.7612 H   0  0  0  0  0  0  0  0  0  0  0  0
   -1.6387    2.0882    4.1349 H   0  0  0  0  0  0  0  0  0  0  0  0
   -0.1672   -1.4449    3.6677 H   0  0  0  0  0  0  0  0  0  0  0  0
    3.4470   -3.6564    5.6931 H   0  0  0  0  0  0  0  0  0  0  0  0
    1.7691   -3.2165    6.0120 H   0  0  0  0  0  0  0  0  0  0  0  0
    3.0618   -2.1782    6.5464 H   0  0  0  0  0  0  0  0  0  0  0  0
    2.6891   -4.0593    3.5325 H   0  0  0  0  0  0  0  0  0  0  0  0
    1.0927   -3.4026    3.5912 H   0  0  0  0  0  0  0  0  0  0  0  0
    1.9809   -3.6414    1.2908 H   0  0  0  0  0  0  0  0  0  0  0  0
    1.6151   -1.9641    1.6030 H   0  0  0  0  0  0  0  0  0  0  0  0
    4.3236   -3.3110    1.8492 H   0  0  0  0  0  0  0  0  0  0  0  0
    5.0135   -2.7734   -3.9916 H   0  0  0  0  0  0  0  0  0  0  0  0
    3.9443   -4.1244   -3.5760 H   0  0  0  0  0  0  0  0  0  0  0  0
    5.6670   -4.1199   -3.0490 H   0  0  0  0  0  0  0  0  0  0  0  0
    6.2145   -0.2339    2.6138 H   0  0  0  0  0  0  0  0  0  0  0  0
    5.9843   -0.9158    1.0300 H   0  0  0  0  0  0  0  0  0  0  0  0
    6.3371   -1.9652    2.3863 H   0  0  0  0  0  0  0  0  0  0  0  0
    4.0221    0.9373    2.4501 H   0  0  0  0  0  0  0  0  0  0  0  0
    2.4902    0.0627    2.2606 H   0  0  0  0  0  0  0  0  0  0  0  0
    3.5904    0.3049    0.9031 H   0  0  0  0  0  0  0  0  0  0  0  0
    4.7407   -2.4338    4.0892 H   0  0  0  0  0  0  0  0  0  0  0  0
    4.7619   -0.9833    5.9014 H   0  0  0  0  0  0  0  0  0  0  0  0
    5.5945   -0.1574    4.6630 H   0  0  0  0  0  0  0  0  0  0  0  0
    4.0307    1.2763    6.0180 H   0  0  0  0  0  0  0  0  0  0  0  0
    3.7753    1.4050    4.3565 H   0  0  0  0  0  0  0  0  0  0  0  0
    2.5533   -0.0202    7.5384 H   0  0  0  0  0  0  0  0  0  0  0  0
    0.1583    0.0601    8.2283 H   0  0  0  0  0  0  0  0  0  0  0  0
  1  2  1  0
  1 33  1  0
  1 34  1  0
  1 35  1  0
  2  3  1  0
  3  4  2  0
  3  5  1  0
  5  6  1  0
  5 36  1  0
  5 37  1  0
  6 28  1  0
  6  7  1  0
  6 38  1  6
  7 31  1  0
  7  8  1  6
  7  9  1  0
  8 39  1  0
  8 40  1  0
  8 41  1  0
  9 10  2  0
  9 42  1  0
 10 28  1  0
 10 11  1  0
 11 25  1  0
 11 12  1  1
 11 13  1  0
 12 43  1  0
 12 44  1  0
 12 45  1  0
 13 14  1  0
 13 46  1  0
 13 47  1  0
 14 15  1  0
 14 48  1  0
 14 49  1  0
 15 16  1  0
 15 22  1  0
 15 50  1  1
 16 21  1  0
 16 17  2  0
 17 18  1  0
 18 19  1  0
 18 20  2  0
 19 51  1  0
 19 52  1  0
 19 53  1  0
 20 21  1  0
 22 23  1  0
 22 24  1  0
 22 25  1  0
 23 54  1  0
 23 55  1  0
 23 56  1  0
 24 57  1  0
 24 58  1  0
 24 59  1  0
 25 26  1  0
 25 60  1  1
 26 27  1  0
 26 61  1  0
 26 62  1  0
 28 27  1  1
 27 63  1  0
 27 64  1  0
 28 29  1  0
 29 30  2  0
 29 65  1  0
 30 31  1  0
 30 66  1  0
 31 32  2  0
M  END
>  <i_m_ct_stereo_status>  (15) 
1

>  <s_m_source_file>  (15) 
/var/tmp/pbs.5076255.sched01/tmpc_kifbv4/0gx9_4qhc.sdf

>  <i_m_source_file_index>  (15) 
7

>  <i_lp_mmshare_version>  (15) 
48012

>  <i_f3d_flags>  (15) 
0

>  <s_epik_input>  (15) 
W0NIM11PQyg9TylbQ0gyXVtDQEBIXTFbQ0BdKFtDSDNdKShDKD1PKVtDSF09W0NIXTIpW0NIXT1DKFtDQEBdMTIzKVtDQF00KFtDSDNdKVtDQEhdKFtDSDJdW0NIMl0zKUMoW0NIM10pKFtDSDNdKVtDQEBIXShbQ0gyXVtDSDJdNCljNW5jKFtDSDNdKW5vNQ==

>  <s_epik_cmdline>  (15) 
J2VwaWtfcHl0aG9uJywgJy1waHQnLCAnMi4wJywgJy1waCcsICc3LjAnLCAnLXRuJywgJzgnLCAnLW1hJywgJzIwMCcsICctaW1hZScsICc8aW5maWxlLm1hZT4nLCAnLW9tYWUnLCAnPG91dGZpbGUubWFlPic=

>  <r_lp_tautomer_probability>  (15) 
1

>  <r_epik_Ionization_Penalty>  (15) 
9.49851e-11

>  <r_epik_Ionization_Penalty_Charging>  (15) 
0

>  <r_epik_Ionization_Penalty_Neutral>  (15) 
9.49851e-11

>  <r_epik_State_Penalty>  (15) 
-0

>  <r_epik_Charging_Adjusted_Penalty>  (15) 
0

>  <i_epik_Tot_Q>  (15) 
0

>  <i_epik_Tot_abs_Q>  (15) 
0

>  <s_epik_Chemistry_Notes>  (15) 
This compound has an ester and may undergo hydrolysis at high or low pH.

>  <s_lp_Force_Field>  (15) 
OPLS3e

>  <r_lp_Energy>  (15) 
51.2614

>  <b_lp_Chiralities_Consistent>  (15) 
1

>  <s_lp_Variant>  (15) 
6:0-1

>  <s_i_glide_gridfile>  (15) 
pfpi4k_grid

>  <i_i_glide_lignum>  (15) 
7

>  <i_i_glide_rotatable_bonds>  (15) 
4

>  <r_i_docking_score>  (15) 
-2.7953

>  <r_i_glide_ligand_efficiency>  (15) 
-0.087353

>  <r_i_glide_ligand_efficiency_sa>  (15) 
-0.277328

>  <r_i_glide_ligand_efficiency_ln>  (15) 
-0.625943

>  <r_i_glide_gscore>  (15) 
-2.7953

>  <r_i_glide_lipo>  (15) 
-0.34079

>  <r_i_glide_hbond>  (15) 
-0.16

>  <r_i_glide_metal>  (15) 
-0

>  <r_i_glide_rewards>  (15) 
-0.418915

>  <r_i_glide_evdw>  (15) 
-26.9505

>  <r_i_glide_ecoul>  (15) 
-4.38258

>  <r_i_glide_erotb>  (15) 
0.31119

>  <r_i_glide_esite>  (15) 
-0.18187

>  <r_i_glide_emodel>  (15) 
-31.5927

>  <r_i_glide_energy>  (15) 
-31.3331

>  <r_i_glide_einternal>  (15) 
7.07965

>  <r_i_glide_intrahb_reward>  (15) 
-0

>  <i_i_glide_confnum>  (15) 
1

>  <i_i_glide_posenum>  (15) 
4

>  <r_i_glide_eff_state_penalty>  (15) 
0

>  <ligand_id>  (15) 
6

>  <original_smiles>  (15) 
COC(=O)CC1C2(C)C=C3C4(C)CCC(c5nc(C)no5)C(C)(C)C4CCC31C=CC2=O

>  <smiles>  (15) 
[H]C1=C([H])C23C(=C([H])C(C([H])([H])[H])(C1=O)C2([H])C([H])([H])C(=O)OC([H])([H])[H])C1(C([H])([H])[H])C([H])([H])C([H])([H])C([H])(c2nc(C([H])([H])[H])no2)C(C([H])([H])[H])(C([H])([H])[H])C1([H])C([H])([H])C3([H])[H]

$$$$
6:0:1
     RDKit          3D

 66 70  0  0  1  0  0  0  0  0999 V2000
    2.2002   -2.5665   -3.9051 C   0  0  0  0  0  0  0  0  0  0  0  0
    2.4382   -3.0331   -2.5859 O   0  0  0  0  0  0  0  0  0  0  0  0
    3.6991   -3.1078   -2.1528 C   0  0  0  0  0  0  0  0  0  0  0  0
    4.6919   -2.8138   -2.8213 O   0  0  0  0  0  0  0  0  0  0  0  0
    3.8205   -3.7183   -0.7478 C   0  0  0  0  0  0  0  0  0  0  0  0
    3.9114   -2.7225    0.4594 C   0  0  2  0  0  0  0  0  0  0  0  0
    5.1420   -1.7829    0.5973 C   0  0  1  0  0  0  0  0  0  0  0  0
    5.2061   -0.5976   -0.3796 C   0  0  0  0  0  0  0  0  0  0  0  0
    4.9401   -1.3128    2.0271 C   0  0  0  0  0  0  0  0  0  0  0  0
    4.2872   -2.2289    2.7509 C   0  0  0  0  0  0  0  0  0  0  0  0
    3.8864   -2.1925    4.2326 C   0  0  1  0  0  0  0  0  0  0  0  0
    4.8775   -3.1195    4.9786 C   0  0  0  0  0  0  0  0  0  0  0  0
    4.0630   -0.8051    4.9214 C   0  0  0  0  0  0  0  0  0  0  0  0
    2.9553    0.2136    4.6328 C   0  0  0  0  0  0  0  0  0  0  0  0
    1.5770   -0.3585    4.9835 C   0  0  1  0  0  0  0  0  0  0  0  0
    0.5038    0.7180    4.9922 C   0  0  0  0  0  0  0  0  0  0  0  0
   -0.3505    0.9992    5.9617 N   0  0  0  0  0  0  0  0  0  0  0  0
   -1.0621    1.9977    5.4114 C   0  0  0  0  0  0  0  0  0  0  0  0
   -2.1671    2.7126    6.1365 C   0  0  0  0  0  0  0  0  0  0  0  0
   -0.7480    2.3471    4.1838 N   0  0  0  0  0  0  0  0  0  0  0  0
    0.3298    1.4993    3.8861 O   0  0  0  0  0  0  0  0  0  0  0  0
    1.2559   -1.6563    4.1651 C   0  0  0  0  0  0  0  0  0  0  0  0
   -0.0752   -2.2440    4.6925 C   0  0  0  0  0  0  0  0  0  0  0  0
    1.0589   -1.2987    2.6754 C   0  0  0  0  0  0  0  0  0  0  0  0
    2.4188   -2.7090    4.4163 C   0  0  1  0  0  0  0  0  0  0  0  0
    2.2597   -4.0982    3.7273 C   0  0  0  0  0  0  0  0  0  0  0  0
    2.6378   -4.1498    2.2358 C   0  0  0  0  0  0  0  0  0  0  0  0
    3.9511   -3.4210    1.8575 C   0  0  1  0  0  0  0  0  0  0  0  0
    5.1920   -4.3204    1.9046 C   0  0  0  0  0  0  0  0  0  0  0  0
    6.3484   -3.9592    1.2894 C   0  0  0  0  0  0  0  0  0  0  0  0
    6.4227   -2.6521    0.5776 C   0  0  0  0  0  0  0  0  0  0  0  0
    7.4329   -2.2491    0.0003 O   0  0  0  0  0  0  0  0  0  0  0  0
    1.1436   -2.6545   -4.1549 H   0  0  0  0  0  0  0  0  0  0  0  0
    2.7733   -3.1423   -4.6325 H   0  0  0  0  0  0  0  0  0  0  0  0
    2.4930   -1.5198   -3.9918 H   0  0  0  0  0  0  0  0  0  0  0  0
    2.9388   -4.3420   -0.6008 H   0  0  0  0  0  0  0  0  0  0  0  0
    4.6639   -4.4074   -0.7655 H   0  0  0  0  0  0  0  0  0  0  0  0
    3.0158   -2.0990    0.4066 H   0  0  0  0  0  0  0  0  0  0  0  0
    5.9434    0.1245   -0.0351 H   0  0  0  0  0  0  0  0  0  0  0  0
    4.2420   -0.1016   -0.4466 H   0  0  0  0  0  0  0  0  0  0  0  0
    5.5048   -0.8853   -1.3912 H   0  0  0  0  0  0  0  0  0  0  0  0
    5.3039   -0.3588    2.3789 H   0  0  0  0  0  0  0  0  0  0  0  0
    4.6401   -3.2130    6.0417 H   0  0  0  0  0  0  0  0  0  0  0  0
    5.8907   -2.7252    4.9072 H   0  0  0  0  0  0  0  0  0  0  0  0
    4.9173   -4.1294    4.5707 H   0  0  0  0  0  0  0  0  0  0  0  0
    4.0707   -0.9652    6.0015 H   0  0  0  0  0  0  0  0  0  0  0  0
    5.0384   -0.3779    4.6936 H   0  0  0  0  0  0  0  0  0  0  0  0
    3.1306    1.1021    5.2392 H   0  0  0  0  0  0  0  0  0  0  0  0
    2.9932    0.5416    3.5991 H   0  0  0  0  0  0  0  0  0  0  0  0
    1.6262   -0.6645    6.0264 H   0  0  0  0  0  0  0  0  0  0  0  0
   -2.7767    3.2848    5.4397 H   0  0  0  0  0  0  0  0  0  0  0  0
   -1.7387    3.4083    6.8549 H   0  0  0  0  0  0  0  0  0  0  0  0
   -2.7947    1.9848    6.6535 H   0  0  0  0  0  0  0  0  0  0  0  0
   -0.3728   -3.1291    4.1331 H   0  0  0  0  0  0  0  0  0  0  0  0
   -0.9050   -1.5395    4.6012 H   0  0  0  0  0  0  0  0  0  0  0  0
   -0.0046   -2.5328    5.7392 H   0  0  0  0  0  0  0  0  0  0  0  0
    0.6557   -2.1278    2.1044 H   0  0  0  0  0  0  0  0  0  0  0  0
    1.9770   -0.9678    2.1998 H   0  0  0  0  0  0  0  0  0  0  0  0
    0.3216   -0.5116    2.5190 H   0  0  0  0  0  0  0  0  0  0  0  0
    2.3320   -2.9363    5.4804 H   0  0  0  0  0  0  0  0  0  0  0  0
    2.8836   -4.8228    4.2505 H   0  0  0  0  0  0  0  0  0  0  0  0
    1.2566   -4.4957    3.8563 H   0  0  0  0  0  0  0  0  0  0  0  0
    2.6953   -5.1888    1.9074 H   0  0  0  0  0  0  0  0  0  0  0  0
    1.8226   -3.7393    1.6484 H   0  0  0  0  0  0  0  0  0  0  0  0
    5.1109   -5.2546    2.4318 H   0  0  0  0  0  0  0  0  0  0  0  0
    7.2334   -4.5901    1.3169 H   0  0  0  0  0  0  0  0  0  0  0  0
  1  2  1  0
  1 33  1  0
  1 34  1  0
  1 35  1  0
  2  3  1  0
  3  4  2  0
  3  5  1  0
  5  6  1  0
  5 36  1  0
  5 37  1  0
  6 28  1  0
  6  7  1  0
  6 38  1  1
  7 31  1  0
  7  8  1  6
  7  9  1  0
  8 39  1  0
  8 40  1  0
  8 41  1  0
  9 10  2  0
  9 42  1  0
 10 28  1  0
 10 11  1  0
 11 25  1  0
 11 12  1  1
 11 13  1  0
 12 43  1  0
 12 44  1  0
 12 45  1  0
 13 14  1  0
 13 46  1  0
 13 47  1  0
 14 15  1  0
 14 48  1  0
 14 49  1  0
 15 16  1  0
 15 22  1  0
 15 50  1  1
 16 21  1  0
 16 17  2  0
 17 18  1  0
 18 19  1  0
 18 20  2  0
 19 51  1  0
 19 52  1  0
 19 53  1  0
 20 21  1  0
 22 23  1  0
 22 24  1  0
 22 25  1  0
 23 54  1  0
 23 55  1  0
 23 56  1  0
 24 57  1  0
 24 58  1  0
 24 59  1  0
 25 26  1  0
 25 60  1  1
 26 27  1  0
 26 61  1  0
 26 62  1  0
 28 27  1  1
 27 63  1  0
 27 64  1  0
 28 29  1  0
 29 30  2  0
 29 65  1  0
 30 31  1  0
 30 66  1  0
 31 32  2  0
M  END
>  <i_m_ct_stereo_status>  (16) 
1

>  <s_m_source_file>  (16) 
/var/tmp/pbs.5076255.sched01/tmpc_kifbv4/0gx9_4qhc.sdf

>  <i_m_source_file_index>  (16) 
7

>  <i_lp_mmshare_version>  (16) 
48012

>  <i_f3d_flags>  (16) 
0

>  <s_epik_input>  (16) 
W0NIM11PQyg9TylbQ0gyXVtDQEBIXTFbQ0BdKFtDSDNdKShDKD1PKVtDSF09W0NIXTIpW0NIXT1DKFtDQEBdMTIzKVtDQF00KFtDSDNdKVtDQEhdKFtDSDJdW0NIMl0zKUMoW0NIM10pKFtDSDNdKVtDQEBIXShbQ0gyXVtDSDJdNCljNW5jKFtDSDNdKW5vNQ==

>  <s_epik_cmdline>  (16) 
J2VwaWtfcHl0aG9uJywgJy1waHQnLCAnMi4wJywgJy1waCcsICc3LjAnLCAnLXRuJywgJzgnLCAnLW1hJywgJzIwMCcsICctaW1hZScsICc8aW5maWxlLm1hZT4nLCAnLW9tYWUnLCAnPG91dGZpbGUubWFlPic=

>  <r_lp_tautomer_probability>  (16) 
1

>  <r_epik_Ionization_Penalty>  (16) 
9.49851e-11

>  <r_epik_Ionization_Penalty_Charging>  (16) 
0

>  <r_epik_Ionization_Penalty_Neutral>  (16) 
9.49851e-11

>  <r_epik_State_Penalty>  (16) 
-0

>  <r_epik_Charging_Adjusted_Penalty>  (16) 
0

>  <i_epik_Tot_Q>  (16) 
0

>  <i_epik_Tot_abs_Q>  (16) 
0

>  <s_epik_Chemistry_Notes>  (16) 
This compound has an ester and may undergo hydrolysis at high or low pH.

>  <s_lp_Force_Field>  (16) 
OPLS3e

>  <r_lp_Energy>  (16) 
51.2614

>  <b_lp_Chiralities_Consistent>  (16) 
1

>  <s_lp_Variant>  (16) 
6:0-1

>  <s_i_glide_gridfile>  (16) 
pfpi4k_grid

>  <i_i_glide_lignum>  (16) 
7

>  <i_i_glide_rotatable_bonds>  (16) 
4

>  <r_i_docking_score>  (16) 
-2.6613

>  <r_i_glide_ligand_efficiency>  (16) 
-0.0831656

>  <r_i_glide_ligand_efficiency_sa>  (16) 
-0.264034

>  <r_i_glide_ligand_efficiency_ln>  (16) 
-0.595937

>  <r_i_glide_gscore>  (16) 
-2.6613

>  <r_i_glide_lipo>  (16) 
-0.605424

>  <r_i_glide_hbond>  (16) 
-0.0260731

>  <r_i_glide_metal>  (16) 
-0

>  <r_i_glide_rewards>  (16) 
-0.533477

>  <r_i_glide_evdw>  (16) 
-29.3169

>  <r_i_glide_ecoul>  (16) 
-1.77675

>  <r_i_glide_erotb>  (16) 
0.31119

>  <r_i_glide_esite>  (16) 
-0.075158

>  <r_i_glide_emodel>  (16) 
-35.4748

>  <r_i_glide_energy>  (16) 
-31.0936

>  <r_i_glide_einternal>  (16) 
0.921863

>  <r_i_glide_intrahb_reward>  (16) 
-0

>  <i_i_glide_confnum>  (16) 
1

>  <i_i_glide_posenum>  (16) 
13

>  <r_i_glide_eff_state_penalty>  (16) 
0

>  <ligand_id>  (16) 
6

>  <original_smiles>  (16) 
COC(=O)CC1C2(C)C=C3C4(C)CCC(c5nc(C)no5)C(C)(C)C4CCC31C=CC2=O

>  <smiles>  (16) 
[H]C1=C([H])C23C(=C([H])C(C([H])([H])[H])(C1=O)C2([H])C([H])([H])C(=O)OC([H])([H])[H])C1(C([H])([H])[H])C([H])([H])C([H])([H])C([H])(c2nc(C([H])([H])[H])no2)C(C([H])([H])[H])(C([H])([H])[H])C1([H])C([H])([H])C3([H])[H]

$$$$
6:0:2
     RDKit          3D

 66 70  0  0  1  0  0  0  0  0999 V2000
   -2.8410    2.9915    2.4584 C   0  0  0  0  0  0  0  0  0  0  0  0
   -1.4867    2.9482    2.8744 O   0  0  0  0  0  0  0  0  0  0  0  0
   -1.1273    3.5917    3.9798 C   0  0  0  0  0  0  0  0  0  0  0  0
   -1.8132    4.4176    4.5550 O   0  0  0  0  0  0  0  0  0  0  0  0
    0.2157    3.1645    4.5764 C   0  0  0  0  0  0  0  0  0  0  0  0
    0.5315    1.6389    4.5167 C   0  0  2  0  0  0  0  0  0  0  0  0
   -0.4465    0.5799    5.1409 C   0  0  1  0  0  0  0  0  0  0  0  0
   -1.7810    0.3186    4.4184 C   0  0  0  0  0  0  0  0  0  0  0  0
    0.4700   -0.6318    5.0911 C   0  0  0  0  0  0  0  0  0  0  0  0
    1.7463   -0.2805    5.1627 C   0  0  0  0  0  0  0  0  0  0  0  0
    2.9913   -1.1805    5.1646 C   0  0  1  0  0  0  0  0  0  0  0  0
    3.4872   -1.2141    6.6357 C   0  0  0  0  0  0  0  0  0  0  0  0
    2.7146   -2.6693    4.8177 C   0  0  0  0  0  0  0  0  0  0  0  0
    2.5696   -2.9688    3.3283 C   0  0  0  0  0  0  0  0  0  0  0  0
    3.7975   -2.4759    2.5357 C   0  0  1  0  0  0  0  0  0  0  0  0
    3.7871   -3.0129    1.1250 C   0  0  0  0  0  0  0  0  0  0  0  0
    4.8314   -3.1484    0.2979 N   0  0  0  0  0  0  0  0  0  0  0  0
    4.2100   -3.5873   -0.8421 C   0  0  0  0  0  0  0  0  0  0  0  0
    4.9490   -3.7934   -2.1085 C   0  0  0  0  0  0  0  0  0  0  0  0
    2.9145   -3.8223   -0.7383 N   0  0  0  0  0  0  0  0  0  0  0  0
    2.6156   -3.3848    0.5601 O   0  0  0  0  0  0  0  0  0  0  0  0
    3.9817   -0.9316    2.6847 C   0  0  0  0  0  0  0  0  0  0  0  0
    5.3027   -0.5263    1.9889 C   0  0  0  0  0  0  0  0  0  0  0  0
    2.8315   -0.1932    1.9494 C   0  0  0  0  0  0  0  0  0  0  0  0
    4.0907   -0.5856    4.2244 C   0  0  1  0  0  0  0  0  0  0  0  0
    4.3556    0.9022    4.6011 C   0  0  0  0  0  0  0  0  0  0  0  0
    3.1242    1.8273    4.5659 C   0  0  0  0  0  0  0  0  0  0  0  0
    1.8681    1.2409    5.2338 C   0  0  1  0  0  0  0  0  0  0  0  0
    1.7314    1.5840    6.7162 C   0  0  0  0  0  0  0  0  0  0  0  0
    0.5511    1.4609    7.3705 C   0  0  0  0  0  0  0  0  0  0  0  0
   -0.6466    0.9726    6.6275 C   0  0  0  0  0  0  0  0  0  0  0  0
   -1.7684    0.8860    7.1399 O   0  0  0  0  0  0  0  0  0  0  0  0
   -3.0161    2.2289    1.6960 H   0  0  0  0  0  0  0  0  0  0  0  0
   -3.0904    3.9800    2.0783 H   0  0  0  0  0  0  0  0  0  0  0  0
   -3.5279    2.7883    3.2738 H   0  0  0  0  0  0  0  0  0  0  0  0
    0.9917    3.7255    4.0535 H   0  0  0  0  0  0  0  0  0  0  0  0
    0.2383    3.5267    5.6088 H   0  0  0  0  0  0  0  0  0  0  0  0
    0.6316    1.4137    3.4506 H   0  0  0  0  0  0  0  0  0  0  0  0
   -2.2840   -0.5906    4.7539 H   0  0  0  0  0  0  0  0  0  0  0  0
   -1.6288    0.2432    3.3447 H   0  0  0  0  0  0  0  0  0  0  0  0
   -2.4864    1.1192    4.6132 H   0  0  0  0  0  0  0  0  0  0  0  0
    0.0688   -1.6347    5.0204 H   0  0  0  0  0  0  0  0  0  0  0  0
    4.4170   -1.7863    6.7361 H   0  0  0  0  0  0  0  0  0  0  0  0
    2.7366   -1.6803    7.2859 H   0  0  0  0  0  0  0  0  0  0  0  0
    3.6770   -0.2211    7.0515 H   0  0  0  0  0  0  0  0  0  0  0  0
    3.5699   -3.2518    5.1728 H   0  0  0  0  0  0  0  0  0  0  0  0
    1.8599   -3.0521    5.3784 H   0  0  0  0  0  0  0  0  0  0  0  0
    2.4692   -4.0464    3.2033 H   0  0  0  0  0  0  0  0  0  0  0  0
    1.6451   -2.5380    2.9462 H   0  0  0  0  0  0  0  0  0  0  0  0
    4.6707   -2.9501    2.9758 H   0  0  0  0  0  0  0  0  0  0  0  0
    4.2751   -3.9993   -2.9374 H   0  0  0  0  0  0  0  0  0  0  0  0
    5.5826   -4.6591   -1.9867 H   0  0  0  0  0  0  0  0  0  0  0  0
    5.5620   -2.9241   -2.3446 H   0  0  0  0  0  0  0  0  0  0  0  0
    5.4825    0.5329    2.0486 H   0  0  0  0  0  0  0  0  0  0  0  0
    5.3043   -0.7227    0.9212 H   0  0  0  0  0  0  0  0  0  0  0  0
    6.1612   -1.0212    2.4354 H   0  0  0  0  0  0  0  0  0  0  0  0
    3.0273    0.8756    1.8351 H   0  0  0  0  0  0  0  0  0  0  0  0
    1.8733   -0.3107    2.4559 H   0  0  0  0  0  0  0  0  0  0  0  0
    2.6928   -0.5697    0.9338 H   0  0  0  0  0  0  0  0  0  0  0  0
    5.0119   -1.0925    4.5265 H   0  0  0  0  0  0  0  0  0  0  0  0
    4.7809    0.9445    5.6059 H   0  0  0  0  0  0  0  0  0  0  0  0
    5.1395    1.3259    3.9873 H   0  0  0  0  0  0  0  0  0  0  0  0
    3.3778    2.7772    5.0311 H   0  0  0  0  0  0  0  0  0  0  0  0
    2.9068    2.0936    3.5394 H   0  0  0  0  0  0  0  0  0  0  0  0
    2.6189    1.9385    7.2238 H   0  0  0  0  0  0  0  0  0  0  0  0
    0.4341    1.7059    8.4189 H   0  0  0  0  0  0  0  0  0  0  0  0
  1  2  1  0
  1 33  1  0
  1 34  1  0
  1 35  1  0
  2  3  1  0
  3  4  2  0
  3  5  1  0
  5  6  1  0
  5 36  1  0
  5 37  1  0
  6 28  1  0
  6  7  1  0
  6 38  1  6
  7 31  1  0
  7  8  1  6
  7  9  1  0
  8 39  1  0
  8 40  1  0
  8 41  1  0
  9 10  2  0
  9 42  1  0
 10 28  1  0
 10 11  1  0
 11 25  1  0
 11 12  1  1
 11 13  1  0
 12 43  1  0
 12 44  1  0
 12 45  1  0
 13 14  1  0
 13 46  1  0
 13 47  1  0
 14 15  1  0
 14 48  1  0
 14 49  1  0
 15 16  1  0
 15 22  1  0
 15 50  1  1
 16 21  1  0
 16 17  2  0
 17 18  1  0
 18 19  1  0
 18 20  2  0
 19 51  1  0
 19 52  1  0
 19 53  1  0
 20 21  1  0
 22 23  1  0
 22 24  1  0
 22 25  1  0
 23 54  1  0
 23 55  1  0
 23 56  1  0
 24 57  1  0
 24 58  1  0
 24 59  1  0
 25 26  1  0
 25 60  1  1
 26 27  1  0
 26 61  1  0
 26 62  1  0
 28 27  1  6
 27 63  1  0
 27 64  1  0
 28 29  1  0
 29 30  2  0
 29 65  1  0
 30 31  1  0
 30 66  1  0
 31 32  2  0
M  END
>  <i_m_ct_stereo_status>  (17) 
1

>  <s_m_source_file>  (17) 
/var/tmp/pbs.5076255.sched01/tmpc_kifbv4/0gx9_4qhc.sdf

>  <i_m_source_file_index>  (17) 
7

>  <i_lp_mmshare_version>  (17) 
48012

>  <i_f3d_flags>  (17) 
0

>  <s_epik_input>  (17) 
W0NIM11PQyg9TylbQ0gyXVtDQEBIXTFbQ0BdKFtDSDNdKShDKD1PKVtDSF09W0NIXTIpW0NIXT1DKFtDQEBdMTIzKVtDQF00KFtDSDNdKVtDQEhdKFtDSDJdW0NIMl0zKUMoW0NIM10pKFtDSDNdKVtDQEBIXShbQ0gyXVtDSDJdNCljNW5jKFtDSDNdKW5vNQ==

>  <s_epik_cmdline>  (17) 
J2VwaWtfcHl0aG9uJywgJy1waHQnLCAnMi4wJywgJy1waCcsICc3LjAnLCAnLXRuJywgJzgnLCAnLW1hJywgJzIwMCcsICctaW1hZScsICc8aW5maWxlLm1hZT4nLCAnLW9tYWUnLCAnPG91dGZpbGUubWFlPic=

>  <r_lp_tautomer_probability>  (17) 
1

>  <r_epik_Ionization_Penalty>  (17) 
9.49851e-11

>  <r_epik_Ionization_Penalty_Charging>  (17) 
0

>  <r_epik_Ionization_Penalty_Neutral>  (17) 
9.49851e-11

>  <r_epik_State_Penalty>  (17) 
-0

>  <r_epik_Charging_Adjusted_Penalty>  (17) 
0

>  <i_epik_Tot_Q>  (17) 
0

>  <i_epik_Tot_abs_Q>  (17) 
0

>  <s_epik_Chemistry_Notes>  (17) 
This compound has an ester and may undergo hydrolysis at high or low pH.

>  <s_lp_Force_Field>  (17) 
OPLS3e

>  <r_lp_Energy>  (17) 
51.2614

>  <b_lp_Chiralities_Consistent>  (17) 
1

>  <s_lp_Variant>  (17) 
6:0-1

>  <s_i_glide_gridfile>  (17) 
pfpi4k_grid

>  <i_i_glide_lignum>  (17) 
7

>  <i_i_glide_rotatable_bonds>  (17) 
4

>  <r_i_docking_score>  (17) 
-2.4658

>  <r_i_glide_ligand_efficiency>  (17) 
-0.0770562

>  <r_i_glide_ligand_efficiency_sa>  (17) 
-0.244638

>  <r_i_glide_ligand_efficiency_ln>  (17) 
-0.552159

>  <r_i_glide_gscore>  (17) 
-2.4658

>  <r_i_glide_lipo>  (17) 
-0.167672

>  <r_i_glide_hbond>  (17) 
-0.236313

>  <r_i_glide_metal>  (17) 
-0

>  <r_i_glide_rewards>  (17) 
-0.418915

>  <r_i_glide_evdw>  (17) 
-22.7091

>  <r_i_glide_ecoul>  (17) 
-4.51323

>  <r_i_glide_erotb>  (17) 
0.31119

>  <r_i_glide_esite>  (17) 
-0.141649

>  <r_i_glide_emodel>  (17) 
-28.8518

>  <r_i_glide_energy>  (17) 
-27.2223

>  <r_i_glide_einternal>  (17) 
3.95185

>  <r_i_glide_intrahb_reward>  (17) 
-0

>  <i_i_glide_confnum>  (17) 
1

>  <i_i_glide_posenum>  (17) 
34

>  <r_i_glide_eff_state_penalty>  (17) 
0

>  <ligand_id>  (17) 
6

>  <original_smiles>  (17) 
COC(=O)CC1C2(C)C=C3C4(C)CCC(c5nc(C)no5)C(C)(C)C4CCC31C=CC2=O

>  <smiles>  (17) 
[H]C1=C([H])C23C(=C([H])C(C([H])([H])[H])(C1=O)C2([H])C([H])([H])C(=O)OC([H])([H])[H])C1(C([H])([H])[H])C([H])([H])C([H])([H])C([H])(c2nc(C([H])([H])[H])no2)C(C([H])([H])[H])(C([H])([H])[H])C1([H])C([H])([H])C3([H])[H]

$$$$
7:0:0
     RDKit          3D

 60 64  0  0  1  0  0  0  0  0999 V2000
    4.7339   -3.8422   -3.2479 C   0  0  0  0  0  0  0  0  0  0  0  0
    3.8777   -3.1693   -2.1640 C   0  0  2  0  0  0  0  0  0  0  0  0
    3.5803   -1.7233   -2.4842 C   0  0  0  0  0  0  0  0  0  0  0  0
    4.6511   -0.8749   -1.8393 C   0  0  0  0  0  0  0  0  0  0  0  0
    5.1246   -1.4963   -0.4904 C   0  0  2  0  0  0  0  0  0  0  0  0
    5.8811   -0.4327    0.0457 O   0  0  0  0  0  0  0  0  0  0  0  0
    5.8553   -2.9429   -0.3986 C   0  0  2  0  0  0  0  0  0  0  0  0
    4.4978   -3.3121   -0.7578 C   0  0  1  0  0  0  0  0  0  0  0  0
    4.1445   -2.2807    0.4361 C   0  0  1  0  0  0  0  0  0  0  0  0
    4.8397   -2.0197    1.7899 C   0  0  0  0  0  0  0  0  0  0  0  0
    5.9480   -2.6709    2.0015 C   0  0  0  0  0  0  0  0  0  0  0  0
    6.2447   -3.6928    0.9785 C   0  0  2  0  0  0  0  0  0  0  0  0
    7.7786   -3.9372    0.8815 C   0  0  0  0  0  0  0  0  0  0  0  0
    5.3499   -4.9790    1.5597 C   0  0  2  0  0  0  0  0  0  0  0  0
    5.8119   -5.1592    3.0512 C   0  0  0  0  0  0  0  0  0  0  0  0
    5.8333   -6.2634    0.8385 C   0  0  0  0  0  0  0  0  0  0  0  0
    5.2554   -7.5894    1.3623 C   0  0  0  0  0  0  0  0  0  0  0  0
    3.7341   -7.5828    1.4178 C   0  0  0  0  0  0  0  0  0  0  0  0
    3.0439   -6.3832    2.1107 C   0  0  1  0  0  0  0  0  0  0  0  0
    1.5318   -6.5494    1.7300 C   0  0  0  0  0  0  0  0  0  0  0  0
    3.0513   -6.5010    3.6561 C   0  0  0  0  0  0  0  0  0  0  0  0
    2.4201   -5.6381    4.3043 O   0  0  0  0  0  0  0  0  0  0  0  0
    3.6501   -7.4706    4.1741 O   0  0  0  0  0  0  0  0  0  0  0  0
    3.6716   -5.0414    1.5297 C   0  0  1  0  0  0  0  0  0  0  0  0
    2.7699   -3.7478    1.8529 C   0  0  0  0  0  0  0  0  0  0  0  0
    2.7376   -2.5605    0.8086 C   0  0  1  0  0  0  0  0  0  0  0  0
    2.1106   -1.3973    1.3022 O   0  0  0  0  0  0  0  0  0  0  0  0
    5.6920   -3.3480   -3.4119 H   0  0  0  0  0  0  0  0  0  0  0  0
    4.1818   -3.8712   -4.1884 H   0  0  0  0  0  0  0  0  0  0  0  0
    4.9465   -4.8690   -2.9706 H   0  0  0  0  0  0  0  0  0  0  0  0
    2.9305   -3.7161   -2.1625 H   0  0  0  0  0  0  0  0  0  0  0  0
    3.5155   -1.5541   -3.5626 H   0  0  0  0  0  0  0  0  0  0  0  0
    2.6196   -1.4643   -2.0554 H   0  0  0  0  0  0  0  0  0  0  0  0
    5.4801   -0.7927   -2.5264 H   0  0  0  0  0  0  0  0  0  0  0  0
    4.2991    0.1443   -1.7181 H   0  0  0  0  0  0  0  0  0  0  0  0
    5.3966    0.3686   -0.1066 H   0  0  0  0  0  0  0  0  0  0  0  0
    6.5412   -3.0879   -1.2280 H   0  0  0  0  0  0  0  0  0  0  0  0
    4.5706   -4.3604   -0.6259 H   0  0  0  0  0  0  0  0  0  0  0  0
    4.4621   -1.2437    2.4389 H   0  0  0  0  0  0  0  0  0  0  0  0
    6.5924   -2.4970    2.8127 H   0  0  0  0  0  0  0  0  0  0  0  0
    8.0471   -4.6136    0.0760 H   0  0  0  0  0  0  0  0  0  0  0  0
    8.2216   -4.3332    1.7918 H   0  0  0  0  0  0  0  0  0  0  0  0
    8.2945   -3.0013    0.6931 H   0  0  0  0  0  0  0  0  0  0  0  0
    5.6635   -6.1493    3.4553 H   0  0  0  0  0  0  0  0  0  0  0  0
    5.2882   -4.4824    3.7312 H   0  0  0  0  0  0  0  0  0  0  0  0
    6.8806   -5.0432    3.1912 H   0  0  0  0  0  0  0  0  0  0  0  0
    5.5637   -6.1875   -0.2170 H   0  0  0  0  0  0  0  0  0  0  0  0
    6.9173   -6.3528    0.8616 H   0  0  0  0  0  0  0  0  0  0  0  0
    5.5560   -8.3919    0.6870 H   0  0  0  0  0  0  0  0  0  0  0  0
    5.6755   -7.8707    2.3292 H   0  0  0  0  0  0  0  0  0  0  0  0
    3.4130   -7.5507    0.4024 H   0  0  0  0  0  0  0  0  0  0  0  0
    3.3769   -8.5344    1.8193 H   0  0  0  0  0  0  0  0  0  0  0  0
    1.3436   -6.3498    0.6744 H   0  0  0  0  0  0  0  0  0  0  0  0
    0.8636   -5.9161    2.3155 H   0  0  0  0  0  0  0  0  0  0  0  0
    1.1940   -7.5718    1.9250 H   0  0  0  0  0  0  0  0  0  0  0  0
    3.3547   -5.2517    0.5191 H   0  0  0  0  0  0  0  0  0  0  0  0
    1.7303   -4.0338    1.9296 H   0  0  0  0  0  0  0  0  0  0  0  0
    2.9901   -3.3911    2.8590 H   0  0  0  0  0  0  0  0  0  0  0  0
    2.1715   -2.8666   -0.0805 H   0  0  0  0  0  0  0  0  0  0  0  0
    1.5476   -1.0886    0.5834 H   0  0  0  0  0  0  0  0  0  0  0  0
  1  2  1  0
  1 28  1  0
  1 29  1  0
  1 30  1  0
  2  8  1  0
  2  3  1  0
  2 31  1  1
  3  4  1  0
  3 32  1  0
  3 33  1  0
  4  5  1  0
  4 34  1  0
  4 35  1  0
  5  9  1  0
  5  6  1  1
  5  7  1  0
  6 36  1  0
  7 12  1  0
  7  8  1  0
  7 37  1  6
  8  9  1  0
  8 38  1  1
  9 26  1  0
  9 10  1  1
 10 11  2  0
 10 39  1  0
 11 12  1  0
 11 40  1  0
 12 13  1  6
 12 14  1  0
 13 41  1  0
 13 42  1  0
 13 43  1  0
 14 24  1  0
 14 15  1  1
 14 16  1  0
 15 44  1  0
 15 45  1  0
 15 46  1  0
 16 17  1  0
 16 47  1  0
 16 48  1  0
 17 18  1  0
 17 49  1  0
 17 50  1  0
 18 19  1  0
 18 51  1  0
 18 52  1  0
 19 20  1  6
 19 21  1  0
 19 24  1  0
 20 53  1  0
 20 54  1  0
 20 55  1  0
 21 22  2  0
 21 23  1  0
 24 25  1  0
 24 56  1  6
 25 26  1  0
 25 57  1  0
 25 58  1  0
 26 27  1  0
 26 59  1  6
 27 60  1  0
M  CHG  1  23  -1
M  END
>  <i_m_ct_stereo_status>  (18) 
1

>  <s_m_source_file>  (18) 
/var/tmp/pbs.5076255.sched01/tmpc_kifbv4/0gx9_4qhc.sdf

>  <i_m_source_file_index>  (18) 
8

>  <i_lp_mmshare_version>  (18) 
48012

>  <i_f3d_flags>  (18) 
0

>  <s_epik_input>  (18) 
W0NIMl0xW0NIMl1bQ0BASF0oW0NIM10pW0NASF0yW0NAQEhdKFtDQEBdMShbQ0BAXTIzNClbT0hdKVtDQEBdKFtDSDNdKShbQ0hdPVtDSF0zKVtDQEBdNShbQ0gzXSlbQ0BIXShbQ0gyXVtDQEhdNFtPSF0pW0NAXShbQ0gzXSkoQyg9TylbT0hdKVtDSDJdW0NIMl1bQ0gyXTU=

>  <s_epik_cmdline>  (18) 
J2VwaWtfcHl0aG9uJywgJy1waHQnLCAnMi4wJywgJy1waCcsICc3LjAnLCAnLXRuJywgJzgnLCAnLW1hJywgJzIwMCcsICctaW1hZScsICc8aW5maWxlLm1hZT4nLCAnLW9tYWUnLCAnPG91dGZpbGUubWFlPic=

>  <r_epik_Ionization_Penalty>  (18) 
0.00511464

>  <r_epik_Ionization_Penalty_Charging>  (18) 
0.00510932

>  <r_epik_Ionization_Penalty_Neutral>  (18) 
5.3186e-06

>  <r_epik_State_Penalty>  (18) 
0.00371984

>  <r_epik_Charging_Adjusted_Penalty>  (18) 
0.00882916

>  <i_epik_Tot_Q>  (18) 
-1

>  <i_epik_Tot_abs_Q>  (18) 
1

>  <s_lp_Force_Field>  (18) 
OPLS3e

>  <r_lp_Energy>  (18) 
209.1

>  <b_lp_Chiralities_Consistent>  (18) 
1

>  <s_lp_Variant>  (18) 
7:0-1

>  <s_i_glide_gridfile>  (18) 
pfpi4k_grid

>  <i_i_glide_lignum>  (18) 
8

>  <i_i_glide_rotatable_bonds>  (18) 
3

>  <r_i_docking_score>  (18) 
-3.83342

>  <r_i_glide_ligand_efficiency>  (18) 
-0.141979

>  <r_i_glide_ligand_efficiency_sa>  (18) 
-0.425936

>  <r_i_glide_ligand_efficiency_ln>  (18) 
-0.892357

>  <r_i_glide_gscore>  (18) 
-3.83342

>  <r_i_glide_lipo>  (18) 
-0.672751

>  <r_i_glide_hbond>  (18) 
-0.397864

>  <r_i_glide_metal>  (18) 
-0

>  <r_i_glide_rewards>  (18) 
-0.862461

>  <r_i_glide_evdw>  (18) 
-19.2352

>  <r_i_glide_ecoul>  (18) 
-6.2567

>  <r_i_glide_erotb>  (18) 
0

>  <r_i_glide_esite>  (18) 
-7.89317e-05

>  <r_i_glide_emodel>  (18) 
-29.5508

>  <r_i_glide_energy>  (18) 
-25.4919

>  <r_i_glide_einternal>  (18) 
2.26853

>  <r_i_glide_intrahb_reward>  (18) 
-0

>  <i_i_glide_confnum>  (18) 
1

>  <i_i_glide_posenum>  (18) 
9

>  <r_i_glide_eff_state_penalty>  (18) 
0

>  <ligand_id>  (18) 
7

>  <original_smiles>  (18) 
CC1CCC2(O)C3C1C21C=CC3(C)C2(C)CCCC(C)(C(=O)O)C2CC1O

>  <smiles>  (18) 
[H]OC1([H])C([H])([H])C2([H])C(C(=O)[O-])(C([H])([H])[H])C([H])([H])C([H])([H])C([H])([H])C2(C([H])([H])[H])C2(C([H])([H])[H])C([H])=C([H])C13C1([H])C([H])(C([H])([H])[H])C([H])([H])C([H])([H])C3(O[H])C12[H]

$$$$
7:0:1
     RDKit          3D

 60 64  0  0  1  0  0  0  0  0999 V2000
    4.7854   -3.9347   -3.2000 C   0  0  0  0  0  0  0  0  0  0  0  0
    3.9134   -3.2745   -2.1202 C   0  0  2  0  0  0  0  0  0  0  0  0
    3.6031   -1.8337   -2.4689 C   0  0  0  0  0  0  0  0  0  0  0  0
    4.6591   -0.9725   -1.8053 C   0  0  0  0  0  0  0  0  0  0  0  0
    5.1464   -1.5723   -0.4749 C   0  0  2  0  0  0  0  0  0  0  0  0
    5.9440   -0.5248    0.0538 O   0  0  0  0  0  0  0  0  0  0  0  0
    5.8775   -3.0205   -0.3715 C   0  0  2  0  0  0  0  0  0  0  0  0
    4.5203   -3.4035   -0.7053 C   0  0  1  0  0  0  0  0  0  0  0  0
    4.1594   -2.3407    0.4657 C   0  0  1  0  0  0  0  0  0  0  0  0
    4.8500   -2.0668    1.8156 C   0  0  0  0  0  0  0  0  0  0  0  0
    5.9636   -2.7149    2.0397 C   0  0  0  0  0  0  0  0  0  0  0  0
    6.2588   -3.7657    1.0189 C   0  0  2  0  0  0  0  0  0  0  0  0
    7.7891   -4.0174    0.9665 C   0  0  0  0  0  0  0  0  0  0  0  0
    5.3503   -5.0439    1.6256 C   0  0  2  0  0  0  0  0  0  0  0  0
    5.7920   -5.2028    3.1285 C   0  0  0  0  0  0  0  0  0  0  0  0
    5.8308   -6.3333    0.9083 C   0  0  0  0  0  0  0  0  0  0  0  0
    5.2550   -7.6541    1.4578 C   0  0  0  0  0  0  0  0  0  0  0  0
    3.7238   -7.6521    1.4980 C   0  0  0  0  0  0  0  0  0  0  0  0
    3.0372   -6.4277    2.1749 C   0  0  1  0  0  0  0  0  0  0  0  0
    1.5318   -6.5944    1.7944 C   0  0  0  0  0  0  0  0  0  0  0  0
    3.0482   -6.5176    3.7223 C   0  0  0  0  0  0  0  0  0  0  0  0
    2.4627   -5.6146    4.3585 O   0  0  0  0  0  0  0  0  0  0  0  0
    3.6068   -7.5051    4.2543 O   0  0  0  0  0  0  0  0  0  0  0  0
    3.6756   -5.0936    1.5851 C   0  0  1  0  0  0  0  0  0  0  0  0
    2.7743   -3.7953    1.8813 C   0  0  0  0  0  0  0  0  0  0  0  0
    2.7339   -2.6117    0.8121 C   0  0  1  0  0  0  0  0  0  0  0  0
    2.1413   -1.4270    1.3013 O   0  0  0  0  0  0  0  0  0  0  0  0
    5.7471   -3.4398   -3.3663 H   0  0  0  0  0  0  0  0  0  0  0  0
    4.2416   -3.9898   -4.1397 H   0  0  0  0  0  0  0  0  0  0  0  0
    5.0105   -4.9640   -2.9076 H   0  0  0  0  0  0  0  0  0  0  0  0
    2.9680   -3.8153   -2.1288 H   0  0  0  0  0  0  0  0  0  0  0  0
    3.5669   -1.6598   -3.5382 H   0  0  0  0  0  0  0  0  0  0  0  0
    2.6297   -1.5665   -2.0600 H   0  0  0  0  0  0  0  0  0  0  0  0
    5.5032   -0.8588   -2.4850 H   0  0  0  0  0  0  0  0  0  0  0  0
    4.2529    0.0292   -1.6619 H   0  0  0  0  0  0  0  0  0  0  0  0
    6.1474   -0.7999    0.9341 H   0  0  0  0  0  0  0  0  0  0  0  0
    6.5826   -3.2010   -1.1775 H   0  0  0  0  0  0  0  0  0  0  0  0
    4.5798   -4.4559   -0.5747 H   0  0  0  0  0  0  0  0  0  0  0  0
    4.4508   -1.2857    2.4563 H   0  0  0  0  0  0  0  0  0  0  0  0
    6.6046   -2.5492    2.8839 H   0  0  0  0  0  0  0  0  0  0  0  0
    8.0572   -4.6943    0.1698 H   0  0  0  0  0  0  0  0  0  0  0  0
    8.2278   -4.4051    1.8781 H   0  0  0  0  0  0  0  0  0  0  0  0
    8.3062   -3.0808    0.7652 H   0  0  0  0  0  0  0  0  0  0  0  0
    5.6465   -6.1908    3.5497 H   0  0  0  0  0  0  0  0  0  0  0  0
    5.2541   -4.5105    3.7902 H   0  0  0  0  0  0  0  0  0  0  0  0
    6.8636   -5.0662    3.2851 H   0  0  0  0  0  0  0  0  0  0  0  0
    5.5786   -6.2650   -0.1451 H   0  0  0  0  0  0  0  0  0  0  0  0
    6.9183   -6.4275    0.9456 H   0  0  0  0  0  0  0  0  0  0  0  0
    5.5590   -8.4655    0.7919 H   0  0  0  0  0  0  0  0  0  0  0  0
    5.6686   -7.9138    2.4279 H   0  0  0  0  0  0  0  0  0  0  0  0
    3.4075   -7.6672    0.4798 H   0  0  0  0  0  0  0  0  0  0  0  0
    3.3736   -8.5898    1.9450 H   0  0  0  0  0  0  0  0  0  0  0  0
    1.3486   -6.3996    0.7342 H   0  0  0  0  0  0  0  0  0  0  0  0
    0.8632   -5.9485    2.3740 H   0  0  0  0  0  0  0  0  0  0  0  0
    1.1893   -7.6138    1.9950 H   0  0  0  0  0  0  0  0  0  0  0  0
    3.3660   -5.3218    0.5769 H   0  0  0  0  0  0  0  0  0  0  0  0
    1.7323   -4.0737    1.9582 H   0  0  0  0  0  0  0  0  0  0  0  0
    2.9927   -3.4254    2.8869 H   0  0  0  0  0  0  0  0  0  0  0  0
    2.1844   -2.9320   -0.0664 H   0  0  0  0  0  0  0  0  0  0  0  0
    1.6051   -1.0839    0.5851 H   0  0  0  0  0  0  0  0  0  0  0  0
  1  2  1  0
  1 28  1  0
  1 29  1  0
  1 30  1  0
  2  8  1  0
  2  3  1  0
  2 31  1  1
  3  4  1  0
  3 32  1  0
  3 33  1  0
  4  5  1  0
  4 34  1  0
  4 35  1  0
  5  9  1  0
  5  6  1  1
  5  7  1  0
  6 36  1  0
  7 12  1  0
  7  8  1  0
  7 37  1  6
  8  9  1  0
  8 38  1  1
  9 26  1  0
  9 10  1  1
 10 11  2  0
 10 39  1  0
 11 12  1  0
 11 40  1  0
 12 13  1  6
 12 14  1  0
 13 41  1  0
 13 42  1  0
 13 43  1  0
 14 24  1  0
 14 15  1  1
 14 16  1  0
 15 44  1  0
 15 45  1  0
 15 46  1  0
 16 17  1  0
 16 47  1  0
 16 48  1  0
 17 18  1  0
 17 49  1  0
 17 50  1  0
 18 19  1  0
 18 51  1  0
 18 52  1  0
 19 20  1  6
 19 21  1  0
 19 24  1  0
 20 53  1  0
 20 54  1  0
 20 55  1  0
 21 22  2  0
 21 23  1  0
 24 25  1  0
 24 56  1  6
 25 26  1  0
 25 57  1  0
 25 58  1  0
 26 27  1  0
 26 59  1  6
 27 60  1  0
M  CHG  1  23  -1
M  END
>  <i_m_ct_stereo_status>  (19) 
1

>  <s_m_source_file>  (19) 
/var/tmp/pbs.5076255.sched01/tmpc_kifbv4/0gx9_4qhc.sdf

>  <i_m_source_file_index>  (19) 
8

>  <i_lp_mmshare_version>  (19) 
48012

>  <i_f3d_flags>  (19) 
0

>  <s_epik_input>  (19) 
W0NIMl0xW0NIMl1bQ0BASF0oW0NIM10pW0NASF0yW0NAQEhdKFtDQEBdMShbQ0BAXTIzNClbT0hdKVtDQEBdKFtDSDNdKShbQ0hdPVtDSF0zKVtDQEBdNShbQ0gzXSlbQ0BIXShbQ0gyXVtDQEhdNFtPSF0pW0NAXShbQ0gzXSkoQyg9TylbT0hdKVtDSDJdW0NIMl1bQ0gyXTU=

>  <s_epik_cmdline>  (19) 
J2VwaWtfcHl0aG9uJywgJy1waHQnLCAnMi4wJywgJy1waCcsICc3LjAnLCAnLXRuJywgJzgnLCAnLW1hJywgJzIwMCcsICctaW1hZScsICc8aW5maWxlLm1hZT4nLCAnLW9tYWUnLCAnPG91dGZpbGUubWFlPic=

>  <r_epik_Ionization_Penalty>  (19) 
0.00511464

>  <r_epik_Ionization_Penalty_Charging>  (19) 
0.00510932

>  <r_epik_Ionization_Penalty_Neutral>  (19) 
5.3186e-06

>  <r_epik_State_Penalty>  (19) 
0.00371984

>  <r_epik_Charging_Adjusted_Penalty>  (19) 
0.00882916

>  <i_epik_Tot_Q>  (19) 
-1

>  <i_epik_Tot_abs_Q>  (19) 
1

>  <s_lp_Force_Field>  (19) 
OPLS3e

>  <r_lp_Energy>  (19) 
209.1

>  <b_lp_Chiralities_Consistent>  (19) 
1

>  <s_lp_Variant>  (19) 
7:0-1

>  <s_i_glide_gridfile>  (19) 
pfpi4k_grid

>  <i_i_glide_lignum>  (19) 
8

>  <i_i_glide_rotatable_bonds>  (19) 
3

>  <r_i_docking_score>  (19) 
-3.12275

>  <r_i_glide_ligand_efficiency>  (19) 
-0.115658

>  <r_i_glide_ligand_efficiency_sa>  (19) 
-0.346973

>  <r_i_glide_ligand_efficiency_ln>  (19) 
-0.726925

>  <r_i_glide_gscore>  (19) 
-3.12275

>  <r_i_glide_lipo>  (19) 
-0.64175

>  <r_i_glide_hbond>  (19) 
-0.16

>  <r_i_glide_metal>  (19) 
-0

>  <r_i_glide_rewards>  (19) 
-0.862461

>  <r_i_glide_evdw>  (19) 
-19.2832

>  <r_i_glide_ecoul>  (19) 
-3.29536

>  <r_i_glide_erotb>  (19) 
0

>  <r_i_glide_esite>  (19) 
-7.66842e-05

>  <r_i_glide_emodel>  (19) 
-25.8991

>  <r_i_glide_energy>  (19) 
-22.5786

>  <r_i_glide_einternal>  (19) 
1.31237

>  <r_i_glide_intrahb_reward>  (19) 
-0

>  <i_i_glide_confnum>  (19) 
2

>  <i_i_glide_posenum>  (19) 
11

>  <r_i_glide_eff_state_penalty>  (19) 
0

>  <ligand_id>  (19) 
7

>  <original_smiles>  (19) 
CC1CCC2(O)C3C1C21C=CC3(C)C2(C)CCCC(C)(C(=O)O)C2CC1O

>  <smiles>  (19) 
[H]OC1([H])C([H])([H])C2([H])C(C(=O)[O-])(C([H])([H])[H])C([H])([H])C([H])([H])C([H])([H])C2(C([H])([H])[H])C2(C([H])([H])[H])C([H])=C([H])C13C1([H])C([H])(C([H])([H])[H])C([H])([H])C([H])([H])C3(O[H])C12[H]

$$$$
7:0:2
     RDKit          3D

 60 64  0  0  1  0  0  0  0  0999 V2000
    4.4853   -3.7880   -3.4181 C   0  0  0  0  0  0  0  0  0  0  0  0
    3.7538   -3.0776   -2.2627 C   0  0  2  0  0  0  0  0  0  0  0  0
    3.4879   -1.6271   -2.5945 C   0  0  0  0  0  0  0  0  0  0  0  0
    4.6329   -0.8253   -2.0272 C   0  0  0  0  0  0  0  0  0  0  0  0
    5.1875   -1.4292   -0.7149 C   0  0  2  0  0  0  0  0  0  0  0  0
    6.0263   -0.4020   -0.2614 O   0  0  0  0  0  0  0  0  0  0  0  0
    5.8914   -2.8849   -0.6979 C   0  0  2  0  0  0  0  0  0  0  0  0
    4.4855   -3.2314   -0.8966 C   0  0  1  0  0  0  0  0  0  0  0  0
    4.2719   -2.1570    0.3198 C   0  0  1  0  0  0  0  0  0  0  0  0
    5.1046   -1.9188    1.5712 C   0  0  0  0  0  0  0  0  0  0  0  0
    6.2051   -2.6063    1.6860 C   0  0  0  0  0  0  0  0  0  0  0  0
    6.3877   -3.6494    0.6305 C   0  0  2  0  0  0  0  0  0  0  0  0
    7.9068   -3.9104    0.4457 C   0  0  0  0  0  0  0  0  0  0  0  0
    5.5203   -4.8796    1.3417 C   0  0  2  0  0  0  0  0  0  0  0  0
    6.1273   -5.0715    2.7732 C   0  0  0  0  0  0  0  0  0  0  0  0
    5.8739   -6.1842    0.5996 C   0  0  0  0  0  0  0  0  0  0  0  0
    5.3172   -7.4776    1.2270 C   0  0  0  0  0  0  0  0  0  0  0  0
    3.8100   -7.4090    1.4154 C   0  0  0  0  0  0  0  0  0  0  0  0
    3.2368   -6.1736    2.1432 C   0  0  1  0  0  0  0  0  0  0  0  0
    1.6980   -6.2860    1.9210 C   0  0  0  0  0  0  0  0  0  0  0  0
    3.4047   -6.2616    3.6845 C   0  0  0  0  0  0  0  0  0  0  0  0
    2.8689   -5.3600    4.3761 O   0  0  0  0  0  0  0  0  0  0  0  0
    3.9916   -7.2503    4.1660 O   0  0  0  0  0  0  0  0  0  0  0  0
    3.8484   -4.8703    1.4768 C   0  0  1  0  0  0  0  0  0  0  0  0
    3.0296   -3.5519    1.8805 C   0  0  0  0  0  0  0  0  0  0  0  0
    2.8933   -2.3563    0.8429 C   0  0  1  0  0  0  0  0  0  0  0  0
    2.3968   -1.1922    1.5001 O   0  0  0  0  0  0  0  0  0  0  0  0
    5.4418   -3.3306   -3.6820 H   0  0  0  0  0  0  0  0  0  0  0  0
    3.8364   -3.8201   -4.2967 H   0  0  0  0  0  0  0  0  0  0  0  0
    4.6776   -4.8196   -3.1343 H   0  0  0  0  0  0  0  0  0  0  0  0
    2.7854   -3.5717   -2.1788 H   0  0  0  0  0  0  0  0  0  0  0  0
    3.3153   -1.4442   -3.6606 H   0  0  0  0  0  0  0  0  0  0  0  0
    2.6059   -1.3089   -2.0539 H   0  0  0  0  0  0  0  0  0  0  0  0
    5.4189   -0.7400   -2.7676 H   0  0  0  0  0  0  0  0  0  0  0  0
    4.2741    0.1923   -1.9080 H   0  0  0  0  0  0  0  0  0  0  0  0
    5.5236    0.4030   -0.3820 H   0  0  0  0  0  0  0  0  0  0  0  0
    6.4868   -3.0668   -1.5917 H   0  0  0  0  0  0  0  0  0  0  0  0
    4.5496   -4.2896   -0.7886 H   0  0  0  0  0  0  0  0  0  0  0  0
    4.8537   -1.0790    2.2229 H   0  0  0  0  0  0  0  0  0  0  0  0
    6.9160   -2.4523    2.4626 H   0  0  0  0  0  0  0  0  0  0  0  0
    8.0835   -4.6176   -0.3514 H   0  0  0  0  0  0  0  0  0  0  0  0
    8.4361   -4.2955    1.3118 H   0  0  0  0  0  0  0  0  0  0  0  0
    8.4263   -3.0015    0.1604 H   0  0  0  0  0  0  0  0  0  0  0  0
    5.9696   -6.0522    3.2168 H   0  0  0  0  0  0  0  0  0  0  0  0
    5.7191   -4.3387    3.4781 H   0  0  0  0  0  0  0  0  0  0  0  0
    7.2121   -5.0029    2.7582 H   0  0  0  0  0  0  0  0  0  0  0  0
    5.4746   -6.1158   -0.4091 H   0  0  0  0  0  0  0  0  0  0  0  0
    6.9586   -6.2979    0.5034 H   0  0  0  0  0  0  0  0  0  0  0  0
    5.5013   -8.2970    0.5299 H   0  0  0  0  0  0  0  0  0  0  0  0
    5.8331   -7.7598    2.1493 H   0  0  0  0  0  0  0  0  0  0  0  0
    3.4036   -7.3913    0.4194 H   0  0  0  0  0  0  0  0  0  0  0  0
    3.4710   -8.3292    1.8818 H   0  0  0  0  0  0  0  0  0  0  0  0
    1.4242   -6.0937    0.8836 H   0  0  0  0  0  0  0  0  0  0  0  0
    1.1173   -5.6131    2.5556 H   0  0  0  0  0  0  0  0  0  0  0  0
    1.3557   -7.2939    2.1729 H   0  0  0  0  0  0  0  0  0  0  0  0
    3.4313   -5.0801    0.5030 H   0  0  0  0  0  0  0  0  0  0  0  0
    1.9877   -3.7836    2.0478 H   0  0  0  0  0  0  0  0  0  0  0  0
    3.3742   -3.2053    2.8590 H   0  0  0  0  0  0  0  0  0  0  0  0
    2.2439   -2.6714    0.0275 H   0  0  0  0  0  0  0  0  0  0  0  0
    3.1145   -0.7818    1.9620 H   0  0  0  0  0  0  0  0  0  0  0  0
  1  2  1  0
  1 28  1  0
  1 29  1  0
  1 30  1  0
  2  8  1  0
  2  3  1  0
  2 31  1  1
  3  4  1  0
  3 32  1  0
  3 33  1  0
  4  5  1  0
  4 34  1  0
  4 35  1  0
  5  9  1  0
  5  6  1  1
  5  7  1  0
  6 36  1  0
  7 12  1  0
  7  8  1  0
  7 37  1  6
  8  9  1  0
  8 38  1  1
  9 26  1  0
  9 10  1  1
 10 11  2  0
 10 39  1  0
 11 12  1  0
 11 40  1  0
 12 13  1  6
 12 14  1  0
 13 41  1  0
 13 42  1  0
 13 43  1  0
 14 24  1  0
 14 15  1  1
 14 16  1  0
 15 44  1  0
 15 45  1  0
 15 46  1  0
 16 17  1  0
 16 47  1  0
 16 48  1  0
 17 18  1  0
 17 49  1  0
 17 50  1  0
 18 19  1  0
 18 51  1  0
 18 52  1  0
 19 20  1  1
 19 21  1  0
 19 24  1  0
 20 53  1  0
 20 54  1  0
 20 55  1  0
 21 22  2  0
 21 23  1  0
 24 25  1  0
 24 56  1  6
 25 26  1  0
 25 57  1  0
 25 58  1  0
 26 27  1  0
 26 59  1  6
 27 60  1  0
M  CHG  1  23  -1
M  END
>  <i_m_ct_stereo_status>  (20) 
1

>  <s_m_source_file>  (20) 
/var/tmp/pbs.5076255.sched01/tmpc_kifbv4/0gx9_4qhc.sdf

>  <i_m_source_file_index>  (20) 
8

>  <i_lp_mmshare_version>  (20) 
48012

>  <i_f3d_flags>  (20) 
0

>  <s_epik_input>  (20) 
W0NIMl0xW0NIMl1bQ0BASF0oW0NIM10pW0NASF0yW0NAQEhdKFtDQEBdMShbQ0BAXTIzNClbT0hdKVtDQEBdKFtDSDNdKShbQ0hdPVtDSF0zKVtDQEBdNShbQ0gzXSlbQ0BIXShbQ0gyXVtDQEhdNFtPSF0pW0NAXShbQ0gzXSkoQyg9TylbT0hdKVtDSDJdW0NIMl1bQ0gyXTU=

>  <s_epik_cmdline>  (20) 
J2VwaWtfcHl0aG9uJywgJy1waHQnLCAnMi4wJywgJy1waCcsICc3LjAnLCAnLXRuJywgJzgnLCAnLW1hJywgJzIwMCcsICctaW1hZScsICc8aW5maWxlLm1hZT4nLCAnLW9tYWUnLCAnPG91dGZpbGUubWFlPic=

>  <r_epik_Ionization_Penalty>  (20) 
0.00511464

>  <r_epik_Ionization_Penalty_Charging>  (20) 
0.00510932

>  <r_epik_Ionization_Penalty_Neutral>  (20) 
5.3186e-06

>  <r_epik_State_Penalty>  (20) 
0.00371984

>  <r_epik_Charging_Adjusted_Penalty>  (20) 
0.00882916

>  <i_epik_Tot_Q>  (20) 
-1

>  <i_epik_Tot_abs_Q>  (20) 
1

>  <s_lp_Force_Field>  (20) 
OPLS3e

>  <r_lp_Energy>  (20) 
209.1

>  <b_lp_Chiralities_Consistent>  (20) 
1

>  <s_lp_Variant>  (20) 
7:0-1

>  <s_i_glide_gridfile>  (20) 
pfpi4k_grid

>  <i_i_glide_lignum>  (20) 
8

>  <i_i_glide_rotatable_bonds>  (20) 
3

>  <r_i_docking_score>  (20) 
-3.02568

>  <r_i_glide_ligand_efficiency>  (20) 
-0.112062

>  <r_i_glide_ligand_efficiency_sa>  (20) 
-0.336186

>  <r_i_glide_ligand_efficiency_ln>  (20) 
-0.704328

>  <r_i_glide_gscore>  (20) 
-3.02568

>  <r_i_glide_lipo>  (20) 
-0.790961

>  <r_i_glide_hbond>  (20) 
-0.29277

>  <r_i_glide_metal>  (20) 
-0

>  <r_i_glide_rewards>  (20) 
-0.862461

>  <r_i_glide_evdw>  (20) 
-15.5949

>  <r_i_glide_ecoul>  (20) 
-1.99828

>  <r_i_glide_erotb>  (20) 
0

>  <r_i_glide_esite>  (20) 
0

>  <r_i_glide_emodel>  (20) 
-20.9519

>  <r_i_glide_energy>  (20) 
-17.5931

>  <r_i_glide_einternal>  (20) 
1.20925

>  <r_i_glide_intrahb_reward>  (20) 
-0

>  <i_i_glide_confnum>  (20) 
2

>  <i_i_glide_posenum>  (20) 
23

>  <r_i_glide_eff_state_penalty>  (20) 
0

>  <ligand_id>  (20) 
7

>  <original_smiles>  (20) 
CC1CCC2(O)C3C1C21C=CC3(C)C2(C)CCCC(C)(C(=O)O)C2CC1O

>  <smiles>  (20) 
[H]OC1([H])C([H])([H])C2([H])C(C(=O)[O-])(C([H])([H])[H])C([H])([H])C([H])([H])C([H])([H])C2(C([H])([H])[H])C2(C([H])([H])[H])C([H])=C([H])C13C1([H])C([H])(C([H])([H])[H])C([H])([H])C([H])([H])C3(O[H])C12[H]

$$$$
8:0:0
     RDKit          3D

 75 79  0  0  1  0  0  0  0  0999 V2000
    4.2831   -8.9889    0.4810 C   0  0  0  0  0  0  0  0  0  0  0  0
    4.1497   -7.8927    1.5556 C   0  0  0  0  0  0  0  0  0  0  0  0
    5.5638   -7.2638    1.7207 C   0  0  0  0  0  0  0  0  0  0  0  0
    3.5207   -8.3473    2.9204 C   0  0  2  0  0  0  0  0  0  0  0  0
    3.0322   -9.8236    2.9248 C   0  0  0  0  0  0  0  0  0  0  0  0
    1.5255   -9.7613    2.6184 C   0  0  1  0  0  0  0  0  0  0  0  0
    0.8691  -10.8619    3.2200 O   0  0  0  0  0  0  0  0  0  0  0  0
    1.1402   -8.3885    3.1473 C   0  0  0  0  0  0  0  0  0  0  0  0
    2.2203   -7.6052    3.3023 C   0  0  0  0  0  0  0  0  0  0  0  0
    2.1551   -6.1851    3.9087 C   0  0  1  0  0  0  0  0  0  0  0  0
    3.2454   -5.1840    3.4256 C   0  0  0  0  0  0  0  0  0  0  0  0
    2.7800   -4.1872    2.3141 C   0  0  0  0  0  0  0  0  0  0  0  0
    3.9372   -3.5863    1.4873 C   0  0  2  0  0  0  0  0  0  0  0  0
    4.8438   -2.7210    2.3901 C   0  0  0  0  0  0  0  0  0  0  0  0
    6.1984   -2.3556    1.7105 C   0  0  0  0  0  0  0  0  0  0  0  0
    6.1354   -2.3987    0.1455 C   0  0  2  0  0  0  0  0  0  0  0  0
    7.4800   -2.9362   -0.3860 C   0  0  0  0  0  0  0  0  0  0  0  0
    8.1933   -2.2780   -1.1362 O   0  0  0  0  0  0  0  0  0  0  0  0
    5.8220   -0.9981   -0.4177 C   0  0  0  0  0  0  0  0  0  0  0  0
    4.5252   -0.4565    0.1916 C   0  0  0  0  0  0  0  0  0  0  0  0
    3.3187   -1.4082    0.0386 C   0  0  0  0  0  0  0  0  0  0  0  0
    3.5662   -2.9387    0.0934 C   0  0  2  0  0  0  0  0  0  0  0  0
    2.4075   -3.5852   -0.7553 C   0  0  0  0  0  0  0  0  0  0  0  0
    2.0177   -4.9140   -0.5119 O   0  0  0  0  0  0  0  0  0  0  0  0
    5.0060   -3.3525   -0.2954 C   0  0  2  0  0  0  0  0  0  0  0  0
    4.8099   -4.5357    0.6351 C   0  0  0  0  0  0  0  0  0  0  0  0
    0.7242   -5.6086    3.8103 C   0  0  0  0  0  0  0  0  0  0  0  0
   -0.3334   -6.6271    4.2398 C   0  0  0  0  0  0  0  0  0  0  0  0
   -0.3096   -7.9326    3.4022 C   0  0  0  0  0  0  0  0  0  0  0  0
   -0.9745   -7.7065    2.0319 C   0  0  0  0  0  0  0  0  0  0  0  0
   -1.1157   -8.9485    4.2160 C   0  0  0  0  0  0  0  0  0  0  0  0
    5.0332   -9.7305    0.7753 H   0  0  0  0  0  0  0  0  0  0  0  0
    4.6169   -8.5587   -0.4592 H   0  0  0  0  0  0  0  0  0  0  0  0
    3.3546   -9.5190    0.2660 H   0  0  0  0  0  0  0  0  0  0  0  0
    3.4486   -7.1769    1.1224 H   0  0  0  0  0  0  0  0  0  0  0  0
    6.2850   -8.0012    2.0773 H   0  0  0  0  0  0  0  0  0  0  0  0
    5.6175   -6.4371    2.3961 H   0  0  0  0  0  0  0  0  0  0  0  0
    5.9058   -6.8937    0.7477 H   0  0  0  0  0  0  0  0  0  0  0  0
    4.2496   -8.2293    3.7160 H   0  0  0  0  0  0  0  0  0  0  0  0
    3.5597  -10.5355    2.2825 H   0  0  0  0  0  0  0  0  0  0  0  0
    3.1773  -10.2189    3.9326 H   0  0  0  0  0  0  0  0  0  0  0  0
    1.3533   -9.7781    1.5439 H   0  0  0  0  0  0  0  0  0  0  0  0
    1.0950  -10.9018    4.1359 H   0  0  0  0  0  0  0  0  0  0  0  0
    2.3510   -6.3505    4.9684 H   0  0  0  0  0  0  0  0  0  0  0  0
    3.6220   -4.6255    4.3020 H   0  0  0  0  0  0  0  0  0  0  0  0
    4.0200   -5.7665    3.0528 H   0  0  0  0  0  0  0  0  0  0  0  0
    2.1891   -4.7818    1.6514 H   0  0  0  0  0  0  0  0  0  0  0  0
    2.1631   -3.3845    2.7277 H   0  0  0  0  0  0  0  0  0  0  0  0
    4.3108   -1.8234    2.7009 H   0  0  0  0  0  0  0  0  0  0  0  0
    5.0912   -3.2413    3.3143 H   0  0  0  0  0  0  0  0  0  0  0  0
    6.5823   -1.3970    2.0812 H   0  0  0  0  0  0  0  0  0  0  0  0
    6.9195   -3.1059    2.0549 H   0  0  0  0  0  0  0  0  0  0  0  0
    7.7435   -3.9405   -0.0487 H   0  0  0  0  0  0  0  0  0  0  0  0
    6.6125   -0.2879   -0.1958 H   0  0  0  0  0  0  0  0  0  0  0  0
    5.7196   -1.0465   -1.5070 H   0  0  0  0  0  0  0  0  0  0  0  0
    4.6980   -0.1966    1.2351 H   0  0  0  0  0  0  0  0  0  0  0  0
    4.2598    0.4918   -0.2672 H   0  0  0  0  0  0  0  0  0  0  0  0
    2.5762   -1.1199    0.7826 H   0  0  0  0  0  0  0  0  0  0  0  0
    2.9121   -1.1538   -0.9395 H   0  0  0  0  0  0  0  0  0  0  0  0
    1.4978   -3.0461   -0.6168 H   0  0  0  0  0  0  0  0  0  0  0  0
    2.6453   -3.5221   -1.8185 H   0  0  0  0  0  0  0  0  0  0  0  0
    2.6251   -5.4511   -0.9757 H   0  0  0  0  0  0  0  0  0  0  0  0
    5.0929   -3.6373   -1.3509 H   0  0  0  0  0  0  0  0  0  0  0  0
    5.7536   -4.8660    1.0778 H   0  0  0  0  0  0  0  0  0  0  0  0
    4.3141   -5.3596    0.1394 H   0  0  0  0  0  0  0  0  0  0  0  0
    0.6410   -4.6951    4.4139 H   0  0  0  0  0  0  0  0  0  0  0  0
    0.4567   -5.3303    2.7883 H   0  0  0  0  0  0  0  0  0  0  0  0
   -0.1592   -6.8481    5.2978 H   0  0  0  0  0  0  0  0  0  0  0  0
   -1.3303   -6.1729    4.1793 H   0  0  0  0  0  0  0  0  0  0  0  0
   -1.9898   -7.3291    2.1415 H   0  0  0  0  0  0  0  0  0  0  0  0
   -1.0276   -8.6354    1.4610 H   0  0  0  0  0  0  0  0  0  0  0  0
   -0.4046   -6.9975    1.4274 H   0  0  0  0  0  0  0  0  0  0  0  0
   -2.0656   -8.5337    4.5550 H   0  0  0  0  0  0  0  0  0  0  0  0
   -0.5729   -9.2695    5.1079 H   0  0  0  0  0  0  0  0  0  0  0  0
   -1.3555   -9.8293    3.6245 H   0  0  0  0  0  0  0  0  0  0  0  0
  1  2  1  0
  1 32  1  0
  1 33  1  0
  1 34  1  0
  2  3  1  0
  2  4  1  0
  2 35  1  0
  3 36  1  0
  3 37  1  0
  3 38  1  0
  4  9  1  0
  4  5  1  0
  4 39  1  1
  5  6  1  0
  5 40  1  0
  5 41  1  0
  6  7  1  0
  6  8  1  0
  6 42  1  6
  7 43  1  0
  8 29  1  0
  8  9  2  0
  9 10  1  0
 10 11  1  0
 10 27  1  0
 10 44  1  1
 11 12  1  0
 11 45  1  0
 11 46  1  0
 13 12  1  1
 12 47  1  0
 12 48  1  0
 13 22  1  0
 13 26  1  0
 13 14  1  0
 14 15  1  0
 14 49  1  0
 14 50  1  0
 15 16  1  0
 15 51  1  0
 15 52  1  0
 16 25  1  0
 16 17  1  6
 16 19  1  0
 17 18  2  0
 17 53  1  0
 19 20  1  0
 19 54  1  0
 19 55  1  0
 20 21  1  0
 20 56  1  0
 20 57  1  0
 21 22  1  0
 21 58  1  0
 21 59  1  0
 22 23  1  6
 22 25  1  0
 23 24  1  0
 23 60  1  0
 23 61  1  0
 24 62  1  0
 25 26  1  0
 25 63  1  6
 26 64  1  0
 26 65  1  0
 27 28  1  0
 27 66  1  0
 27 67  1  0
 28 29  1  0
 28 68  1  0
 28 69  1  0
 29 30  1  0
 29 31  1  0
 30 70  1  0
 30 71  1  0
 30 72  1  0
 31 73  1  0
 31 74  1  0
 31 75  1  0
M  END
>  <i_m_ct_stereo_status>  (21) 
1

>  <s_m_source_file>  (21) 
/var/tmp/pbs.5076255.sched01/tmpc_kifbv4/0gx9_4qhc.sdf

>  <i_m_source_file_index>  (21) 
9

>  <i_lp_mmshare_version>  (21) 
48012

>  <i_f3d_flags>  (21) 
0

>  <s_epik_input>  (21) 
W09IXVtDQEBIXTFbQ0gyXVtDQEBIXShbQ0hdKFtDSDNdKVtDSDNdKUMoPUMxMilbQ0BIXShbQ0gyXVtDSDJdQzIoW0NIM10pW0NIM10pW0NIMl1bQ0gyXVtDQEBdMzRbQ0BdNShbQ0gyXVtPSF0pW0NASF0oW0NIMl00KVtDQF0oW0NIXT1PKShbQ0gyXVtDSDJdMylbQ0gyXVtDSDJdW0NIMl01

>  <s_epik_cmdline>  (21) 
J2VwaWtfcHl0aG9uJywgJy1waHQnLCAnMi4wJywgJy1waCcsICc3LjAnLCAnLXRuJywgJzgnLCAnLW1hJywgJzIwMCcsICctaW1hZScsICc8aW5maWxlLm1hZT4nLCAnLW9tYWUnLCAnPG91dGZpbGUubWFlPic=

>  <r_lp_tautomer_probability>  (21) 
1

>  <r_epik_Ionization_Penalty>  (21) 
1.73317e-06

>  <r_epik_Ionization_Penalty_Charging>  (21) 
0

>  <r_epik_Ionization_Penalty_Neutral>  (21) 
1.73317e-06

>  <r_epik_State_Penalty>  (21) 
-0

>  <r_epik_Charging_Adjusted_Penalty>  (21) 
0

>  <i_epik_Tot_Q>  (21) 
0

>  <i_epik_Tot_abs_Q>  (21) 
0

>  <s_lp_Force_Field>  (21) 
OPLS3e

>  <r_lp_Energy>  (21) 
55.7842

>  <b_lp_Chiralities_Consistent>  (21) 
1

>  <s_lp_Variant>  (21) 
8:0-1

>  <s_i_glide_gridfile>  (21) 
pfpi4k_grid

>  <i_i_glide_lignum>  (21) 
9

>  <i_i_glide_rotatable_bonds>  (21) 
8

>  <r_i_docking_score>  (21) 
-2.78287

>  <r_i_glide_ligand_efficiency>  (21) 
-0.08977

>  <r_i_glide_ligand_efficiency_sa>  (21) 
-0.282002

>  <r_i_glide_ligand_efficiency_ln>  (21) 
-0.627623

>  <r_i_glide_gscore>  (21) 
-2.78287

>  <r_i_glide_lipo>  (21) 
-0.508176

>  <r_i_glide_hbond>  (21) 
-0.429426

>  <r_i_glide_metal>  (21) 
-0

>  <r_i_glide_rewards>  (21) 
-0.580964

>  <r_i_glide_evdw>  (21) 
-22.2934

>  <r_i_glide_ecoul>  (21) 
-6.61962

>  <r_i_glide_erotb>  (21) 
0.432474

>  <r_i_glide_esite>  (21) 
0

>  <r_i_glide_emodel>  (21) 
-19.9576

>  <r_i_glide_energy>  (21) 
-28.913

>  <r_i_glide_einternal>  (21) 
18.9164

>  <r_i_glide_intrahb_reward>  (21) 
-0

>  <i_i_glide_confnum>  (21) 
3

>  <i_i_glide_posenum>  (21) 
2

>  <r_i_glide_eff_state_penalty>  (21) 
0

>  <ligand_id>  (21) 
8

>  <original_smiles>  (21) 
CC(C)C1CC(O)C2=C1C(CCC13CCC4(C=O)CCCC1(CO)C4C3)CCC2(C)C

>  <smiles>  (21) 
[H]OC([H])([H])C12C([H])([H])C([H])([H])C([H])([H])C3(C([H])=O)C([H])([H])C([H])([H])C1(C([H])([H])C([H])([H])C1([H])C4=C(C([H])(O[H])C([H])([H])C4([H])C([H])(C([H])([H])[H])C([H])([H])[H])C(C([H])([H])[H])(C([H])([H])[H])C([H])([H])C1([H])[H])C([H])([H])C32[H]

$$$$
8:0:1
     RDKit          3D

 75 79  0  0  1  0  0  0  0  0999 V2000
    2.7085   -0.6322    5.7371 C   0  0  0  0  0  0  0  0  0  0  0  0
    3.5711    0.4085    4.9486 C   0  0  0  0  0  0  0  0  0  0  0  0
    4.9961    0.4952    5.5449 C   0  0  0  0  0  0  0  0  0  0  0  0
    2.9000    1.7915    4.7162 C   0  0  2  0  0  0  0  0  0  0  0  0
    2.4943    2.4278    6.0491 C   0  0  0  0  0  0  0  0  0  0  0  0
    1.0034    2.0928    6.2320 C   0  0  1  0  0  0  0  0  0  0  0  0
    0.3861    3.1204    6.9723 O   0  0  0  0  0  0  0  0  0  0  0  0
    0.5320    1.9432    4.8000 C   0  0  0  0  0  0  0  0  0  0  0  0
    1.5574    1.7463    3.9844 C   0  0  0  0  0  0  0  0  0  0  0  0
    1.4095    1.5883    2.4548 C   0  0  1  0  0  0  0  0  0  0  0  0
    2.4375    0.6810    1.7555 C   0  0  0  0  0  0  0  0  0  0  0  0
    2.4341   -0.8245    2.1682 C   0  0  0  0  0  0  0  0  0  0  0  0
    3.6299   -1.6214    1.5864 C   0  0  2  0  0  0  0  0  0  0  0  0
    3.4099   -1.7926    0.0740 C   0  0  0  0  0  0  0  0  0  0  0  0
    4.6818   -2.3011   -0.6535 C   0  0  0  0  0  0  0  0  0  0  0  0
    5.6816   -3.0687    0.2890 C   0  0  2  0  0  0  0  0  0  0  0  0
    7.1440   -2.7689   -0.0936 C   0  0  0  0  0  0  0  0  0  0  0  0
    7.4600   -2.2704   -1.1711 O   0  0  0  0  0  0  0  0  0  0  0  0
    5.4081   -4.5883    0.2560 C   0  0  0  0  0  0  0  0  0  0  0  0
    3.9303   -4.9087    0.5921 C   0  0  0  0  0  0  0  0  0  0  0  0
    3.4446   -4.2902    1.9194 C   0  0  0  0  0  0  0  0  0  0  0  0
    4.0795   -2.9271    2.3381 C   0  0  2  0  0  0  0  0  0  0  0  0
    4.0018   -2.9066    3.8800 C   0  0  0  0  0  0  0  0  0  0  0  0
    4.8363   -3.8749    4.4885 O   0  0  0  0  0  0  0  0  0  0  0  0
    5.4572   -2.5831    1.7371 C   0  0  2  0  0  0  0  0  0  0  0  0
    5.0656   -1.1092    1.8666 C   0  0  0  0  0  0  0  0  0  0  0  0
   -0.0323    1.2005    2.0721 C   0  0  0  0  0  0  0  0  0  0  0  0
   -1.0754    2.0213    2.8312 C   0  0  0  0  0  0  0  0  0  0  0  0
   -0.9529    1.9102    4.3775 C   0  0  0  0  0  0  0  0  0  0  0  0
   -1.5301    0.5602    4.8466 C   0  0  0  0  0  0  0  0  0  0  0  0
   -1.7703    3.0807    4.9612 C   0  0  0  0  0  0  0  0  0  0  0  0
    2.5150   -0.3268    6.7646 H   0  0  0  0  0  0  0  0  0  0  0  0
    3.1873   -1.5919    5.7607 H   0  0  0  0  0  0  0  0  0  0  0  0
    1.7302   -0.7563    5.2758 H   0  0  0  0  0  0  0  0  0  0  0  0
    3.7618    0.0979    3.9709 H   0  0  0  0  0  0  0  0  0  0  0  0
    5.0186    0.8225    6.5861 H   0  0  0  0  0  0  0  0  0  0  0  0
    5.6125    1.1655    4.9548 H   0  0  0  0  0  0  0  0  0  0  0  0
    5.4748   -0.4728    5.5004 H   0  0  0  0  0  0  0  0  0  0  0  0
    3.5787    2.4521    4.1685 H   0  0  0  0  0  0  0  0  0  0  0  0
    3.1086    2.1093    6.9021 H   0  0  0  0  0  0  0  0  0  0  0  0
    2.6190    3.5116    5.9493 H   0  0  0  0  0  0  0  0  0  0  0  0
    0.8524    1.1397    6.7461 H   0  0  0  0  0  0  0  0  0  0  0  0
    0.8360    3.1802    7.8025 H   0  0  0  0  0  0  0  0  0  0  0  0
    1.5614    2.5898    2.0610 H   0  0  0  0  0  0  0  0  0  0  0  0
    2.2335    0.7605    0.6971 H   0  0  0  0  0  0  0  0  0  0  0  0
    3.4232    1.1249    1.8889 H   0  0  0  0  0  0  0  0  0  0  0  0
    2.4098   -0.9202    3.1918 H   0  0  0  0  0  0  0  0  0  0  0  0
    1.4903   -1.2916    1.8319 H   0  0  0  0  0  0  0  0  0  0  0  0
    2.5663   -2.4651   -0.0959 H   0  0  0  0  0  0  0  0  0  0  0  0
    3.1303   -0.8549   -0.4076 H   0  0  0  0  0  0  0  0  0  0  0  0
    4.4161   -2.9000   -1.5253 H   0  0  0  0  0  0  0  0  0  0  0  0
    5.1637   -1.3915   -1.0373 H   0  0  0  0  0  0  0  0  0  0  0  0
    7.8819   -3.0087    0.6769 H   0  0  0  0  0  0  0  0  0  0  0  0
    5.6441   -5.0070   -0.7210 H   0  0  0  0  0  0  0  0  0  0  0  0
    6.0390   -5.0981    0.9836 H   0  0  0  0  0  0  0  0  0  0  0  0
    3.2881   -4.5683   -0.2234 H   0  0  0  0  0  0  0  0  0  0  0  0
    3.7877   -5.9951    0.6335 H   0  0  0  0  0  0  0  0  0  0  0  0
    2.3582   -4.1988    1.9093 H   0  0  0  0  0  0  0  0  0  0  0  0
    3.6416   -5.0466    2.6841 H   0  0  0  0  0  0  0  0  0  0  0  0
    4.3088   -1.9620    4.2845 H   0  0  0  0  0  0  0  0  0  0  0  0
    2.9770   -3.0604    4.1920 H   0  0  0  0  0  0  0  0  0  0  0  0
    5.7364   -3.6560    4.2941 H   0  0  0  0  0  0  0  0  0  0  0  0
    6.2612   -2.8665    2.4050 H   0  0  0  0  0  0  0  0  0  0  0  0
    5.4978   -0.4513    1.1084 H   0  0  0  0  0  0  0  0  0  0  0  0
    5.3339   -0.7269    2.8576 H   0  0  0  0  0  0  0  0  0  0  0  0
   -0.1691    1.3482    0.9943 H   0  0  0  0  0  0  0  0  0  0  0  0
   -0.2073    0.1427    2.2602 H   0  0  0  0  0  0  0  0  0  0  0  0
   -0.9650    3.0621    2.5236 H   0  0  0  0  0  0  0  0  0  0  0  0
   -2.0830    1.7373    2.5027 H   0  0  0  0  0  0  0  0  0  0  0  0
   -2.5413    0.4353    4.4991 H   0  0  0  0  0  0  0  0  0  0  0  0
   -1.5253    0.4741    5.9419 H   0  0  0  0  0  0  0  0  0  0  0  0
   -0.9669   -0.2848    4.4386 H   0  0  0  0  0  0  0  0  0  0  0  0
   -2.7591    3.1611    4.4952 H   0  0  0  0  0  0  0  0  0  0  0  0
   -1.2601    4.0275    4.7985 H   0  0  0  0  0  0  0  0  0  0  0  0
   -1.9440    2.9740    6.0336 H   0  0  0  0  0  0  0  0  0  0  0  0
  1  2  1  0
  1 32  1  0
  1 33  1  0
  1 34  1  0
  2  3  1  0
  2  4  1  0
  2 35  1  0
  3 36  1  0
  3 37  1  0
  3 38  1  0
  4  9  1  0
  4  5  1  0
  4 39  1  6
  5  6  1  0
  5 40  1  0
  5 41  1  0
  6  7  1  0
  6  8  1  0
  6 42  1  1
  7 43  1  0
  8 29  1  0
  8  9  2  0
  9 10  1  0
 10 11  1  0
 10 27  1  0
 10 44  1  6
 11 12  1  0
 11 45  1  0
 11 46  1  0
 13 12  1  1
 12 47  1  0
 12 48  1  0
 13 22  1  0
 13 26  1  0
 13 14  1  0
 14 15  1  0
 14 49  1  0
 14 50  1  0
 15 16  1  0
 15 51  1  0
 15 52  1  0
 16 25  1  0
 16 17  1  6
 16 19  1  0
 17 18  2  0
 17 53  1  0
 19 20  1  0
 19 54  1  0
 19 55  1  0
 20 21  1  0
 20 56  1  0
 20 57  1  0
 21 22  1  0
 21 58  1  0
 21 59  1  0
 22 23  1  1
 22 25  1  0
 23 24  1  0
 23 60  1  0
 23 61  1  0
 24 62  1  0
 25 26  1  0
 25 63  1  1
 26 64  1  0
 26 65  1  0
 27 28  1  0
 27 66  1  0
 27 67  1  0
 28 29  1  0
 28 68  1  0
 28 69  1  0
 29 30  1  0
 29 31  1  0
 30 70  1  0
 30 71  1  0
 30 72  1  0
 31 73  1  0
 31 74  1  0
 31 75  1  0
M  END
>  <i_m_ct_stereo_status>  (22) 
1

>  <s_m_source_file>  (22) 
/var/tmp/pbs.5076255.sched01/tmpc_kifbv4/0gx9_4qhc.sdf

>  <i_m_source_file_index>  (22) 
9

>  <i_lp_mmshare_version>  (22) 
48012

>  <i_f3d_flags>  (22) 
0

>  <s_epik_input>  (22) 
W09IXVtDQEBIXTFbQ0gyXVtDQEBIXShbQ0hdKFtDSDNdKVtDSDNdKUMoPUMxMilbQ0BIXShbQ0gyXVtDSDJdQzIoW0NIM10pW0NIM10pW0NIMl1bQ0gyXVtDQEBdMzRbQ0BdNShbQ0gyXVtPSF0pW0NASF0oW0NIMl00KVtDQF0oW0NIXT1PKShbQ0gyXVtDSDJdMylbQ0gyXVtDSDJdW0NIMl01

>  <s_epik_cmdline>  (22) 
J2VwaWtfcHl0aG9uJywgJy1waHQnLCAnMi4wJywgJy1waCcsICc3LjAnLCAnLXRuJywgJzgnLCAnLW1hJywgJzIwMCcsICctaW1hZScsICc8aW5maWxlLm1hZT4nLCAnLW9tYWUnLCAnPG91dGZpbGUubWFlPic=

>  <r_lp_tautomer_probability>  (22) 
1

>  <r_epik_Ionization_Penalty>  (22) 
1.73317e-06

>  <r_epik_Ionization_Penalty_Charging>  (22) 
0

>  <r_epik_Ionization_Penalty_Neutral>  (22) 
1.73317e-06

>  <r_epik_State_Penalty>  (22) 
-0

>  <r_epik_Charging_Adjusted_Penalty>  (22) 
0

>  <i_epik_Tot_Q>  (22) 
0

>  <i_epik_Tot_abs_Q>  (22) 
0

>  <s_lp_Force_Field>  (22) 
OPLS3e

>  <r_lp_Energy>  (22) 
55.7842

>  <b_lp_Chiralities_Consistent>  (22) 
1

>  <s_lp_Variant>  (22) 
8:0-1

>  <s_i_glide_gridfile>  (22) 
pfpi4k_grid

>  <i_i_glide_lignum>  (22) 
9

>  <i_i_glide_rotatable_bonds>  (22) 
8

>  <r_i_docking_score>  (22) 
-2.30197

>  <r_i_glide_ligand_efficiency>  (22) 
-0.0742571

>  <r_i_glide_ligand_efficiency_sa>  (22) 
-0.23327

>  <r_i_glide_ligand_efficiency_ln>  (22) 
-0.519164

>  <r_i_glide_gscore>  (22) 
-2.30197

>  <r_i_glide_lipo>  (22) 
-0.344029

>  <r_i_glide_hbond>  (22) 
-0.16

>  <r_i_glide_metal>  (22) 
-0

>  <r_i_glide_rewards>  (22) 
-0.568366

>  <r_i_glide_evdw>  (22) 
-24.1164

>  <r_i_glide_ecoul>  (22) 
-3.04154

>  <r_i_glide_erotb>  (22) 
0.432474

>  <r_i_glide_esite>  (22) 
0

>  <r_i_glide_emodel>  (22) 
-26.3141

>  <r_i_glide_energy>  (22) 
-27.1579

>  <r_i_glide_einternal>  (22) 
3.96363

>  <r_i_glide_intrahb_reward>  (22) 
-0

>  <i_i_glide_confnum>  (22) 
3

>  <i_i_glide_posenum>  (22) 
3

>  <r_i_glide_eff_state_penalty>  (22) 
0

>  <ligand_id>  (22) 
8

>  <original_smiles>  (22) 
CC(C)C1CC(O)C2=C1C(CCC13CCC4(C=O)CCCC1(CO)C4C3)CCC2(C)C

>  <smiles>  (22) 
[H]OC([H])([H])C12C([H])([H])C([H])([H])C([H])([H])C3(C([H])=O)C([H])([H])C([H])([H])C1(C([H])([H])C([H])([H])C1([H])C4=C(C([H])(O[H])C([H])([H])C4([H])C([H])(C([H])([H])[H])C([H])([H])[H])C(C([H])([H])[H])(C([H])([H])[H])C([H])([H])C1([H])[H])C([H])([H])C32[H]

$$$$
9:0:0
     RDKit          3D

 59 64  0  0  1  0  0  0  0  0999 V2000
    0.7070   -8.8066    6.6124 C   0  0  0  0  0  0  0  0  0  0  0  0
    0.6825   -8.0725    5.2462 C   0  0  1  0  0  0  0  0  0  0  0  0
    0.6860   -6.5529    5.5668 C   0  0  0  0  0  0  0  0  0  0  0  0
    1.1578   -5.5984    4.4602 C   0  0  0  0  0  0  0  0  0  0  0  0
    2.5016   -6.0716    3.8522 C   0  0  1  0  0  0  0  0  0  0  0  0
    2.3048   -7.4825    3.2544 C   0  0  2  0  0  0  0  0  0  0  0  0
    1.5913   -7.4445    1.8632 C   0  0  1  0  0  0  0  0  0  0  0  0
    0.2293   -7.0603    1.8750 O   0  0  0  0  0  0  0  0  0  0  0  0
    2.3114   -6.4809    0.9156 C   0  0  0  0  0  0  0  0  0  0  0  0
    2.5664   -5.0764    1.4866 C   0  0  2  0  0  0  0  0  0  0  0  0
    3.3515   -4.2792    0.4538 C   0  0  0  0  0  0  0  0  0  0  0  0
    2.6273   -3.8355   -0.5969 N   0  0  0  0  0  0  0  0  0  0  0  0
    3.2236   -3.1456   -1.5902 C   0  0  0  0  0  0  0  0  0  0  0  0
    2.5092   -2.7040   -2.6551 N   0  0  0  0  0  0  0  0  0  0  0  0
    3.1115   -1.9740   -3.6103 C   0  0  0  0  0  0  0  0  0  0  0  0
    4.4833   -1.6758   -3.6009 C   0  0  0  0  0  0  0  0  0  0  0  0
    5.2507   -2.1659   -2.5334 C   0  0  0  0  0  0  0  0  0  0  0  0
    4.6292   -2.8792   -1.5171 C   0  0  0  0  0  0  0  0  0  0  0  0
    5.3829   -3.3393   -0.4220 C   0  0  0  0  0  0  0  0  0  0  0  0
    4.7466   -4.0609    0.5868 C   0  0  0  0  0  0  0  0  0  0  0  0
    5.5323   -4.5275    1.8016 C   0  0  0  0  0  0  0  0  0  0  0  0
    4.7323   -5.4664    2.7204 C   0  0  0  0  0  0  0  0  0  0  0  0
    3.2344   -5.0748    2.8848 C   0  0  2  0  0  0  0  0  0  0  0  0
    3.1710   -3.6466    3.4773 C   0  0  0  0  0  0  0  0  0  0  0  0
    1.8616   -8.5128    4.3471 C   0  0  2  0  0  0  0  0  0  0  0  0
    1.4287   -9.8744    3.7534 C   0  0  0  0  0  0  0  0  0  0  0  0
   -0.0910   -9.8061    3.5769 C   0  0  0  0  0  0  0  0  0  0  0  0
   -0.5017   -8.6112    4.4292 C   0  0  0  0  0  0  0  0  0  0  0  0
   -1.6180   -8.0971    4.3720 O   0  0  0  0  0  0  0  0  0  0  0  0
    1.6485   -8.6224    7.1286 H   0  0  0  0  0  0  0  0  0  0  0  0
    0.5977   -9.8868    6.5030 H   0  0  0  0  0  0  0  0  0  0  0  0
   -0.0974   -8.4643    7.2699 H   0  0  0  0  0  0  0  0  0  0  0  0
   -0.3260   -6.2356    5.8198 H   0  0  0  0  0  0  0  0  0  0  0  0
    1.2957   -6.3694    6.4582 H   0  0  0  0  0  0  0  0  0  0  0  0
    0.3832   -5.4582    3.7181 H   0  0  0  0  0  0  0  0  0  0  0  0
    1.2714   -4.6290    4.9332 H   0  0  0  0  0  0  0  0  0  0  0  0
    3.1614   -6.1772    4.7067 H   0  0  0  0  0  0  0  0  0  0  0  0
    3.2945   -7.8623    3.0161 H   0  0  0  0  0  0  0  0  0  0  0  0
    1.6249   -8.4350    1.4139 H   0  0  0  0  0  0  0  0  0  0  0  0
   -0.2614   -7.7855    2.2445 H   0  0  0  0  0  0  0  0  0  0  0  0
    3.2630   -6.9225    0.6296 H   0  0  0  0  0  0  0  0  0  0  0  0
    1.7312   -6.3701   -0.0007 H   0  0  0  0  0  0  0  0  0  0  0  0
    1.6041   -4.5867    1.5955 H   0  0  0  0  0  0  0  0  0  0  0  0
    2.4925   -1.5861   -4.4121 H   0  0  0  0  0  0  0  0  0  0  0  0
    4.9370   -1.0795   -4.3810 H   0  0  0  0  0  0  0  0  0  0  0  0
    6.3106   -2.0202   -2.4396 H   0  0  0  0  0  0  0  0  0  0  0  0
    6.4407   -3.1153   -0.3843 H   0  0  0  0  0  0  0  0  0  0  0  0
    6.4657   -5.0013    1.4763 H   0  0  0  0  0  0  0  0  0  0  0  0
    5.8189   -3.6278    2.3600 H   0  0  0  0  0  0  0  0  0  0  0  0
    4.7774   -6.4421    2.2333 H   0  0  0  0  0  0  0  0  0  0  0  0
    5.2245   -5.5912    3.6858 H   0  0  0  0  0  0  0  0  0  0  0  0
    3.7340   -2.9343    2.8811 H   0  0  0  0  0  0  0  0  0  0  0  0
    3.5815   -3.6439    4.4861 H   0  0  0  0  0  0  0  0  0  0  0  0
    2.1482   -3.2650    3.5001 H   0  0  0  0  0  0  0  0  0  0  0  0
    2.7176   -8.6776    5.0001 H   0  0  0  0  0  0  0  0  0  0  0  0
    1.9548  -10.1395    2.8382 H   0  0  0  0  0  0  0  0  0  0  0  0
    1.6461  -10.6580    4.4813 H   0  0  0  0  0  0  0  0  0  0  0  0
   -0.3989   -9.6444    2.5432 H   0  0  0  0  0  0  0  0  0  0  0  0
   -0.5577  -10.7204    3.9257 H   0  0  0  0  0  0  0  0  0  0  0  0
  2  1  1  1
  1 30  1  0
  1 31  1  0
  1 32  1  0
  2 25  1  0
  2 28  1  0
  2  3  1  0
  3  4  1  0
  3 33  1  0
  3 34  1  0
  4  5  1  0
  4 35  1  0
  4 36  1  0
  5 23  1  0
  5  6  1  0
  5 37  1  1
  6  7  1  0
  6 25  1  0
  6 38  1  6
  7  8  1  0
  7  9  1  0
  7 39  1  6
  8 40  1  0
  9 10  1  0
  9 41  1  0
  9 42  1  0
 10 23  1  0
 10 11  1  0
 10 43  1  1
 11 20  2  0
 11 12  1  0
 12 13  2  0
 13 18  1  0
 13 14  1  0
 14 15  2  0
 15 16  1  0
 15 44  1  0
 16 17  2  0
 16 45  1  0
 17 18  1  0
 17 46  1  0
 18 19  2  0
 19 20  1  0
 19 47  1  0
 20 21  1  0
 21 22  1  0
 21 48  1  0
 21 49  1  0
 22 23  1  0
 22 50  1  0
 22 51  1  0
 23 24  1  1
 24 52  1  0
 24 53  1  0
 24 54  1  0
 25 26  1  0
 25 55  1  1
 26 27  1  0
 26 56  1  0
 26 57  1  0
 27 28  1  0
 27 58  1  0
 27 59  1  0
 28 29  2  0
M  END
>  <i_m_ct_stereo_status>  (23) 
1

>  <s_m_source_file>  (23) 
/var/tmp/pbs.5076255.sched01/tmpc_kifbv4/0gx9_4qhc.sdf

>  <i_m_source_file_index>  (23) 
10

>  <i_lp_mmshare_version>  (23) 
48012

>  <i_f3d_flags>  (23) 
0

>  <s_epik_input>  (23) 
Tz1DMVtDSDJdW0NIMl1bQ0BIXShbQ0BdMTJbQ0gzXSlbQ0BASF0zW0NASF0oW0NIMl1bQ0gyXTIpW0NAXTQoW0NIM10pW0NASF0oW0NIMl1bQ0BASF0zW09IXSljNWMoW0NIMl1bQ0gyXTQpW2NIXWM2YyhuNSluW2NIXVtjSF1bY0hdNg==

>  <s_epik_cmdline>  (23) 
J2VwaWtfcHl0aG9uJywgJy1waHQnLCAnMi4wJywgJy1waCcsICc3LjAnLCAnLXRuJywgJzgnLCAnLW1hJywgJzIwMCcsICctaW1hZScsICc8aW5maWxlLm1hZT4nLCAnLW9tYWUnLCAnPG91dGZpbGUubWFlPic=

>  <r_lp_tautomer_probability>  (23) 
1

>  <r_epik_Ionization_Penalty>  (23) 
0.000276961

>  <r_epik_Ionization_Penalty_Charging>  (23) 
0

>  <r_epik_Ionization_Penalty_Neutral>  (23) 
0.000276961

>  <r_epik_State_Penalty>  (23) 
-0

>  <r_epik_Charging_Adjusted_Penalty>  (23) 
0

>  <i_epik_Tot_Q>  (23) 
0

>  <i_epik_Tot_abs_Q>  (23) 
0

>  <s_lp_Force_Field>  (23) 
OPLS3e

>  <r_lp_Energy>  (23) 
54.4254

>  <b_lp_Chiralities_Consistent>  (23) 
1

>  <s_lp_Variant>  (23) 
9:0-1

>  <s_i_glide_gridfile>  (23) 
pfpi4k_grid

>  <i_i_glide_lignum>  (23) 
10

>  <i_i_glide_rotatable_bonds>  (23) 
1

>  <r_i_docking_score>  (23) 
-3.10067

>  <r_i_glide_ligand_efficiency>  (23) 
-0.10692

>  <r_i_glide_ligand_efficiency_sa>  (23) 
-0.328491

>  <r_i_glide_ligand_efficiency_ln>  (23) 
-0.709974

>  <r_i_glide_gscore>  (23) 
-3.10067

>  <r_i_glide_lipo>  (23) 
-0.586205

>  <r_i_glide_hbond>  (23) 
0

>  <r_i_glide_metal>  (23) 
-0

>  <r_i_glide_rewards>  (23) 
-0.803031

>  <r_i_glide_evdw>  (23) 
-30.7028

>  <r_i_glide_ecoul>  (23) 
-0.668788

>  <r_i_glide_erotb>  (23) 
0

>  <r_i_glide_esite>  (23) 
-0.0759735

>  <r_i_glide_emodel>  (23) 
-37.1428

>  <r_i_glide_energy>  (23) 
-31.3716

>  <r_i_glide_einternal>  (23) 
0.486397

>  <r_i_glide_intrahb_reward>  (23) 
-0

>  <i_i_glide_confnum>  (23) 
1

>  <i_i_glide_posenum>  (23) 
16

>  <r_i_glide_eff_state_penalty>  (23) 
0

>  <ligand_id>  (23) 
9

>  <original_smiles>  (23) 
CC12CCC3C(C(O)CC4c5nc6ncccc6cc5CCC43C)C1CCC2=O

>  <smiles>  (23) 
[H]OC1([H])C([H])([H])C2([H])c3nc4nc([H])c([H])c([H])c4c([H])c3C([H])([H])C([H])([H])C2(C([H])([H])[H])C2([H])C([H])([H])C([H])([H])C3(C([H])([H])[H])C(=O)C([H])([H])C([H])([H])C3([H])C12[H]

$$$$
9:0:1
     RDKit          3D

 59 64  0  0  1  0  0  0  0  0999 V2000
    0.2213   -9.4552    6.4976 C   0  0  0  0  0  0  0  0  0  0  0  0
    0.6951   -8.5973    5.2977 C   0  0  1  0  0  0  0  0  0  0  0  0
    1.0761   -7.2028    5.8612 C   0  0  0  0  0  0  0  0  0  0  0  0
    2.0679   -6.3491    5.0516 C   0  0  0  0  0  0  0  0  0  0  0  0
    3.3119   -7.1704    4.6175 C   0  0  1  0  0  0  0  0  0  0  0  0
    2.8452   -8.3666    3.7554 C   0  0  2  0  0  0  0  0  0  0  0  0
    2.5084   -7.9465    2.2873 C   0  0  1  0  0  0  0  0  0  0  0  0
    1.3419   -7.1588    2.1365 O   0  0  0  0  0  0  0  0  0  0  0  0
    3.6807   -7.1785    1.6527 C   0  0  0  0  0  0  0  0  0  0  0  0
    4.2024   -5.9880    2.4947 C   0  0  2  0  0  0  0  0  0  0  0  0
    5.4235   -5.3854    1.7995 C   0  0  0  0  0  0  0  0  0  0  0  0
    5.1438   -4.5953    0.7501 N   0  0  0  0  0  0  0  0  0  0  0  0
    6.1352   -4.0145    0.0489 C   0  0  0  0  0  0  0  0  0  0  0  0
    5.8321   -3.2301   -1.0058 N   0  0  0  0  0  0  0  0  0  0  0  0
    6.8110   -2.6785   -1.7370 C   0  0  0  0  0  0  0  0  0  0  0  0
    8.1740   -2.8382   -1.4489 C   0  0  0  0  0  0  0  0  0  0  0  0
    8.5233   -3.6305   -0.3459 C   0  0  0  0  0  0  0  0  0  0  0  0
    7.4975   -4.2338    0.4028 C   0  0  0  0  0  0  0  0  0  0  0  0
    7.8006   -5.0695    1.4952 C   0  0  0  0  0  0  0  0  0  0  0  0
    6.7483   -5.6498    2.2184 C   0  0  0  0  0  0  0  0  0  0  0  0
    7.0454   -6.4802    3.4546 C   0  0  0  0  0  0  0  0  0  0  0  0
    5.8075   -7.2101    4.0135 C   0  0  0  0  0  0  0  0  0  0  0  0
    4.4992   -6.3634    3.9748 C   0  0  2  0  0  0  0  0  0  0  0  0
    4.7418   -5.0723    4.8083 C   0  0  0  0  0  0  0  0  0  0  0  0
    1.8604   -9.2944    4.5516 C   0  0  2  0  0  0  0  0  0  0  0  0
    1.1761  -10.3646    3.6697 C   0  0  0  0  0  0  0  0  0  0  0  0
   -0.1821   -9.7756    3.2500 C   0  0  0  0  0  0  0  0  0  0  0  0
   -0.4088   -8.6400    4.2400 C   0  0  0  0  0  0  0  0  0  0  0  0
   -1.3490   -7.8490    4.1733 O   0  0  0  0  0  0  0  0  0  0  0  0
    1.0362   -9.6426    7.1983 H   0  0  0  0  0  0  0  0  0  0  0  0
   -0.1660  -10.4273    6.1840 H   0  0  0  0  0  0  0  0  0  0  0  0
   -0.5770   -8.9595    7.0507 H   0  0  0  0  0  0  0  0  0  0  0  0
    0.1805   -6.6099    6.0302 H   0  0  0  0  0  0  0  0  0  0  0  0
    1.5214   -7.3394    6.8515 H   0  0  0  0  0  0  0  0  0  0  0  0
    1.5749   -5.8658    4.2135 H   0  0  0  0  0  0  0  0  0  0  0  0
    2.3578   -5.5313    5.7109 H   0  0  0  0  0  0  0  0  0  0  0  0
    3.6986   -7.5822    5.5486 H   0  0  0  0  0  0  0  0  0  0  0  0
    3.7119   -9.0163    3.6395 H   0  0  0  0  0  0  0  0  0  0  0  0
    2.3427   -8.8429    1.6879 H   0  0  0  0  0  0  0  0  0  0  0  0
    0.6029   -7.6866    2.4040 H   0  0  0  0  0  0  0  0  0  0  0  0
    4.4935   -7.8808    1.4802 H   0  0  0  0  0  0  0  0  0  0  0  0
    3.3909   -6.8264    0.6614 H   0  0  0  0  0  0  0  0  0  0  0  0
    3.4235   -5.2242    2.4998 H   0  0  0  0  0  0  0  0  0  0  0  0
    6.4703   -2.1076   -2.5863 H   0  0  0  0  0  0  0  0  0  0  0  0
    8.9513   -2.4056   -2.0655 H   0  0  0  0  0  0  0  0  0  0  0  0
    9.5605   -3.7865   -0.1071 H   0  0  0  0  0  0  0  0  0  0  0  0
    8.8286   -5.2360    1.7812 H   0  0  0  0  0  0  0  0  0  0  0  0
    7.8482   -7.1904    3.2370 H   0  0  0  0  0  0  0  0  0  0  0  0
    7.4431   -5.8040    4.2183 H   0  0  0  0  0  0  0  0  0  0  0  0
    5.6799   -8.0933    3.3893 H   0  0  0  0  0  0  0  0  0  0  0  0
    6.0171   -7.5905    5.0174 H   0  0  0  0  0  0  0  0  0  0  0  0
    5.6139   -4.5118    4.4723 H   0  0  0  0  0  0  0  0  0  0  0  0
    4.8940   -5.3100    5.8654 H   0  0  0  0  0  0  0  0  0  0  0  0
    3.9049   -4.3744    4.7257 H   0  0  0  0  0  0  0  0  0  0  0  0
    2.4670   -9.8118    5.2991 H   0  0  0  0  0  0  0  0  0  0  0  0
    1.7883  -10.6820    2.8240 H   0  0  0  0  0  0  0  0  0  0  0  0
    1.0052  -11.2646    4.2676 H   0  0  0  0  0  0  0  0  0  0  0  0
   -0.1592   -9.4003    2.2286 H   0  0  0  0  0  0  0  0  0  0  0  0
   -0.9711  -10.5176    3.3080 H   0  0  0  0  0  0  0  0  0  0  0  0
  2  1  1  1
  1 30  1  0
  1 31  1  0
  1 32  1  0
  2 25  1  0
  2 28  1  0
  2  3  1  0
  3  4  1  0
  3 33  1  0
  3 34  1  0
  4  5  1  0
  4 35  1  0
  4 36  1  0
  5 23  1  0
  5  6  1  0
  5 37  1  1
  6  7  1  0
  6 25  1  0
  6 38  1  6
  7  8  1  0
  7  9  1  0
  7 39  1  6
  8 40  1  0
  9 10  1  0
  9 41  1  0
  9 42  1  0
 10 23  1  0
 10 11  1  0
 10 43  1  1
 11 20  2  0
 11 12  1  0
 12 13  2  0
 13 18  1  0
 13 14  1  0
 14 15  2  0
 15 16  1  0
 15 44  1  0
 16 17  2  0
 16 45  1  0
 17 18  1  0
 17 46  1  0
 18 19  2  0
 19 20  1  0
 19 47  1  0
 20 21  1  0
 21 22  1  0
 21 48  1  0
 21 49  1  0
 22 23  1  0
 22 50  1  0
 22 51  1  0
 23 24  1  1
 24 52  1  0
 24 53  1  0
 24 54  1  0
 25 26  1  0
 25 55  1  1
 26 27  1  0
 26 56  1  0
 26 57  1  0
 27 28  1  0
 27 58  1  0
 27 59  1  0
 28 29  2  0
M  END
>  <i_m_ct_stereo_status>  (24) 
1

>  <s_m_source_file>  (24) 
/var/tmp/pbs.5076255.sched01/tmpc_kifbv4/0gx9_4qhc.sdf

>  <i_m_source_file_index>  (24) 
10

>  <i_lp_mmshare_version>  (24) 
48012

>  <i_f3d_flags>  (24) 
0

>  <s_epik_input>  (24) 
Tz1DMVtDSDJdW0NIMl1bQ0BIXShbQ0BdMTJbQ0gzXSlbQ0BASF0zW0NASF0oW0NIMl1bQ0gyXTIpW0NAXTQoW0NIM10pW0NASF0oW0NIMl1bQ0BASF0zW09IXSljNWMoW0NIMl1bQ0gyXTQpW2NIXWM2YyhuNSluW2NIXVtjSF1bY0hdNg==

>  <s_epik_cmdline>  (24) 
J2VwaWtfcHl0aG9uJywgJy1waHQnLCAnMi4wJywgJy1waCcsICc3LjAnLCAnLXRuJywgJzgnLCAnLW1hJywgJzIwMCcsICctaW1hZScsICc8aW5maWxlLm1hZT4nLCAnLW9tYWUnLCAnPG91dGZpbGUubWFlPic=

>  <r_lp_tautomer_probability>  (24) 
1

>  <r_epik_Ionization_Penalty>  (24) 
0.000276961

>  <r_epik_Ionization_Penalty_Charging>  (24) 
0

>  <r_epik_Ionization_Penalty_Neutral>  (24) 
0.000276961

>  <r_epik_State_Penalty>  (24) 
-0

>  <r_epik_Charging_Adjusted_Penalty>  (24) 
0

>  <i_epik_Tot_Q>  (24) 
0

>  <i_epik_Tot_abs_Q>  (24) 
0

>  <s_lp_Force_Field>  (24) 
OPLS3e

>  <r_lp_Energy>  (24) 
54.4254

>  <b_lp_Chiralities_Consistent>  (24) 
1

>  <s_lp_Variant>  (24) 
9:0-1

>  <s_i_glide_gridfile>  (24) 
pfpi4k_grid

>  <i_i_glide_lignum>  (24) 
10

>  <i_i_glide_rotatable_bonds>  (24) 
1

>  <r_i_docking_score>  (24) 
-3.04999

>  <r_i_glide_ligand_efficiency>  (24) 
-0.105172

>  <r_i_glide_ligand_efficiency_sa>  (24) 
-0.323122

>  <r_i_glide_ligand_efficiency_ln>  (24) 
-0.69837

>  <r_i_glide_gscore>  (24) 
-3.04999

>  <r_i_glide_lipo>  (24) 
-0.51146

>  <r_i_glide_hbond>  (24) 
0

>  <r_i_glide_metal>  (24) 
-0

>  <r_i_glide_rewards>  (24) 
-0.844276

>  <r_i_glide_evdw>  (24) 
-29.2955

>  <r_i_glide_ecoul>  (24) 
-1.07111

>  <r_i_glide_erotb>  (24) 
0

>  <r_i_glide_esite>  (24) 
-0.0688127

>  <r_i_glide_emodel>  (24) 
-36.2643

>  <r_i_glide_energy>  (24) 
-30.3666

>  <r_i_glide_einternal>  (24) 
0.353699

>  <r_i_glide_intrahb_reward>  (24) 
-0

>  <i_i_glide_confnum>  (24) 
1

>  <i_i_glide_posenum>  (24) 
2

>  <r_i_glide_eff_state_penalty>  (24) 
0

>  <ligand_id>  (24) 
9

>  <original_smiles>  (24) 
CC12CCC3C(C(O)CC4c5nc6ncccc6cc5CCC43C)C1CCC2=O

>  <smiles>  (24) 
[H]OC1([H])C([H])([H])C2([H])c3nc4nc([H])c([H])c([H])c4c([H])c3C([H])([H])C([H])([H])C2(C([H])([H])[H])C2([H])C([H])([H])C([H])([H])C3(C([H])([H])[H])C(=O)C([H])([H])C([H])([H])C3([H])C12[H]

$$$$
9:0:2
     RDKit          3D

 59 64  0  0  1  0  0  0  0  0999 V2000
    2.4385    2.9357    4.2123 C   0  0  0  0  0  0  0  0  0  0  0  0
    1.7374    1.5541    4.1685 C   0  0  1  0  0  0  0  0  0  0  0  0
    1.7027    1.1115    2.6796 C   0  0  0  0  0  0  0  0  0  0  0  0
    1.5838   -0.3951    2.3839 C   0  0  0  0  0  0  0  0  0  0  0  0
    2.5837   -1.2294    3.2296 C   0  0  1  0  0  0  0  0  0  0  0  0
    2.3045   -0.9780    4.7295 C   0  0  2  0  0  0  0  0  0  0  0  0
    1.0702   -1.7828    5.2447 C   0  0  1  0  0  0  0  0  0  0  0  0
   -0.1825   -1.3370    4.7621 O   0  0  0  0  0  0  0  0  0  0  0  0
    1.2095   -3.2813    4.9160 C   0  0  0  0  0  0  0  0  0  0  0  0
    1.5227   -3.5890    3.4308 C   0  0  2  0  0  0  0  0  0  0  0  0
    1.7273   -5.1016    3.2481 C   0  0  0  0  0  0  0  0  0  0  0  0
    0.6011   -5.8414    3.2089 N   0  0  0  0  0  0  0  0  0  0  0  0
    0.6559   -7.1876    3.0954 C   0  0  0  0  0  0  0  0  0  0  0  0
   -0.4964   -7.8938    3.0633 N   0  0  0  0  0  0  0  0  0  0  0  0
   -0.4505   -9.2402    2.9678 C   0  0  0  0  0  0  0  0  0  0  0  0
    0.7504   -9.9621    2.8794 C   0  0  0  0  0  0  0  0  0  0  0  0
    1.9600   -9.2476    2.8900 C   0  0  0  0  0  0  0  0  0  0  0  0
    1.9136   -7.8409    3.0005 C   0  0  0  0  0  0  0  0  0  0  0  0
    3.1009   -7.0797    3.0180 C   0  0  0  0  0  0  0  0  0  0  0  0
    3.0108   -5.6779    3.1390 C   0  0  0  0  0  0  0  0  0  0  0  0
    4.2719   -4.8257    3.0960 C   0  0  0  0  0  0  0  0  0  0  0  0
    4.0299   -3.3449    3.4594 C   0  0  0  0  0  0  0  0  0  0  0  0
    2.7133   -2.7562    2.8671 C   0  0  2  0  0  0  0  0  0  0  0  0
    2.7788   -2.9012    1.3202 C   0  0  0  0  0  0  0  0  0  0  0  0
    2.4562    0.5394    5.0946 C   0  0  2  0  0  0  0  0  0  0  0  0
    1.9617    0.8890    6.5169 C   0  0  0  0  0  0  0  0  0  0  0  0
    0.5177    1.3934    6.3657 C   0  0  0  0  0  0  0  0  0  0  0  0
    0.3957    1.7254    4.8831 C   0  0  0  0  0  0  0  0  0  0  0  0
   -0.6469    2.1098    4.3573 O   0  0  0  0  0  0  0  0  0  0  0  0
    3.4858    2.8574    3.9196 H   0  0  0  0  0  0  0  0  0  0  0  0
    2.4125    3.3912    5.2027 H   0  0  0  0  0  0  0  0  0  0  0  0
    1.9661    3.6404    3.5232 H   0  0  0  0  0  0  0  0  0  0  0  0
    0.9133    1.6402    2.1444 H   0  0  0  0  0  0  0  0  0  0  0  0
    2.6339    1.4398    2.2086 H   0  0  0  0  0  0  0  0  0  0  0  0
    0.5592   -0.7414    2.4800 H   0  0  0  0  0  0  0  0  0  0  0  0
    1.8043   -0.4957    1.3224 H   0  0  0  0  0  0  0  0  0  0  0  0
    3.5563   -0.7897    3.0112 H   0  0  0  0  0  0  0  0  0  0  0  0
    3.1375   -1.4225    5.2721 H   0  0  0  0  0  0  0  0  0  0  0  0
    1.0136   -1.6977    6.3289 H   0  0  0  0  0  0  0  0  0  0  0  0
   -0.1288   -1.2773    3.8190 H   0  0  0  0  0  0  0  0  0  0  0  0
    1.9939   -3.7009    5.5432 H   0  0  0  0  0  0  0  0  0  0  0  0
    0.2967   -3.8030    5.2111 H   0  0  0  0  0  0  0  0  0  0  0  0
    0.6292   -3.3075    2.8798 H   0  0  0  0  0  0  0  0  0  0  0  0
   -1.4022   -9.7589    2.9615 H   0  0  0  0  0  0  0  0  0  0  0  0
    0.7414  -11.0419    2.7977 H   0  0  0  0  0  0  0  0  0  0  0  0
    2.8992   -9.7736    2.8161 H   0  0  0  0  0  0  0  0  0  0  0  0
    4.0610   -7.5653    2.9275 H   0  0  0  0  0  0  0  0  0  0  0  0
    5.0349   -5.2596    3.7485 H   0  0  0  0  0  0  0  0  0  0  0  0
    4.6782   -4.8793    2.0823 H   0  0  0  0  0  0  0  0  0  0  0  0
    3.9836   -3.3081    4.5461 H   0  0  0  0  0  0  0  0  0  0  0  0
    4.9021   -2.7450    3.1877 H   0  0  0  0  0  0  0  0  0  0  0  0
    2.9590   -3.9241    0.9909 H   0  0  0  0  0  0  0  0  0  0  0  0
    3.5715   -2.2814    0.8943 H   0  0  0  0  0  0  0  0  0  0  0  0
    1.8382   -2.6139    0.8470 H   0  0  0  0  0  0  0  0  0  0  0  0
    3.5258    0.7544    5.0491 H   0  0  0  0  0  0  0  0  0  0  0  0
    2.0513    0.0583    7.2190 H   0  0  0  0  0  0  0  0  0  0  0  0
    2.5782    1.6939    6.9259 H   0  0  0  0  0  0  0  0  0  0  0  0
   -0.2015    0.6202    6.6276 H   0  0  0  0  0  0  0  0  0  0  0  0
    0.3280    2.2673    6.9878 H   0  0  0  0  0  0  0  0  0  0  0  0
  2  1  1  6
  1 30  1  0
  1 31  1  0
  1 32  1  0
  2 25  1  0
  2 28  1  0
  2  3  1  0
  3  4  1  0
  3 33  1  0
  3 34  1  0
  4  5  1  0
  4 35  1  0
  4 36  1  0
  5 23  1  0
  5  6  1  0
  5 37  1  6
  6  7  1  0
  6 25  1  0
  6 38  1  1
  7  8  1  0
  7  9  1  0
  7 39  1  1
  8 40  1  0
  9 10  1  0
  9 41  1  0
  9 42  1  0
 10 23  1  0
 10 11  1  0
 10 43  1  6
 11 20  2  0
 11 12  1  0
 12 13  2  0
 13 18  1  0
 13 14  1  0
 14 15  2  0
 15 16  1  0
 15 44  1  0
 16 17  2  0
 16 45  1  0
 17 18  1  0
 17 46  1  0
 18 19  2  0
 19 20  1  0
 19 47  1  0
 20 21  1  0
 21 22  1  0
 21 48  1  0
 21 49  1  0
 22 23  1  0
 22 50  1  0
 22 51  1  0
 23 24  1  6
 24 52  1  0
 24 53  1  0
 24 54  1  0
 25 26  1  0
 25 55  1  1
 26 27  1  0
 26 56  1  0
 26 57  1  0
 27 28  1  0
 27 58  1  0
 27 59  1  0
 28 29  2  0
M  END
>  <i_m_ct_stereo_status>  (25) 
1

>  <s_m_source_file>  (25) 
/var/tmp/pbs.5076255.sched01/tmpc_kifbv4/0gx9_4qhc.sdf

>  <i_m_source_file_index>  (25) 
10

>  <i_lp_mmshare_version>  (25) 
48012

>  <i_f3d_flags>  (25) 
0

>  <s_epik_input>  (25) 
Tz1DMVtDSDJdW0NIMl1bQ0BIXShbQ0BdMTJbQ0gzXSlbQ0BASF0zW0NASF0oW0NIMl1bQ0gyXTIpW0NAXTQoW0NIM10pW0NASF0oW0NIMl1bQ0BASF0zW09IXSljNWMoW0NIMl1bQ0gyXTQpW2NIXWM2YyhuNSluW2NIXVtjSF1bY0hdNg==

>  <s_epik_cmdline>  (25) 
J2VwaWtfcHl0aG9uJywgJy1waHQnLCAnMi4wJywgJy1waCcsICc3LjAnLCAnLXRuJywgJzgnLCAnLW1hJywgJzIwMCcsICctaW1hZScsICc8aW5maWxlLm1hZT4nLCAnLW9tYWUnLCAnPG91dGZpbGUubWFlPic=

>  <r_lp_tautomer_probability>  (25) 
1

>  <r_epik_Ionization_Penalty>  (25) 
0.000276961

>  <r_epik_Ionization_Penalty_Charging>  (25) 
0

>  <r_epik_Ionization_Penalty_Neutral>  (25) 
0.000276961

>  <r_epik_State_Penalty>  (25) 
-0

>  <r_epik_Charging_Adjusted_Penalty>  (25) 
0

>  <i_epik_Tot_Q>  (25) 
0

>  <i_epik_Tot_abs_Q>  (25) 
0

>  <s_lp_Force_Field>  (25) 
OPLS3e

>  <r_lp_Energy>  (25) 
54.4254

>  <b_lp_Chiralities_Consistent>  (25) 
1

>  <s_lp_Variant>  (25) 
9:0-1

>  <s_i_glide_gridfile>  (25) 
pfpi4k_grid

>  <i_i_glide_lignum>  (25) 
10

>  <i_i_glide_rotatable_bonds>  (25) 
1

>  <r_i_docking_score>  (25) 
-2.80429

>  <r_i_glide_ligand_efficiency>  (25) 
-0.0966996

>  <r_i_glide_ligand_efficiency_sa>  (25) 
-0.297092

>  <r_i_glide_ligand_efficiency_ln>  (25) 
-0.642111

>  <r_i_glide_gscore>  (25) 
-2.80429

>  <r_i_glide_lipo>  (25) 
-0.115182

>  <r_i_glide_hbond>  (25) 
-0.0272627

>  <r_i_glide_metal>  (25) 
-0

>  <r_i_glide_rewards>  (25) 
-0.746469

>  <r_i_glide_evdw>  (25) 
-25.6166

>  <r_i_glide_ecoul>  (25) 
-3.94022

>  <r_i_glide_erotb>  (25) 
0

>  <r_i_glide_esite>  (25) 
-0.0435105

>  <r_i_glide_emodel>  (25) 
-35.0765

>  <r_i_glide_energy>  (25) 
-29.5568

>  <r_i_glide_einternal>  (25) 
0.0666273

>  <r_i_glide_intrahb_reward>  (25) 
-0

>  <i_i_glide_confnum>  (25) 
2

>  <i_i_glide_posenum>  (25) 
9

>  <r_i_glide_eff_state_penalty>  (25) 
0

>  <ligand_id>  (25) 
9

>  <original_smiles>  (25) 
CC12CCC3C(C(O)CC4c5nc6ncccc6cc5CCC43C)C1CCC2=O

>  <smiles>  (25) 
[H]OC1([H])C([H])([H])C2([H])c3nc4nc([H])c([H])c([H])c4c([H])c3C([H])([H])C([H])([H])C2(C([H])([H])[H])C2([H])C([H])([H])C([H])([H])C3(C([H])([H])[H])C(=O)C([H])([H])C([H])([H])C3([H])C12[H]

$$$$
10:0:0
     RDKit          3D

 22 24  0  0  1  0  0  0  0  0999 V2000
    3.0553   -1.2191   -3.9180 C   0  0  0  0  0  0  0  0  0  0  0  0
    2.5137   -2.4499   -3.4948 C   0  0  0  0  0  0  0  0  0  0  0  0
    2.8712   -3.1434   -2.4173 N   0  0  0  0  0  0  0  0  0  0  0  0
    3.8876   -2.5631   -1.7163 N   0  0  0  0  0  0  0  0  0  0  0  0
    4.5175   -3.0517   -0.5663 C   0  0  0  0  0  0  0  0  0  0  0  0
    4.1656   -4.2904    0.1260 C   0  0  0  0  0  0  0  0  0  0  0  0
    2.8686   -4.8475    0.1490 C   0  0  0  0  0  0  0  0  0  0  0  0
    2.6996   -6.0356    0.8802 C   0  0  0  0  0  0  0  0  0  0  0  0
    3.7143   -6.6093    1.5467 N   0  0  0  0  0  0  0  0  0  0  0  0
    4.8906   -5.9939    1.4811 C   0  0  0  0  0  0  0  0  0  0  0  0
    5.1727   -4.8726    0.8166 N   0  0  0  0  0  0  0  0  0  0  0  0
    5.4775   -2.1286   -0.2432 C   0  0  0  0  0  0  0  0  0  0  0  0
    5.4861   -1.0676   -1.1369 N   0  0  0  0  0  0  0  0  0  0  0  0
    4.5336   -1.3372   -2.0264 C   0  0  0  0  0  0  0  0  0  0  0  0
    4.0611   -0.6553   -3.1761 C   0  0  0  0  0  0  0  0  0  0  0  0
    2.6578   -0.7155   -4.7945 H   0  0  0  0  0  0  0  0  0  0  0  0
    1.6942   -2.8799   -4.0637 H   0  0  0  0  0  0  0  0  0  0  0  0
    2.0444   -4.4012   -0.3823 H   0  0  0  0  0  0  0  0  0  0  0  0
    1.7423   -6.5371    0.9308 H   0  0  0  0  0  0  0  0  0  0  0  0
    5.6899   -6.4618    2.0290 H   0  0  0  0  0  0  0  0  0  0  0  0
    6.1605   -2.1390    0.5926 H   0  0  0  0  0  0  0  0  0  0  0  0
    4.4843    0.2995   -3.4579 H   0  0  0  0  0  0  0  0  0  0  0  0
  1 15  2  0
  1  2  1  0
  1 16  1  0
  2  3  2  0
  2 17  1  0
  3  4  1  0
  4 14  1  0
  4  5  1  0
  5  6  1  0
  5 12  2  0
  6 11  1  0
  6  7  2  0
  7  8  1  0
  7 18  1  0
  8  9  2  0
  8 19  1  0
  9 10  1  0
 10 11  2  0
 10 20  1  0
 12 13  1  0
 12 21  1  0
 13 14  2  0
 14 15  1  0
 15 22  1  0
M  END
>  <i_m_ct_stereo_status>  (26) 
1

>  <s_m_source_file>  (26) 
/var/tmp/pbs.5076255.sched01/tmpc_kifbv4/0gx9_4qhc.sdf

>  <i_m_source_file_index>  (26) 
11

>  <i_lp_mmshare_version>  (26) 
48012

>  <i_f3d_flags>  (26) 
0

>  <s_epik_input>  (26) 
bjFbY0hdW2NIXVtjSF1jKG4xMiluW2NIXWMyLWMzW2NIXVtjSF1uW2NIXW4z

>  <s_epik_cmdline>  (26) 
J2VwaWtfcHl0aG9uJywgJy1waHQnLCAnMi4wJywgJy1waCcsICc3LjAnLCAnLXRuJywgJzgnLCAnLW1hJywgJzIwMCcsICctaW1hZScsICc8aW5maWxlLm1hZT4nLCAnLW9tYWUnLCAnPG91dGZpbGUubWFlPic=

>  <r_lp_tautomer_probability>  (26) 
1

>  <r_epik_Ionization_Penalty>  (26) 
0.000181885

>  <r_epik_Ionization_Penalty_Charging>  (26) 
0

>  <r_epik_Ionization_Penalty_Neutral>  (26) 
0.000181885

>  <r_epik_State_Penalty>  (26) 
-0

>  <r_epik_Charging_Adjusted_Penalty>  (26) 
0

>  <i_epik_Tot_Q>  (26) 
0

>  <i_epik_Tot_abs_Q>  (26) 
0

>  <s_lp_Force_Field>  (26) 
OPLS3e

>  <r_lp_Energy>  (26) 
28.2629

>  <b_lp_Chiralities_Consistent>  (26) 
1

>  <s_lp_Variant>  (26) 
10:0-1

>  <s_i_glide_gridfile>  (26) 
pfpi4k_grid

>  <i_i_glide_lignum>  (26) 
11

>  <i_i_glide_rotatable_bonds>  (26) 
1

>  <r_i_docking_score>  (26) 
-3.47163

>  <r_i_glide_ligand_efficiency>  (26) 
-0.231442

>  <r_i_glide_ligand_efficiency_sa>  (26) 
-0.570786

>  <r_i_glide_ligand_efficiency_ln>  (26) 
-0.936242

>  <r_i_glide_gscore>  (26) 
-3.47163

>  <r_i_glide_lipo>  (26) 
-0.564155

>  <r_i_glide_hbond>  (26) 
-0.0106496

>  <r_i_glide_metal>  (26) 
-0

>  <r_i_glide_rewards>  (26) 
-2.14439

>  <r_i_glide_evdw>  (26) 
-22.0504

>  <r_i_glide_ecoul>  (26) 
0.0158763

>  <r_i_glide_erotb>  (26) 
0.418047

>  <r_i_glide_esite>  (26) 
-0.0703427

>  <r_i_glide_emodel>  (26) 
-26.3514

>  <r_i_glide_energy>  (26) 
-22.0345

>  <r_i_glide_einternal>  (26) 
1.44544

>  <r_i_glide_intrahb_reward>  (26) 
-0

>  <i_i_glide_confnum>  (26) 
3

>  <i_i_glide_posenum>  (26) 
16

>  <r_i_glide_eff_state_penalty>  (26) 
0

>  <ligand_id>  (26) 
10

>  <original_smiles>  (26) 
c1cnn2c(-c3ccncn3)cnc2c1

>  <smiles>  (26) 
[H]c1nc([H])c([H])c(-c2c([H])nc3c([H])c([H])c([H])nn23)n1

$$$$
10:0:1
     RDKit          3D

 22 24  0  0  1  0  0  0  0  0999 V2000
    3.0796   -1.5841   -3.7202 C   0  0  0  0  0  0  0  0  0  0  0  0
    2.3731   -2.6609   -3.1469 C   0  0  0  0  0  0  0  0  0  0  0  0
    2.5373   -3.1529   -1.9229 N   0  0  0  0  0  0  0  0  0  0  0  0
    3.5204   -2.5241   -1.2161 N   0  0  0  0  0  0  0  0  0  0  0  0
    3.9485   -2.8087    0.0865 C   0  0  0  0  0  0  0  0  0  0  0  0
    3.4222   -3.8827    0.9404 C   0  0  0  0  0  0  0  0  0  0  0  0
    2.7787   -5.0470    0.4631 C   0  0  0  0  0  0  0  0  0  0  0  0
    2.3599   -5.9934    1.4107 C   0  0  0  0  0  0  0  0  0  0  0  0
    2.5457   -5.8018    2.7274 N   0  0  0  0  0  0  0  0  0  0  0  0
    3.1856   -4.6891    3.0790 C   0  0  0  0  0  0  0  0  0  0  0  0
    3.6341   -3.7284    2.2691 N   0  0  0  0  0  0  0  0  0  0  0  0
    4.9486   -1.9068    0.3511 C   0  0  0  0  0  0  0  0  0  0  0  0
    5.1992   -1.0758   -0.7339 N   0  0  0  0  0  0  0  0  0  0  0  0
    4.3217   -1.4419   -1.6667 C   0  0  0  0  0  0  0  0  0  0  0  0
    4.0530   -0.9680   -2.9775 C   0  0  0  0  0  0  0  0  0  0  0  0
    2.8270   -1.2322   -4.7159 H   0  0  0  0  0  0  0  0  0  0  0  0
    1.5891   -3.1352   -3.7338 H   0  0  0  0  0  0  0  0  0  0  0  0
    2.6297   -5.2391   -0.5851 H   0  0  0  0  0  0  0  0  0  0  0  0
    1.8600   -6.9051    1.1089 H   0  0  0  0  0  0  0  0  0  0  0  0
    3.3410   -4.5564    4.1357 H   0  0  0  0  0  0  0  0  0  0  0  0
    5.5370   -1.8037    1.2492 H   0  0  0  0  0  0  0  0  0  0  0  0
    4.6002   -0.1202   -3.3713 H   0  0  0  0  0  0  0  0  0  0  0  0
  1 15  2  0
  1  2  1  0
  1 16  1  0
  2  3  2  0
  2 17  1  0
  3  4  1  0
  4 14  1  0
  4  5  1  0
  5  6  1  0
  5 12  2  0
  6 11  1  0
  6  7  2  0
  7  8  1  0
  7 18  1  0
  8  9  2  0
  8 19  1  0
  9 10  1  0
 10 11  2  0
 10 20  1  0
 12 13  1  0
 12 21  1  0
 13 14  2  0
 14 15  1  0
 15 22  1  0
M  END
>  <i_m_ct_stereo_status>  (27) 
1

>  <s_m_source_file>  (27) 
/var/tmp/pbs.5076255.sched01/tmpc_kifbv4/0gx9_4qhc.sdf

>  <i_m_source_file_index>  (27) 
11

>  <i_lp_mmshare_version>  (27) 
48012

>  <i_f3d_flags>  (27) 
0

>  <s_epik_input>  (27) 
bjFbY0hdW2NIXVtjSF1jKG4xMiluW2NIXWMyLWMzW2NIXVtjSF1uW2NIXW4z

>  <s_epik_cmdline>  (27) 
J2VwaWtfcHl0aG9uJywgJy1waHQnLCAnMi4wJywgJy1waCcsICc3LjAnLCAnLXRuJywgJzgnLCAnLW1hJywgJzIwMCcsICctaW1hZScsICc8aW5maWxlLm1hZT4nLCAnLW9tYWUnLCAnPG91dGZpbGUubWFlPic=

>  <r_lp_tautomer_probability>  (27) 
1

>  <r_epik_Ionization_Penalty>  (27) 
0.000181885

>  <r_epik_Ionization_Penalty_Charging>  (27) 
0

>  <r_epik_Ionization_Penalty_Neutral>  (27) 
0.000181885

>  <r_epik_State_Penalty>  (27) 
-0

>  <r_epik_Charging_Adjusted_Penalty>  (27) 
0

>  <i_epik_Tot_Q>  (27) 
0

>  <i_epik_Tot_abs_Q>  (27) 
0

>  <s_lp_Force_Field>  (27) 
OPLS3e

>  <r_lp_Energy>  (27) 
28.2629

>  <b_lp_Chiralities_Consistent>  (27) 
1

>  <s_lp_Variant>  (27) 
10:0-1

>  <s_i_glide_gridfile>  (27) 
pfpi4k_grid

>  <i_i_glide_lignum>  (27) 
11

>  <i_i_glide_rotatable_bonds>  (27) 
1

>  <r_i_docking_score>  (27) 
-3.27563

>  <r_i_glide_ligand_efficiency>  (27) 
-0.218375

>  <r_i_glide_ligand_efficiency_sa>  (27) 
-0.538559

>  <r_i_glide_ligand_efficiency_ln>  (27) 
-0.883382

>  <r_i_glide_gscore>  (27) 
-3.27563

>  <r_i_glide_lipo>  (27) 
-0.404504

>  <r_i_glide_hbond>  (27) 
0

>  <r_i_glide_metal>  (27) 
-0

>  <r_i_glide_rewards>  (27) 
-2.06457

>  <r_i_glide_evdw>  (27) 
-20.6682

>  <r_i_glide_ecoul>  (27) 
-0.693914

>  <r_i_glide_erotb>  (27) 
0.418047

>  <r_i_glide_esite>  (27) 
-0.0871009

>  <r_i_glide_emodel>  (27) 
-25.427

>  <r_i_glide_energy>  (27) 
-21.3621

>  <r_i_glide_einternal>  (27) 
1.33498

>  <r_i_glide_intrahb_reward>  (27) 
-0

>  <i_i_glide_confnum>  (27) 
3

>  <i_i_glide_posenum>  (27) 
2

>  <r_i_glide_eff_state_penalty>  (27) 
0

>  <ligand_id>  (27) 
10

>  <original_smiles>  (27) 
c1cnn2c(-c3ccncn3)cnc2c1

>  <smiles>  (27) 
[H]c1nc([H])c([H])c(-c2c([H])nc3c([H])c([H])c([H])nn23)n1

$$$$
10:0:2
     RDKit          3D

 22 24  0  0  1  0  0  0  0  0999 V2000
   -0.7107   -8.7511    2.5348 C   0  0  0  0  0  0  0  0  0  0  0  0
   -1.3546   -8.3606    3.7291 C   0  0  0  0  0  0  0  0  0  0  0  0
   -1.0485   -7.3078    4.4862 N   0  0  0  0  0  0  0  0  0  0  0  0
    0.0192   -6.5957    4.0176 N   0  0  0  0  0  0  0  0  0  0  0  0
    0.6045   -5.4446    4.5647 C   0  0  0  0  0  0  0  0  0  0  0  0
    0.2062   -4.7509    5.8014 C   0  0  0  0  0  0  0  0  0  0  0  0
    0.9068   -3.6089    6.2407 C   0  0  0  0  0  0  0  0  0  0  0  0
    0.4663   -3.0010    7.4284 C   0  0  0  0  0  0  0  0  0  0  0  0
   -0.5948   -3.4662    8.1156 N   0  0  0  0  0  0  0  0  0  0  0  0
   -1.1792   -4.5589    7.6243 C   0  0  0  0  0  0  0  0  0  0  0  0
   -0.8479   -5.2097    6.5097 N   0  0  0  0  0  0  0  0  0  0  0  0
    1.6136   -5.0987    3.7016 C   0  0  0  0  0  0  0  0  0  0  0  0
    1.6888   -5.9598    2.6210 N   0  0  0  0  0  0  0  0  0  0  0  0
    0.7478   -6.8716    2.8290 C   0  0  0  0  0  0  0  0  0  0  0  0
    0.3455   -8.0034    2.0821 C   0  0  0  0  0  0  0  0  0  0  0  0
   -1.0355   -9.6332    1.9871 H   0  0  0  0  0  0  0  0  0  0  0  0
   -2.1760   -8.9721    4.0936 H   0  0  0  0  0  0  0  0  0  0  0  0
    1.7496   -3.2048    5.7072 H   0  0  0  0  0  0  0  0  0  0  0  0
    0.9602   -2.1255    7.8259 H   0  0  0  0  0  0  0  0  0  0  0  0
   -2.0235   -4.9337    8.1799 H   0  0  0  0  0  0  0  0  0  0  0  0
    2.3011   -4.2688    3.7620 H   0  0  0  0  0  0  0  0  0  0  0  0
    0.8678   -8.2576    1.1687 H   0  0  0  0  0  0  0  0  0  0  0  0
  1 15  2  0
  1  2  1  0
  1 16  1  0
  2  3  2  0
  2 17  1  0
  3  4  1  0
  4 14  1  0
  4  5  1  0
  5  6  1  0
  5 12  2  0
  6 11  1  0
  6  7  2  0
  7  8  1  0
  7 18  1  0
  8  9  2  0
  8 19  1  0
  9 10  1  0
 10 11  2  0
 10 20  1  0
 12 13  1  0
 12 21  1  0
 13 14  2  0
 14 15  1  0
 15 22  1  0
M  END
>  <i_m_ct_stereo_status>  (28) 
1

>  <s_m_source_file>  (28) 
/var/tmp/pbs.5076255.sched01/tmpc_kifbv4/0gx9_4qhc.sdf

>  <i_m_source_file_index>  (28) 
11

>  <i_lp_mmshare_version>  (28) 
48012

>  <i_f3d_flags>  (28) 
0

>  <s_epik_input>  (28) 
bjFbY0hdW2NIXVtjSF1jKG4xMiluW2NIXWMyLWMzW2NIXVtjSF1uW2NIXW4z

>  <s_epik_cmdline>  (28) 
J2VwaWtfcHl0aG9uJywgJy1waHQnLCAnMi4wJywgJy1waCcsICc3LjAnLCAnLXRuJywgJzgnLCAnLW1hJywgJzIwMCcsICctaW1hZScsICc8aW5maWxlLm1hZT4nLCAnLW9tYWUnLCAnPG91dGZpbGUubWFlPic=

>  <r_lp_tautomer_probability>  (28) 
1

>  <r_epik_Ionization_Penalty>  (28) 
0.000181885

>  <r_epik_Ionization_Penalty_Charging>  (28) 
0

>  <r_epik_Ionization_Penalty_Neutral>  (28) 
0.000181885

>  <r_epik_State_Penalty>  (28) 
-0

>  <r_epik_Charging_Adjusted_Penalty>  (28) 
0

>  <i_epik_Tot_Q>  (28) 
0

>  <i_epik_Tot_abs_Q>  (28) 
0

>  <s_lp_Force_Field>  (28) 
OPLS3e

>  <r_lp_Energy>  (28) 
28.2629

>  <b_lp_Chiralities_Consistent>  (28) 
1

>  <s_lp_Variant>  (28) 
10:0-1

>  <s_i_glide_gridfile>  (28) 
pfpi4k_grid

>  <i_i_glide_lignum>  (28) 
11

>  <i_i_glide_rotatable_bonds>  (28) 
1

>  <r_i_docking_score>  (28) 
-3.24811

>  <r_i_glide_ligand_efficiency>  (28) 
-0.216541

>  <r_i_glide_ligand_efficiency_sa>  (28) 
-0.534035

>  <r_i_glide_ligand_efficiency_ln>  (28) 
-0.875961

>  <r_i_glide_gscore>  (28) 
-3.24811

>  <r_i_glide_lipo>  (28) 
0

>  <r_i_glide_hbond>  (28) 
-0.0640792

>  <r_i_glide_metal>  (28) 
-0

>  <r_i_glide_rewards>  (28) 
-2.06457

>  <r_i_glide_evdw>  (28) 
-16.985

>  <r_i_glide_ecoul>  (28) 
-3.99556

>  <r_i_glide_erotb>  (28) 
0.418047

>  <r_i_glide_esite>  (28) 
-0.0889198

>  <r_i_glide_emodel>  (28) 
-25.631

>  <r_i_glide_energy>  (28) 
-20.9806

>  <r_i_glide_einternal>  (28) 
0.00288206

>  <r_i_glide_intrahb_reward>  (28) 
-0

>  <i_i_glide_confnum>  (28) 
1

>  <i_i_glide_posenum>  (28) 
12

>  <r_i_glide_eff_state_penalty>  (28) 
0

>  <ligand_id>  (28) 
10

>  <original_smiles>  (28) 
c1cnn2c(-c3ccncn3)cnc2c1

>  <smiles>  (28) 
[H]c1nc([H])c([H])c(-c2c([H])nc3c([H])c([H])c([H])nn23)n1

$$$$
11:0:0
     RDKit          3D

 26 28  0  0  1  0  0  0  0  0999 V2000
   -5.5959   -8.2581   -8.3170 O   0  0  0  0  0  0  0  0  0  0  0  0
   -6.8056   -8.2394   -7.5917 C   0  0  1  0  0  0  0  0  0  0  0  0
   -7.0488   -9.6772   -7.0633 C   0  0  0  0  0  0  0  0  0  0  0  0
   -6.0522  -10.0556   -6.2612 F   0  0  0  0  0  0  0  0  0  0  0  0
   -8.1861   -9.7520   -6.3802 F   0  0  0  0  0  0  0  0  0  0  0  0
   -7.1201  -10.5280   -8.0897 F   0  0  0  0  0  0  0  0  0  0  0  0
   -6.7948   -7.1816   -6.4865 C   0  0  0  0  0  0  0  0  0  0  0  0
   -5.8953   -7.0900   -5.4062 C   0  0  0  0  0  0  0  0  0  0  0  0
   -6.0605   -6.0262   -4.4939 C   0  0  0  0  0  0  0  0  0  0  0  0
   -7.0859   -5.0640   -4.6624 C   0  0  0  0  0  0  0  0  0  0  0  0
   -7.9741   -5.1550   -5.7562 C   0  0  0  0  0  0  0  0  0  0  0  0
   -7.8034   -6.2199   -6.6612 C   0  0  0  0  0  0  0  0  0  0  0  0
   -8.5252   -6.5596   -7.8749 C   0  0  0  0  0  0  0  0  0  0  0  0
   -9.5534   -5.8614   -8.3955 N   0  0  0  0  0  0  0  0  0  0  0  0
  -10.0667   -6.3522   -9.5479 C   0  0  0  0  0  0  0  0  0  0  0  0
   -9.5568   -7.4946  -10.2148 C   0  0  0  0  0  0  0  0  0  0  0  0
   -8.4687   -8.1994   -9.6518 C   0  0  0  0  0  0  0  0  0  0  0  0
   -7.9584   -7.7064   -8.4379 C   0  0  0  0  0  0  0  0  0  0  0  0
   -5.6998   -8.8260   -9.0624 H   0  0  0  0  0  0  0  0  0  0  0  0
   -5.1003   -7.8143   -5.2779 H   0  0  0  0  0  0  0  0  0  0  0  0
   -5.3966   -5.9556   -3.6462 H   0  0  0  0  0  0  0  0  0  0  0  0
   -7.1983   -4.2699   -3.9379 H   0  0  0  0  0  0  0  0  0  0  0  0
   -8.7700   -4.4329   -5.8894 H   0  0  0  0  0  0  0  0  0  0  0  0
  -10.9032   -5.8092   -9.9635 H   0  0  0  0  0  0  0  0  0  0  0  0
  -10.0047   -7.8193  -11.1432 H   0  0  0  0  0  0  0  0  0  0  0  0
   -8.0512   -9.0712  -10.1372 H   0  0  0  0  0  0  0  0  0  0  0  0
  2  1  1  6
  1 19  1  0
  2 18  1  0
  2  3  1  0
  2  7  1  0
  3  4  1  0
  3  5  1  0
  3  6  1  0
  7 12  2  0
  7  8  1  0
  8  9  2  0
  8 20  1  0
  9 10  1  0
  9 21  1  0
 10 11  2  0
 10 22  1  0
 11 12  1  0
 11 23  1  0
 12 13  1  0
 13 18  2  0
 13 14  1  0
 14 15  2  0
 15 16  1  0
 15 24  1  0
 16 17  2  0
 16 25  1  0
 17 18  1  0
 17 26  1  0
M  END
>  <i_m_ct_stereo_status>  (29) 
1

>  <s_m_source_file>  (29) 
/var/tmp/pbs.5076255.sched01/tmpc_kifbv4/0gx9_4qhc.sdf

>  <i_m_source_file_index>  (29) 
12

>  <i_lp_mmshare_version>  (29) 
48012

>  <i_f3d_flags>  (29) 
0

>  <s_epik_input>  (29) 
bjFbY0hdW2NIXVtjSF1jKFtDQF0yKFtPSF0pQyhGKShGKUYpYzFjKGMyMylbY0hdW2NIXVtjSF1bY0hdMw==

>  <s_epik_cmdline>  (29) 
J2VwaWtfcHl0aG9uJywgJy1waHQnLCAnMi4wJywgJy1waCcsICc3LjAnLCAnLXRuJywgJzgnLCAnLW1hJywgJzIwMCcsICctaW1hZScsICc8aW5maWxlLm1hZT4nLCAnLW9tYWUnLCAnPG91dGZpbGUubWFlPic=

>  <r_lp_tautomer_probability>  (29) 
1

>  <r_epik_Ionization_Penalty>  (29) 
0.000335922

>  <r_epik_Ionization_Penalty_Charging>  (29) 
0

>  <r_epik_Ionization_Penalty_Neutral>  (29) 
0.000335922

>  <r_epik_State_Penalty>  (29) 
-0

>  <r_epik_Charging_Adjusted_Penalty>  (29) 
0

>  <i_epik_Tot_Q>  (29) 
0

>  <i_epik_Tot_abs_Q>  (29) 
0

>  <s_lp_Force_Field>  (29) 
OPLS3e

>  <r_lp_Energy>  (29) 
23.1809

>  <b_lp_Chiralities_Consistent>  (29) 
1

>  <s_lp_Variant>  (29) 
11:0-1

>  <s_i_glide_gridfile>  (29) 
pfpi4k_grid

>  <i_i_glide_lignum>  (29) 
12

>  <i_i_glide_rotatable_bonds>  (29) 
2

>  <r_i_docking_score>  (29) 
-6.50015

>  <r_i_glide_ligand_efficiency>  (29) 
-0.36112

>  <r_i_glide_ligand_efficiency_sa>  (29) 
-0.946401

>  <r_i_glide_ligand_efficiency_ln>  (29) 
-1.67083

>  <r_i_glide_gscore>  (29) 
-6.50015

>  <r_i_glide_lipo>  (29) 
-2.60903

>  <r_i_glide_hbond>  (29) 
0

>  <r_i_glide_metal>  (29) 
-0

>  <r_i_glide_rewards>  (29) 
-2.53433

>  <r_i_glide_evdw>  (29) 
-23.5903

>  <r_i_glide_ecoul>  (29) 
-1.18186

>  <r_i_glide_erotb>  (29) 
0

>  <r_i_glide_esite>  (29) 
0

>  <r_i_glide_emodel>  (29) 
-34.736

>  <r_i_glide_energy>  (29) 
-24.7721

>  <r_i_glide_einternal>  (29) 
0.0909793

>  <r_i_glide_intrahb_reward>  (29) 
-0

>  <i_i_glide_confnum>  (29) 
1

>  <i_i_glide_posenum>  (29) 
8

>  <r_i_glide_eff_state_penalty>  (29) 
0

>  <ligand_id>  (29) 
11

>  <original_smiles>  (29) 
OC1(C(F)(F)F)c2ccccc2-c2ncccc21

>  <smiles>  (29) 
[H]OC1(C(F)(F)F)c2c(nc([H])c([H])c2[H])-c2c([H])c([H])c([H])c([H])c21

$$$$
11:0:1
     RDKit          3D

 26 28  0  0  1  0  0  0  0  0999 V2000
   -7.3898   -7.1784   -9.6829 O   0  0  0  0  0  0  0  0  0  0  0  0
   -7.9213   -7.5377   -8.4241 C   0  0  1  0  0  0  0  0  0  0  0  0
   -9.0092   -8.6110   -8.6738 C   0  0  0  0  0  0  0  0  0  0  0  0
   -9.5037   -9.0569   -7.5231 F   0  0  0  0  0  0  0  0  0  0  0  0
  -10.0095   -8.1132   -9.3971 F   0  0  0  0  0  0  0  0  0  0  0  0
   -8.4786   -9.6441   -9.3225 F   0  0  0  0  0  0  0  0  0  0  0  0
   -6.8308   -7.9926   -7.4411 C   0  0  0  0  0  0  0  0  0  0  0  0
   -5.9439   -9.0746   -7.5990 C   0  0  0  0  0  0  0  0  0  0  0  0
   -5.0109   -9.3301   -6.5690 C   0  0  0  0  0  0  0  0  0  0  0  0
   -4.9610   -8.5115   -5.4148 C   0  0  0  0  0  0  0  0  0  0  0  0
   -5.8472   -7.4210   -5.2706 C   0  0  0  0  0  0  0  0  0  0  0  0
   -6.7765   -7.1815   -6.2978 C   0  0  0  0  0  0  0  0  0  0  0  0
   -7.7853   -6.1482   -6.4469 C   0  0  0  0  0  0  0  0  0  0  0  0
   -8.0215   -5.1566   -5.5671 N   0  0  0  0  0  0  0  0  0  0  0  0
   -8.9898   -4.2784   -5.9177 C   0  0  0  0  0  0  0  0  0  0  0  0
   -9.7190   -4.3570   -7.1296 C   0  0  0  0  0  0  0  0  0  0  0  0
   -9.4441   -5.4060   -8.0407 C   0  0  0  0  0  0  0  0  0  0  0  0
   -8.4415   -6.3187   -7.6664 C   0  0  0  0  0  0  0  0  0  0  0  0
   -7.0453   -7.9608  -10.0945 H   0  0  0  0  0  0  0  0  0  0  0  0
   -5.9703   -9.6879   -8.4914 H   0  0  0  0  0  0  0  0  0  0  0  0
   -4.3182  -10.1511   -6.6641 H   0  0  0  0  0  0  0  0  0  0  0  0
   -4.2386   -8.7301   -4.6413 H   0  0  0  0  0  0  0  0  0  0  0  0
   -5.8203   -6.7913   -4.3921 H   0  0  0  0  0  0  0  0  0  0  0  0
   -9.2000   -3.4911   -5.2079 H   0  0  0  0  0  0  0  0  0  0  0  0
  -10.4810   -3.6241   -7.3311 H   0  0  0  0  0  0  0  0  0  0  0  0
   -9.9695   -5.4979   -8.9817 H   0  0  0  0  0  0  0  0  0  0  0  0
  2  1  1  6
  1 19  1  0
  2 18  1  0
  2  3  1  0
  2  7  1  0
  3  4  1  0
  3  5  1  0
  3  6  1  0
  7 12  2  0
  7  8  1  0
  8  9  2  0
  8 20  1  0
  9 10  1  0
  9 21  1  0
 10 11  2  0
 10 22  1  0
 11 12  1  0
 11 23  1  0
 12 13  1  0
 13 18  2  0
 13 14  1  0
 14 15  2  0
 15 16  1  0
 15 24  1  0
 16 17  2  0
 16 25  1  0
 17 18  1  0
 17 26  1  0
M  END
>  <i_m_ct_stereo_status>  (30) 
1

>  <s_m_source_file>  (30) 
/var/tmp/pbs.5076255.sched01/tmpc_kifbv4/0gx9_4qhc.sdf

>  <i_m_source_file_index>  (30) 
12

>  <i_lp_mmshare_version>  (30) 
48012

>  <i_f3d_flags>  (30) 
0

>  <s_epik_input>  (30) 
bjFbY0hdW2NIXVtjSF1jKFtDQF0yKFtPSF0pQyhGKShGKUYpYzFjKGMyMylbY0hdW2NIXVtjSF1bY0hdMw==

>  <s_epik_cmdline>  (30) 
J2VwaWtfcHl0aG9uJywgJy1waHQnLCAnMi4wJywgJy1waCcsICc3LjAnLCAnLXRuJywgJzgnLCAnLW1hJywgJzIwMCcsICctaW1hZScsICc8aW5maWxlLm1hZT4nLCAnLW9tYWUnLCAnPG91dGZpbGUubWFlPic=

>  <r_lp_tautomer_probability>  (30) 
1

>  <r_epik_Ionization_Penalty>  (30) 
0.000335922

>  <r_epik_Ionization_Penalty_Charging>  (30) 
0

>  <r_epik_Ionization_Penalty_Neutral>  (30) 
0.000335922

>  <r_epik_State_Penalty>  (30) 
-0

>  <r_epik_Charging_Adjusted_Penalty>  (30) 
0

>  <i_epik_Tot_Q>  (30) 
0

>  <i_epik_Tot_abs_Q>  (30) 
0

>  <s_lp_Force_Field>  (30) 
OPLS3e

>  <r_lp_Energy>  (30) 
23.1809

>  <b_lp_Chiralities_Consistent>  (30) 
1

>  <s_lp_Variant>  (30) 
11:0-1

>  <s_i_glide_gridfile>  (30) 
pfpi4k_grid

>  <i_i_glide_lignum>  (30) 
12

>  <i_i_glide_rotatable_bonds>  (30) 
2

>  <r_i_docking_score>  (30) 
-6.45766

>  <r_i_glide_ligand_efficiency>  (30) 
-0.358759

>  <r_i_glide_ligand_efficiency_sa>  (30) 
-0.940214

>  <r_i_glide_ligand_efficiency_ln>  (30) 
-1.65991

>  <r_i_glide_gscore>  (30) 
-6.45766

>  <r_i_glide_lipo>  (30) 
-2.58825

>  <r_i_glide_hbond>  (30) 
0

>  <r_i_glide_metal>  (30) 
-0

>  <r_i_glide_rewards>  (30) 
-2.54299

>  <r_i_glide_evdw>  (30) 
-25.5078

>  <r_i_glide_ecoul>  (30) 
-0.340238

>  <r_i_glide_erotb>  (30) 
0

>  <r_i_glide_esite>  (30) 
0

>  <r_i_glide_emodel>  (30) 
-35.7579

>  <r_i_glide_energy>  (30) 
-25.848

>  <r_i_glide_einternal>  (30) 
0.0419296

>  <r_i_glide_intrahb_reward>  (30) 
-0

>  <i_i_glide_confnum>  (30) 
1

>  <i_i_glide_posenum>  (30) 
1

>  <r_i_glide_eff_state_penalty>  (30) 
0

>  <ligand_id>  (30) 
11

>  <original_smiles>  (30) 
OC1(C(F)(F)F)c2ccccc2-c2ncccc21

>  <smiles>  (30) 
[H]OC1(C(F)(F)F)c2c(nc([H])c([H])c2[H])-c2c([H])c([H])c([H])c([H])c21

$$$$
11:0:2
     RDKit          3D

 26 28  0  0  1  0  0  0  0  0999 V2000
   -7.3856   -7.3086   -9.7203 O   0  0  0  0  0  0  0  0  0  0  0  0
   -7.9014   -7.6642   -8.4520 C   0  0  1  0  0  0  0  0  0  0  0  0
   -9.0292   -8.7047   -8.6793 C   0  0  0  0  0  0  0  0  0  0  0  0
   -9.5222   -9.1302   -7.5223 F   0  0  0  0  0  0  0  0  0  0  0  0
  -10.0189   -8.1551   -9.3874 F   0  0  0  0  0  0  0  0  0  0  0  0
   -8.5640   -9.7645   -9.3445 F   0  0  0  0  0  0  0  0  0  0  0  0
   -6.8091   -8.1635   -7.4975 C   0  0  0  0  0  0  0  0  0  0  0  0
   -5.9634   -9.2753   -7.6768 C   0  0  0  0  0  0  0  0  0  0  0  0
   -5.0180   -9.5695   -6.6669 C   0  0  0  0  0  0  0  0  0  0  0  0
   -4.9162   -8.7573   -5.5125 C   0  0  0  0  0  0  0  0  0  0  0  0
   -5.7565   -7.6355   -5.3465 C   0  0  0  0  0  0  0  0  0  0  0  0
   -6.7005   -7.3593   -6.3533 C   0  0  0  0  0  0  0  0  0  0  0  0
   -7.6766   -6.2884   -6.4740 C   0  0  0  0  0  0  0  0  0  0  0  0
   -7.8629   -5.2938   -5.5857 N   0  0  0  0  0  0  0  0  0  0  0  0
   -8.8077   -4.3821   -5.9145 C   0  0  0  0  0  0  0  0  0  0  0  0
   -9.5621   -4.4290   -7.1125 C   0  0  0  0  0  0  0  0  0  0  0  0
   -9.3429   -5.4817   -8.0296 C   0  0  0  0  0  0  0  0  0  0  0  0
   -8.3685   -6.4341   -7.6787 C   0  0  0  0  0  0  0  0  0  0  0  0
   -8.1092   -7.0579  -10.2742 H   0  0  0  0  0  0  0  0  0  0  0  0
   -6.0322   -9.8805   -8.5715 H   0  0  0  0  0  0  0  0  0  0  0  0
   -4.3548  -10.4148   -6.7794 H   0  0  0  0  0  0  0  0  0  0  0  0
   -4.1870   -9.0022   -4.7526 H   0  0  0  0  0  0  0  0  0  0  0  0
   -5.6910   -7.0110   -4.4656 H   0  0  0  0  0  0  0  0  0  0  0  0
   -8.9753   -3.5902   -5.1990 H   0  0  0  0  0  0  0  0  0  0  0  0
  -10.3021   -3.6680   -7.3006 H   0  0  0  0  0  0  0  0  0  0  0  0
   -9.8943   -5.5494   -8.9582 H   0  0  0  0  0  0  0  0  0  0  0  0
  2  1  1  6
  1 19  1  0
  2 18  1  0
  2  3  1  0
  2  7  1  0
  3  4  1  0
  3  5  1  0
  3  6  1  0
  7 12  2  0
  7  8  1  0
  8  9  2  0
  8 20  1  0
  9 10  1  0
  9 21  1  0
 10 11  2  0
 10 22  1  0
 11 12  1  0
 11 23  1  0
 12 13  1  0
 13 18  2  0
 13 14  1  0
 14 15  2  0
 15 16  1  0
 15 24  1  0
 16 17  2  0
 16 25  1  0
 17 18  1  0
 17 26  1  0
M  END
>  <i_m_ct_stereo_status>  (31) 
1

>  <s_m_source_file>  (31) 
/var/tmp/pbs.5076255.sched01/tmpc_kifbv4/0gx9_4qhc.sdf

>  <i_m_source_file_index>  (31) 
12

>  <i_lp_mmshare_version>  (31) 
48012

>  <i_f3d_flags>  (31) 
0

>  <s_epik_input>  (31) 
bjFbY0hdW2NIXVtjSF1jKFtDQF0yKFtPSF0pQyhGKShGKUYpYzFjKGMyMylbY0hdW2NIXVtjSF1bY0hdMw==

>  <s_epik_cmdline>  (31) 
J2VwaWtfcHl0aG9uJywgJy1waHQnLCAnMi4wJywgJy1waCcsICc3LjAnLCAnLXRuJywgJzgnLCAnLW1hJywgJzIwMCcsICctaW1hZScsICc8aW5maWxlLm1hZT4nLCAnLW9tYWUnLCAnPG91dGZpbGUubWFlPic=

>  <r_lp_tautomer_probability>  (31) 
1

>  <r_epik_Ionization_Penalty>  (31) 
0.000335922

>  <r_epik_Ionization_Penalty_Charging>  (31) 
0

>  <r_epik_Ionization_Penalty_Neutral>  (31) 
0.000335922

>  <r_epik_State_Penalty>  (31) 
-0

>  <r_epik_Charging_Adjusted_Penalty>  (31) 
0

>  <i_epik_Tot_Q>  (31) 
0

>  <i_epik_Tot_abs_Q>  (31) 
0

>  <s_lp_Force_Field>  (31) 
OPLS3e

>  <r_lp_Energy>  (31) 
23.1809

>  <b_lp_Chiralities_Consistent>  (31) 
1

>  <s_lp_Variant>  (31) 
11:0-1

>  <s_i_glide_gridfile>  (31) 
pfpi4k_grid

>  <i_i_glide_lignum>  (31) 
12

>  <i_i_glide_rotatable_bonds>  (31) 
2

>  <r_i_docking_score>  (31) 
-6.19913

>  <r_i_glide_ligand_efficiency>  (31) 
-0.344396

>  <r_i_glide_ligand_efficiency_sa>  (31) 
-0.902573

>  <r_i_glide_ligand_efficiency_ln>  (31) 
-1.59345

>  <r_i_glide_gscore>  (31) 
-6.19913

>  <r_i_glide_lipo>  (31) 
-2.54392

>  <r_i_glide_hbond>  (31) 
0

>  <r_i_glide_metal>  (31) 
-0

>  <r_i_glide_rewards>  (31) 
-2.47806

>  <r_i_glide_evdw>  (31) 
-25.2886

>  <r_i_glide_ecoul>  (31) 
0.58182

>  <r_i_glide_erotb>  (31) 
0

>  <r_i_glide_esite>  (31) 
0

>  <r_i_glide_emodel>  (31) 
-34.1386

>  <r_i_glide_energy>  (31) 
-24.7068

>  <r_i_glide_einternal>  (31) 
0.0519157

>  <r_i_glide_intrahb_reward>  (31) 
-0

>  <i_i_glide_confnum>  (31) 
1

>  <i_i_glide_posenum>  (31) 
3

>  <r_i_glide_eff_state_penalty>  (31) 
0

>  <ligand_id>  (31) 
11

>  <original_smiles>  (31) 
OC1(C(F)(F)F)c2ccccc2-c2ncccc21

>  <smiles>  (31) 
[H]OC1(C(F)(F)F)c2c(nc([H])c([H])c2[H])-c2c([H])c([H])c([H])c([H])c21

$$$$
12:0:0
     RDKit          3D

 69 73  0  0  1  0  0  0  0  0999 V2000
    6.5354  -11.7179    2.6217 C   0  0  0  0  0  0  0  0  0  0  0  0
    5.5616  -10.9708    3.5360 C   0  0  0  0  0  0  0  0  0  0  0  0
    4.1711  -11.6222    3.5145 C   0  0  0  0  0  0  0  0  0  0  0  0
    5.4593   -9.4794    3.1649 C   0  0  0  0  0  0  0  0  0  0  0  0
    6.7588   -8.6794    3.4733 C   0  0  0  0  0  0  0  0  0  0  0  0
    6.6131   -7.1515    3.2813 C   0  0  1  0  0  0  0  0  0  0  0  0
    7.8998   -6.5765    3.3735 O   0  0  0  0  0  0  0  0  0  0  0  0
    6.0754   -6.9474    1.9951 O   0  0  0  0  0  0  0  0  0  0  0  0
    5.1704   -5.8417    1.9756 C   0  0  2  0  0  0  0  0  0  0  0  0
    4.1186   -5.9330    0.8167 C   0  0  2  0  0  0  0  0  0  0  0  0
    4.6570   -5.2196   -0.4793 C   0  0  0  0  0  0  0  0  0  0  0  0
    5.6657   -4.0983   -0.1589 C   0  0  2  0  0  0  0  0  0  0  0  0
    6.9295   -4.5990    0.5408 C   0  0  1  0  0  0  0  0  0  0  0  0
    8.1041   -3.8183    0.5014 O   0  0  0  0  0  0  0  0  0  0  0  0
    6.0518   -4.5639    1.8160 C   0  0  1  0  0  0  0  0  0  0  0  0
    5.3578   -3.3638    1.1563 C   0  0  1  0  0  0  0  0  0  0  0  0
    5.9069   -1.9507    1.3669 C   0  0  0  0  0  0  0  0  0  0  0  0
    5.1889   -0.8394    1.6577 C   0  0  0  0  0  0  0  0  0  0  0  0
    3.7254   -0.6384    1.8551 C   0  0  0  0  0  0  0  0  0  0  0  0
    2.6834   -1.5265    1.9091 C   0  0  0  0  0  0  0  0  0  0  0  0
    1.5557   -0.7902    2.0881 N   0  0  0  0  0  0  0  0  0  0  0  0
    1.8503    0.5168    2.1440 C   0  0  0  0  0  0  0  0  0  0  0  0
    3.1818    0.6139    2.0100 N   0  0  0  0  0  0  0  0  0  0  0  0
    2.6886   -5.3741    1.1776 C   0  0  1  0  0  0  0  0  0  0  0  0
    1.5859   -6.1857    0.4727 C   0  0  0  0  0  0  0  0  0  0  0  0
    2.3161   -5.2333    2.6943 C   0  0  0  0  0  0  0  0  0  0  0  0
    3.4898   -5.0281    3.6699 C   0  0  0  0  0  0  0  0  0  0  0  0
    4.5069   -6.0995    3.3263 C   0  0  2  0  0  0  0  0  0  0  0  0
    5.6659   -6.3808    4.2591 C   0  0  1  0  0  0  0  0  0  0  0  0
    5.3277   -7.1100    5.5898 C   0  0  0  0  0  0  0  0  0  0  0  0
    3.6918    1.4937    2.0240 H   0  0  0  0  0  0  0  0  0  0  0  0
    6.2359  -11.6192    1.5765 H   0  0  0  0  0  0  0  0  0  0  0  0
    6.5617  -12.7814    2.8625 H   0  0  0  0  0  0  0  0  0  0  0  0
    7.5517  -11.3343    2.7214 H   0  0  0  0  0  0  0  0  0  0  0  0
    5.9302  -11.0468    4.5598 H   0  0  0  0  0  0  0  0  0  0  0  0
    3.7206  -11.5603    2.5227 H   0  0  0  0  0  0  0  0  0  0  0  0
    3.4902  -11.1358    4.2158 H   0  0  0  0  0  0  0  0  0  0  0  0
    4.2192  -12.6760    3.7944 H   0  0  0  0  0  0  0  0  0  0  0  0
    5.1879   -9.3700    2.1108 H   0  0  0  0  0  0  0  0  0  0  0  0
    4.5973   -9.0922    3.7116 H   0  0  0  0  0  0  0  0  0  0  0  0
    7.1407   -8.8769    4.4745 H   0  0  0  0  0  0  0  0  0  0  0  0
    7.5333   -9.0087    2.7867 H   0  0  0  0  0  0  0  0  0  0  0  0
    8.4823   -7.0546    2.7989 H   0  0  0  0  0  0  0  0  0  0  0  0
    3.9791   -6.9879    0.5969 H   0  0  0  0  0  0  0  0  0  0  0  0
    5.1194   -5.9720   -1.1195 H   0  0  0  0  0  0  0  0  0  0  0  0
    3.8418   -4.8004   -1.0715 H   0  0  0  0  0  0  0  0  0  0  0  0
    5.8859   -3.4258   -0.9889 H   0  0  0  0  0  0  0  0  0  0  0  0
    7.1797   -5.6197    0.2408 H   0  0  0  0  0  0  0  0  0  0  0  0
    8.5454   -3.9591    1.3235 H   0  0  0  0  0  0  0  0  0  0  0  0
    6.6204   -4.2712    2.6996 H   0  0  0  0  0  0  0  0  0  0  0  0
    4.3187   -3.3950    1.3831 H   0  0  0  0  0  0  0  0  0  0  0  0
    6.9749   -1.7997    1.2786 H   0  0  0  0  0  0  0  0  0  0  0  0
    5.7728    0.0592    1.7662 H   0  0  0  0  0  0  0  0  0  0  0  0
    2.5913   -2.6008    1.8473 H   0  0  0  0  0  0  0  0  0  0  0  0
    1.1444    1.3116    2.2697 H   0  0  0  0  0  0  0  0  0  0  0  0
    2.6004   -4.3795    0.7376 H   0  0  0  0  0  0  0  0  0  0  0  0
    1.5403   -7.2138    0.8308 H   0  0  0  0  0  0  0  0  0  0  0  0
    1.7301   -6.1859   -0.6070 H   0  0  0  0  0  0  0  0  0  0  0  0
    0.6005   -5.7788    0.6539 H   0  0  0  0  0  0  0  0  0  0  0  0
    1.6076   -4.4143    2.8247 H   0  0  0  0  0  0  0  0  0  0  0  0
    1.7665   -6.1236    3.0129 H   0  0  0  0  0  0  0  0  0  0  0  0
    3.9179   -4.0255    3.6001 H   0  0  0  0  0  0  0  0  0  0  0  0
    3.1362   -5.1456    4.6969 H   0  0  0  0  0  0  0  0  0  0  0  0
    3.9401   -7.0234    3.2433 H   0  0  0  0  0  0  0  0  0  0  0  0
    6.1289   -5.4334    4.5180 H   0  0  0  0  0  0  0  0  0  0  0  0
    4.7758   -8.0496    5.4914 H   0  0  0  0  0  0  0  0  0  0  0  0
    4.7076   -6.4779    6.2263 H   0  0  0  0  0  0  0  0  0  0  0  0
    6.2405   -7.3328    6.1438 H   0  0  0  0  0  0  0  0  0  0  0  0
    0.6198   -1.1701    2.1422 H   0  0  0  0  0  0  0  0  0  0  0  0
  1  2  1  0
  1 32  1  0
  1 33  1  0
  1 34  1  0
  2  3  1  0
  2  4  1  0
  2 35  1  0
  3 36  1  0
  3 37  1  0
  3 38  1  0
  4  5  1  0
  4 39  1  0
  4 40  1  0
  5  6  1  0
  5 41  1  0
  5 42  1  0
  6 29  1  0
  6  7  1  6
  6  8  1  0
  7 43  1  0
  9  8  1  6
  9 15  1  0
  9 28  1  0
  9 10  1  0
 10 11  1  0
 10 24  1  0
 10 44  1  6
 11 12  1  0
 11 45  1  0
 11 46  1  0
 12 16  1  0
 12 13  1  0
 12 47  1  6
 13 14  1  0
 13 15  1  0
 13 48  1  6
 14 49  1  0
 15 16  1  0
 15 50  1  1
 16 17  1  0
 16 51  1  1
 17 18  2  3
 17 52  1  0
 18 19  1  0
 18 53  1  0
 19 23  1  0
 19 20  2  0
 20 21  1  0
 20 54  1  0
 21 22  2  0
 21 69  1  0
 22 23  1  0
 22 55  1  0
 23 31  1  0
 24 25  1  0
 24 26  1  0
 24 56  1  6
 25 57  1  0
 25 58  1  0
 25 59  1  0
 26 27  1  0
 26 60  1  0
 26 61  1  0
 27 28  1  0
 27 62  1  0
 27 63  1  0
 28 29  1  0
 28 64  1  6
 29 30  1  0
 29 65  1  1
 30 66  1  0
 30 67  1  0
 30 68  1  0
M  CHG  1  21   1
M  END
>  <i_m_ct_stereo_status>  (32) 
1

>  <s_m_source_file>  (32) 
/var/tmp/pbs.5076255.sched01/tmpc_kifbv4/0gx9_4qhc.sdf

>  <i_m_source_file_index>  (32) 
13

>  <i_lp_mmshare_version>  (32) 
48012

>  <i_f3d_flags>  (32) 
0

>  <s_epik_input>  (32) 
W0NIM11bQ0hdKFtDSDNdKVtDSDJdW0NIMl1bQ0BdKE8xKShbT0hdKVtDQEhdKFtDSDNdKVtDQEhdMltDSDJdW0NIMl1bQ0BIXShbQ0gzXSlbQ0BIXShbQ0BdMTIzKVtDSDJdW0NAQEhdNFtDQEBIXShbT0hdKVtDQEhdM1tDQEhdNC9bQ0hdPVtDSF1cYzVbY0hdbltjSF1bbkhdNQ==

>  <s_epik_cmdline>  (32) 
J2VwaWtfcHl0aG9uJywgJy1waHQnLCAnMi4wJywgJy1waCcsICc3LjAnLCAnLXRuJywgJzgnLCAnLW1hJywgJzIwMCcsICctaW1hZScsICc8aW5maWxlLm1hZT4nLCAnLW9tYWUnLCAnPG91dGZpbGUubWFlPic=

>  <r_epik_Ionization_Penalty>  (32) 
0.307122

>  <r_epik_Ionization_Penalty_Charging>  (32) 
0

>  <r_epik_Ionization_Penalty_Neutral>  (32) 
0.307122

>  <r_epik_State_Penalty>  (32) 
0.277104

>  <r_epik_Charging_Adjusted_Penalty>  (32) 
0.277104

>  <i_epik_Tot_Q>  (32) 
1

>  <i_epik_Tot_abs_Q>  (32) 
1

>  <s_lp_Force_Field>  (32) 
OPLS3e

>  <r_lp_Energy>  (32) 
58.3957

>  <b_lp_Chiralities_Consistent>  (32) 
1

>  <s_lp_Variant>  (32) 
12:0-1

>  <s_i_glide_gridfile>  (32) 
pfpi4k_grid

>  <i_i_glide_lignum>  (32) 
13

>  <i_i_glide_rotatable_bonds>  (32) 
7

>  <r_i_docking_score>  (32) 
-2.79472

>  <r_i_glide_ligand_efficiency>  (32) 
-0.0931573

>  <r_i_glide_ligand_efficiency_sa>  (32) 
-0.289461

>  <r_i_glide_ligand_efficiency_ln>  (32) 
-0.634991

>  <r_i_glide_gscore>  (32) 
-2.79472

>  <r_i_glide_lipo>  (32) 
-0.69137

>  <r_i_glide_hbond>  (32) 
0

>  <r_i_glide_metal>  (32) 
-0

>  <r_i_glide_rewards>  (32) 
-0.579106

>  <r_i_glide_evdw>  (32) 
-20.2433

>  <r_i_glide_ecoul>  (32) 
-5.80082

>  <r_i_glide_erotb>  (32) 
0.457361

>  <r_i_glide_esite>  (32) 
-0.0993167

>  <r_i_glide_emodel>  (32) 
-31.6932

>  <r_i_glide_energy>  (32) 
-26.0441

>  <r_i_glide_einternal>  (32) 
1.88546

>  <r_i_glide_intrahb_reward>  (32) 
-0

>  <i_i_glide_confnum>  (32) 
3

>  <i_i_glide_posenum>  (32) 
4

>  <r_i_glide_eff_state_penalty>  (32) 
0

>  <ligand_id>  (32) 
12

>  <original_smiles>  (32) 
CC(C)CCC1(O)OC23C(CC4C(O)C2C4C=Cc2cnc[nH]2)C(C)CCC3C1C

>  <smiles>  (32) 
[H]OC1([H])C2([H])C([H])([H])C3([H])C([H])(C([H])([H])[H])C([H])([H])C([H])([H])C4([H])C([H])(C([H])([H])[H])C(O[H])(C([H])([H])C([H])([H])C([H])(C([H])([H])[H])C([H])([H])[H])OC34C1([H])C2([H])C([H])=C([H])c1c([H])[n+]([H])c([H])n1[H]

$$$$
12:0:1
     RDKit          3D

 69 73  0  0  1  0  0  0  0  0999 V2000
    0.3027  -10.1128    6.2074 C   0  0  0  0  0  0  0  0  0  0  0  0
    0.6253  -10.0493    4.7080 C   0  0  0  0  0  0  0  0  0  0  0  0
    1.4323  -11.2784    4.2582 C   0  0  0  0  0  0  0  0  0  0  0  0
    1.3616   -8.7535    4.3311 C   0  0  0  0  0  0  0  0  0  0  0  0
    0.5489   -7.4703    4.6693 C   0  0  0  0  0  0  0  0  0  0  0  0
    1.1235   -6.1924    4.0308 C   0  0  1  0  0  0  0  0  0  0  0  0
    0.4473   -5.0794    4.5678 O   0  0  0  0  0  0  0  0  0  0  0  0
    2.4969   -6.1352    4.3439 O   0  0  0  0  0  0  0  0  0  0  0  0
    3.2566   -5.6176    3.2443 C   0  0  2  0  0  0  0  0  0  0  0  0
    4.7646   -6.0725    3.2678 C   0  0  2  0  0  0  0  0  0  0  0  0
    5.6440   -5.0696    4.1008 C   0  0  0  0  0  0  0  0  0  0  0  0
    5.0684   -3.6333    4.0666 C   0  0  2  0  0  0  0  0  0  0  0  0
    3.6893   -3.5437    4.7077 C   0  0  1  0  0  0  0  0  0  0  0  0
    3.2354   -2.3127    5.2284 O   0  0  0  0  0  0  0  0  0  0  0  0
    3.1690   -4.0528    3.3508 C   0  0  1  0  0  0  0  0  0  0  0  0
    4.3538   -3.2614    2.7502 C   0  0  1  0  0  0  0  0  0  0  0  0
    4.1518   -1.7942    2.3824 C   0  0  0  0  0  0  0  0  0  0  0  0
    3.9367   -1.2750    1.1459 C   0  0  0  0  0  0  0  0  0  0  0  0
    3.8565   -1.9636   -0.1737 C   0  0  0  0  0  0  0  0  0  0  0  0
    4.0948   -3.2562   -0.5282 C   0  0  0  0  0  0  0  0  0  0  0  0
    3.6752   -3.3788   -1.8387 N   0  0  0  0  0  0  0  0  0  0  0  0
    3.3255   -2.1801   -2.3310 C   0  0  0  0  0  0  0  0  0  0  0  0
    3.4470   -1.2959   -1.3189 N   0  0  0  0  0  0  0  0  0  0  0  0
    5.3917   -6.2950    1.8307 C   0  0  1  0  0  0  0  0  0  0  0  0
    6.4274   -7.4476    1.8573 C   0  0  0  0  0  0  0  0  0  0  0  0
    4.3946   -6.5254    0.6388 C   0  0  0  0  0  0  0  0  0  0  0  0
    2.9626   -5.9081    0.7653 C   0  0  0  0  0  0  0  0  0  0  0  0
    2.4876   -6.3592    2.1329 C   0  0  2  0  0  0  0  0  0  0  0  0
    1.0383   -6.0971    2.4824 C   0  0  1  0  0  0  0  0  0  0  0  0
    0.0147   -7.0292    1.7725 C   0  0  0  0  0  0  0  0  0  0  0  0
    3.1826   -0.3160   -1.3849 H   0  0  0  0  0  0  0  0  0  0  0  0
    1.2117  -10.0398    6.8056 H   0  0  0  0  0  0  0  0  0  0  0  0
   -0.1717  -11.0586    6.4571 H   0  0  0  0  0  0  0  0  0  0  0  0
   -0.3809   -9.3178    6.5072 H   0  0  0  0  0  0  0  0  0  0  0  0
   -0.3144  -10.0704    4.1519 H   0  0  0  0  0  0  0  0  0  0  0  0
    2.4017  -11.3159    4.7545 H   0  0  0  0  0  0  0  0  0  0  0  0
    1.6094  -11.2687    3.1813 H   0  0  0  0  0  0  0  0  0  0  0  0
    0.9061  -12.2033    4.4938 H   0  0  0  0  0  0  0  0  0  0  0  0
    2.3452   -8.7112    4.8096 H   0  0  0  0  0  0  0  0  0  0  0  0
    1.5694   -8.8453    3.2700 H   0  0  0  0  0  0  0  0  0  0  0  0
   -0.5061   -7.5608    4.4004 H   0  0  0  0  0  0  0  0  0  0  0  0
    0.5817   -7.3187    5.7436 H   0  0  0  0  0  0  0  0  0  0  0  0
    0.5997   -5.0896    5.4946 H   0  0  0  0  0  0  0  0  0  0  0  0
    4.7881   -7.0393    3.7686 H   0  0  0  0  0  0  0  0  0  0  0  0
    5.6925   -5.4226    5.1384 H   0  0  0  0  0  0  0  0  0  0  0  0
    6.6711   -5.0781    3.7372 H   0  0  0  0  0  0  0  0  0  0  0  0
    5.7511   -2.8687    4.4238 H   0  0  0  0  0  0  0  0  0  0  0  0
    3.5885   -4.2866    5.4912 H   0  0  0  0  0  0  0  0  0  0  0  0
    3.3036   -1.6569    4.5505 H   0  0  0  0  0  0  0  0  0  0  0  0
    2.2087   -3.6113    3.1072 H   0  0  0  0  0  0  0  0  0  0  0  0
    4.8426   -3.7572    1.9358 H   0  0  0  0  0  0  0  0  0  0  0  0
    4.2287   -1.0774    3.1853 H   0  0  0  0  0  0  0  0  0  0  0  0
    3.8244   -0.2073    1.0991 H   0  0  0  0  0  0  0  0  0  0  0  0
    4.4473   -4.1212    0.0199 H   0  0  0  0  0  0  0  0  0  0  0  0
    3.0021   -1.9575   -3.3572 H   0  0  0  0  0  0  0  0  0  0  0  0
    5.9933   -5.4147    1.5799 H   0  0  0  0  0  0  0  0  0  0  0  0
    5.9616   -8.4163    2.0524 H   0  0  0  0  0  0  0  0  0  0  0  0
    7.1929   -7.3009    2.6202 H   0  0  0  0  0  0  0  0  0  0  0  0
    6.9495   -7.5367    0.9054 H   0  0  0  0  0  0  0  0  0  0  0  0
    4.8703   -6.1654   -0.2645 H   0  0  0  0  0  0  0  0  0  0  0  0
    4.3174   -7.5978    0.4564 H   0  0  0  0  0  0  0  0  0  0  0  0
    2.8880   -4.8294    0.7550 H   0  0  0  0  0  0  0  0  0  0  0  0
    2.3151   -6.2844   -0.0397 H   0  0  0  0  0  0  0  0  0  0  0  0
    2.6934   -7.4371    2.2267 H   0  0  0  0  0  0  0  0  0  0  0  0
    0.8080   -5.0660    2.2122 H   0  0  0  0  0  0  0  0  0  0  0  0
    0.2278   -8.0925    1.8969 H   0  0  0  0  0  0  0  0  0  0  0  0
    0.0145   -6.8649    0.6875 H   0  0  0  0  0  0  0  0  0  0  0  0
   -0.9942   -6.8530    2.1507 H   0  0  0  0  0  0  0  0  0  0  0  0
    3.5912   -4.2692   -2.3377 H   0  0  0  0  0  0  0  0  0  0  0  0
  1  2  1  0
  1 32  1  0
  1 33  1  0
  1 34  1  0
  2  3  1  0
  2  4  1  0
  2 35  1  0
  3 36  1  0
  3 37  1  0
  3 38  1  0
  4  5  1  0
  4 39  1  0
  4 40  1  0
  5  6  1  0
  5 41  1  0
  5 42  1  0
  6 29  1  0
  6  7  1  1
  6  8  1  0
  7 43  1  0
  9  8  1  1
  9 15  1  0
  9 28  1  0
  9 10  1  0
 10 11  1  0
 10 24  1  0
 10 44  1  1
 11 12  1  0
 11 45  1  0
 11 46  1  0
 12 16  1  0
 12 13  1  0
 12 47  1  1
 13 14  1  0
 13 15  1  0
 13 48  1  1
 14 49  1  0
 15 16  1  0
 15 50  1  6
 16 17  1  0
 16 51  1  6
 17 18  2  3
 17 52  1  0
 18 19  1  0
 18 53  1  0
 19 23  1  0
 19 20  2  0
 20 21  1  0
 20 54  1  0
 21 22  2  0
 21 69  1  0
 22 23  1  0
 22 55  1  0
 23 31  1  0
 24 25  1  0
 24 26  1  0
 24 56  1  6
 25 57  1  0
 25 58  1  0
 25 59  1  0
 26 27  1  0
 26 60  1  0
 26 61  1  0
 27 28  1  0
 27 62  1  0
 27 63  1  0
 28 29  1  0
 28 64  1  1
 29 30  1  0
 29 65  1  1
 30 66  1  0
 30 67  1  0
 30 68  1  0
M  CHG  1  21   1
M  END
>  <i_m_ct_stereo_status>  (33) 
1

>  <s_m_source_file>  (33) 
/var/tmp/pbs.5076255.sched01/tmpc_kifbv4/0gx9_4qhc.sdf

>  <i_m_source_file_index>  (33) 
13

>  <i_lp_mmshare_version>  (33) 
48012

>  <i_f3d_flags>  (33) 
0

>  <s_epik_input>  (33) 
W0NIM11bQ0hdKFtDSDNdKVtDSDJdW0NIMl1bQ0BdKE8xKShbT0hdKVtDQEhdKFtDSDNdKVtDQEhdMltDSDJdW0NIMl1bQ0BIXShbQ0gzXSlbQ0BIXShbQ0BdMTIzKVtDSDJdW0NAQEhdNFtDQEBIXShbT0hdKVtDQEhdM1tDQEhdNC9bQ0hdPVtDSF1cYzVbY0hdbltjSF1bbkhdNQ==

>  <s_epik_cmdline>  (33) 
J2VwaWtfcHl0aG9uJywgJy1waHQnLCAnMi4wJywgJy1waCcsICc3LjAnLCAnLXRuJywgJzgnLCAnLW1hJywgJzIwMCcsICctaW1hZScsICc8aW5maWxlLm1hZT4nLCAnLW9tYWUnLCAnPG91dGZpbGUubWFlPic=

>  <r_epik_Ionization_Penalty>  (33) 
0.307122

>  <r_epik_Ionization_Penalty_Charging>  (33) 
0

>  <r_epik_Ionization_Penalty_Neutral>  (33) 
0.307122

>  <r_epik_State_Penalty>  (33) 
0.277104

>  <r_epik_Charging_Adjusted_Penalty>  (33) 
0.277104

>  <i_epik_Tot_Q>  (33) 
1

>  <i_epik_Tot_abs_Q>  (33) 
1

>  <s_lp_Force_Field>  (33) 
OPLS3e

>  <r_lp_Energy>  (33) 
58.3957

>  <b_lp_Chiralities_Consistent>  (33) 
1

>  <s_lp_Variant>  (33) 
12:0-1

>  <s_i_glide_gridfile>  (33) 
pfpi4k_grid

>  <i_i_glide_lignum>  (33) 
13

>  <i_i_glide_rotatable_bonds>  (33) 
7

>  <r_i_docking_score>  (33) 
-2.29091

>  <r_i_glide_ligand_efficiency>  (33) 
-0.0763638

>  <r_i_glide_ligand_efficiency_sa>  (33) 
-0.23728

>  <r_i_glide_ligand_efficiency_ln>  (33) 
-0.520521

>  <r_i_glide_gscore>  (33) 
-2.29091

>  <r_i_glide_lipo>  (33) 
-0.418841

>  <r_i_glide_hbond>  (33) 
0

>  <r_i_glide_metal>  (33) 
-0

>  <r_i_glide_rewards>  (33) 
-0.575531

>  <r_i_glide_evdw>  (33) 
-21.9086

>  <r_i_glide_ecoul>  (33) 
-3.32183

>  <r_i_glide_erotb>  (33) 
0.457361

>  <r_i_glide_esite>  (33) 
-0.160201

>  <r_i_glide_emodel>  (33) 
-27.2079

>  <r_i_glide_energy>  (33) 
-25.2304

>  <r_i_glide_einternal>  (33) 
1.70568

>  <r_i_glide_intrahb_reward>  (33) 
-0

>  <i_i_glide_confnum>  (33) 
3

>  <i_i_glide_posenum>  (33) 
2

>  <r_i_glide_eff_state_penalty>  (33) 
0

>  <ligand_id>  (33) 
12

>  <original_smiles>  (33) 
CC(C)CCC1(O)OC23C(CC4C(O)C2C4C=Cc2cnc[nH]2)C(C)CCC3C1C

>  <smiles>  (33) 
[H]OC1([H])C2([H])C([H])([H])C3([H])C([H])(C([H])([H])[H])C([H])([H])C([H])([H])C4([H])C([H])(C([H])([H])[H])C(O[H])(C([H])([H])C([H])([H])C([H])(C([H])([H])[H])C([H])([H])[H])OC34C1([H])C2([H])C([H])=C([H])c1c([H])[n+]([H])c([H])n1[H]

$$$$
12:0:2
     RDKit          3D

 69 73  0  0  1  0  0  0  0  0999 V2000
    0.6123   -7.5056   10.1441 C   0  0  0  0  0  0  0  0  0  0  0  0
    0.4584   -8.0845    8.7393 C   0  0  0  0  0  0  0  0  0  0  0  0
    1.1949   -9.4231    8.6055 C   0  0  0  0  0  0  0  0  0  0  0  0
    0.9491   -7.1053    7.6569 C   0  0  0  0  0  0  0  0  0  0  0  0
    0.1059   -5.7966    7.5768 C   0  0  0  0  0  0  0  0  0  0  0  0
    0.4901   -4.8729    6.3991 C   0  0  1  0  0  0  0  0  0  0  0  0
   -0.1870   -3.6494    6.5821 O   0  0  0  0  0  0  0  0  0  0  0  0
    1.8793   -4.6704    6.4683 O   0  0  0  0  0  0  0  0  0  0  0  0
    2.4651   -4.5976    5.1649 C   0  0  2  0  0  0  0  0  0  0  0  0
    3.9912   -4.9932    5.1603 C   0  0  2  0  0  0  0  0  0  0  0  0
    4.8995   -3.7326    5.4058 C   0  0  0  0  0  0  0  0  0  0  0  0
    4.2310   -2.4398    4.8961 C   0  0  2  0  0  0  0  0  0  0  0  0
    2.9338   -2.1103    5.6463 C   0  0  1  0  0  0  0  0  0  0  0  0
    2.4577   -0.7803    5.7177 O   0  0  0  0  0  0  0  0  0  0  0  0
    2.2797   -3.1210    4.6837 C   0  0  1  0  0  0  0  0  0  0  0  0
    3.3251   -2.6361    3.6648 C   0  0  1  0  0  0  0  0  0  0  0  0
    3.0021   -1.4296    2.7791 C   0  0  0  0  0  0  0  0  0  0  0  0
    3.0625   -1.3730    1.4289 C   0  0  0  0  0  0  0  0  0  0  0  0
    3.4833   -2.3954    0.4469 C   0  0  0  0  0  0  0  0  0  0  0  0
    4.2633   -3.5057    0.5758 C   0  0  0  0  0  0  0  0  0  0  0  0
    4.2557   -4.1203   -0.6395 N   0  0  0  0  0  0  0  0  0  0  0  0
    3.5150   -3.4154   -1.5151 C   0  0  0  0  0  0  0  0  0  0  0  0
    3.0214   -2.3649   -0.8422 N   0  0  0  0  0  0  0  0  0  0  0  0
    4.4630   -5.7527    3.8581 C   0  0  1  0  0  0  0  0  0  0  0  0
    5.5655   -6.7821    4.1757 C   0  0  0  0  0  0  0  0  0  0  0  0
    3.3669   -6.4418    2.9759 C   0  0  0  0  0  0  0  0  0  0  0  0
    1.9545   -5.8337    3.0342 C   0  0  0  0  0  0  0  0  0  0  0  0
    1.6246   -5.6898    4.5055 C   0  0  2  0  0  0  0  0  0  0  0  0
    0.2131   -5.3767    4.9463 C   0  0  1  0  0  0  0  0  0  0  0  0
   -0.8310   -6.5239    4.8112 C   0  0  0  0  0  0  0  0  0  0  0  0
    2.3343   -1.6924   -1.1884 H   0  0  0  0  0  0  0  0  0  0  0  0
    1.6510   -7.2283   10.3316 H   0  0  0  0  0  0  0  0  0  0  0  0
    0.3146   -8.2293   10.9024 H   0  0  0  0  0  0  0  0  0  0  0  0
    0.0022   -6.6129   10.2854 H   0  0  0  0  0  0  0  0  0  0  0  0
   -0.5972   -8.2876    8.5597 H   0  0  0  0  0  0  0  0  0  0  0  0
    2.2713   -9.3013    8.7301 H   0  0  0  0  0  0  0  0  0  0  0  0
    1.0300   -9.8640    7.6204 H   0  0  0  0  0  0  0  0  0  0  0  0
    0.8553  -10.1492    9.3458 H   0  0  0  0  0  0  0  0  0  0  0  0
    2.0053   -6.8635    7.8112 H   0  0  0  0  0  0  0  0  0  0  0  0
    0.9398   -7.6742    6.7196 H   0  0  0  0  0  0  0  0  0  0  0  0
   -0.9666   -5.9829    7.5489 H   0  0  0  0  0  0  0  0  0  0  0  0
    0.2844   -5.2261    8.4808 H   0  0  0  0  0  0  0  0  0  0  0  0
    0.1925   -3.2334    7.3426 H   0  0  0  0  0  0  0  0  0  0  0  0
    4.1441   -5.6894    5.9817 H   0  0  0  0  0  0  0  0  0  0  0  0
    5.1070   -3.6466    6.4764 H   0  0  0  0  0  0  0  0  0  0  0  0
    5.8690   -3.8562    4.9271 H   0  0  0  0  0  0  0  0  0  0  0  0
    4.8889   -1.5692    4.8165 H   0  0  0  0  0  0  0  0  0  0  0  0
    2.9853   -2.5017    6.6640 H   0  0  0  0  0  0  0  0  0  0  0  0
    2.5206   -0.4081    4.8557 H   0  0  0  0  0  0  0  0  0  0  0  0
    1.2639   -2.8225    4.4168 H   0  0  0  0  0  0  0  0  0  0  0  0
    3.6251   -3.4621    3.0585 H   0  0  0  0  0  0  0  0  0  0  0  0
    2.6763   -0.5085    3.2462 H   0  0  0  0  0  0  0  0  0  0  0  0
    2.7687   -0.4322    0.9859 H   0  0  0  0  0  0  0  0  0  0  0  0
    4.8230   -3.9248    1.4081 H   0  0  0  0  0  0  0  0  0  0  0  0
    3.3284   -3.6926   -2.5296 H   0  0  0  0  0  0  0  0  0  0  0  0
    4.9676   -5.0347    3.2122 H   0  0  0  0  0  0  0  0  0  0  0  0
    5.1896   -7.5968    4.7949 H   0  0  0  0  0  0  0  0  0  0  0  0
    6.4051   -6.3273    4.7022 H   0  0  0  0  0  0  0  0  0  0  0  0
    5.9620   -7.2309    3.2629 H   0  0  0  0  0  0  0  0  0  0  0  0
    3.6969   -6.4462    1.9376 H   0  0  0  0  0  0  0  0  0  0  0  0
    3.2942   -7.4986    3.2514 H   0  0  0  0  0  0  0  0  0  0  0  0
    1.8958   -4.8774    2.5081 H   0  0  0  0  0  0  0  0  0  0  0  0
    1.2474   -6.5076    2.5462 H   0  0  0  0  0  0  0  0  0  0  0  0
    1.8980   -6.6357    4.9651 H   0  0  0  0  0  0  0  0  0  0  0  0
   -0.1464   -4.5384    4.3626 H   0  0  0  0  0  0  0  0  0  0  0  0
   -0.5654   -7.4786    5.2824 H   0  0  0  0  0  0  0  0  0  0  0  0
   -0.9973   -6.7716    3.7619 H   0  0  0  0  0  0  0  0  0  0  0  0
   -1.7925   -6.2334    5.2381 H   0  0  0  0  0  0  0  0  0  0  0  0
    4.7045   -4.9951   -0.8702 H   0  0  0  0  0  0  0  0  0  0  0  0
  1  2  1  0
  1 32  1  0
  1 33  1  0
  1 34  1  0
  2  3  1  0
  2  4  1  0
  2 35  1  0
  3 36  1  0
  3 37  1  0
  3 38  1  0
  4  5  1  0
  4 39  1  0
  4 40  1  0
  5  6  1  0
  5 41  1  0
  5 42  1  0
  6 29  1  0
  6  7  1  1
  6  8  1  0
  7 43  1  0
  9  8  1  1
  9 15  1  0
  9 28  1  0
  9 10  1  0
 10 11  1  0
 10 24  1  0
 10 44  1  1
 11 12  1  0
 11 45  1  0
 11 46  1  0
 12 16  1  0
 12 13  1  0
 12 47  1  6
 13 14  1  0
 13 15  1  0
 13 48  1  1
 14 49  1  0
 15 16  1  0
 15 50  1  6
 16 17  1  0
 16 51  1  6
 17 18  2  3
 17 52  1  0
 18 19  1  0
 18 53  1  0
 19 23  1  0
 19 20  2  0
 20 21  1  0
 20 54  1  0
 21 22  2  0
 21 69  1  0
 22 23  1  0
 22 55  1  0
 23 31  1  0
 24 25  1  0
 24 26  1  0
 24 56  1  6
 25 57  1  0
 25 58  1  0
 25 59  1  0
 26 27  1  0
 26 60  1  0
 26 61  1  0
 27 28  1  0
 27 62  1  0
 27 63  1  0
 28 29  1  0
 28 64  1  1
 29 30  1  0
 29 65  1  6
 30 66  1  0
 30 67  1  0
 30 68  1  0
M  CHG  1  21   1
M  END
>  <i_m_ct_stereo_status>  (34) 
1

>  <s_m_source_file>  (34) 
/var/tmp/pbs.5076255.sched01/tmpc_kifbv4/0gx9_4qhc.sdf

>  <i_m_source_file_index>  (34) 
13

>  <i_lp_mmshare_version>  (34) 
48012

>  <i_f3d_flags>  (34) 
0

>  <s_epik_input>  (34) 
W0NIM11bQ0hdKFtDSDNdKVtDSDJdW0NIMl1bQ0BdKE8xKShbT0hdKVtDQEhdKFtDSDNdKVtDQEhdMltDSDJdW0NIMl1bQ0BIXShbQ0gzXSlbQ0BIXShbQ0BdMTIzKVtDSDJdW0NAQEhdNFtDQEBIXShbT0hdKVtDQEhdM1tDQEhdNC9bQ0hdPVtDSF1cYzVbY0hdbltjSF1bbkhdNQ==

>  <s_epik_cmdline>  (34) 
J2VwaWtfcHl0aG9uJywgJy1waHQnLCAnMi4wJywgJy1waCcsICc3LjAnLCAnLXRuJywgJzgnLCAnLW1hJywgJzIwMCcsICctaW1hZScsICc8aW5maWxlLm1hZT4nLCAnLW9tYWUnLCAnPG91dGZpbGUubWFlPic=

>  <r_epik_Ionization_Penalty>  (34) 
0.307122

>  <r_epik_Ionization_Penalty_Charging>  (34) 
0

>  <r_epik_Ionization_Penalty_Neutral>  (34) 
0.307122

>  <r_epik_State_Penalty>  (34) 
0.277104

>  <r_epik_Charging_Adjusted_Penalty>  (34) 
0.277104

>  <i_epik_Tot_Q>  (34) 
1

>  <i_epik_Tot_abs_Q>  (34) 
1

>  <s_lp_Force_Field>  (34) 
OPLS3e

>  <r_lp_Energy>  (34) 
58.3957

>  <b_lp_Chiralities_Consistent>  (34) 
1

>  <s_lp_Variant>  (34) 
12:0-1

>  <s_i_glide_gridfile>  (34) 
pfpi4k_grid

>  <i_i_glide_lignum>  (34) 
13

>  <i_i_glide_rotatable_bonds>  (34) 
7

>  <r_i_docking_score>  (34) 
-2.25719

>  <r_i_glide_ligand_efficiency>  (34) 
-0.0752397

>  <r_i_glide_ligand_efficiency_sa>  (34) 
-0.233787

>  <r_i_glide_ligand_efficiency_ln>  (34) 
-0.512858

>  <r_i_glide_gscore>  (34) 
-2.25719

>  <r_i_glide_lipo>  (34) 
-0.033534

>  <r_i_glide_hbond>  (34) 
-0.16999

>  <r_i_glide_metal>  (34) 
-0

>  <r_i_glide_rewards>  (34) 
-0.631544

>  <r_i_glide_evdw>  (34) 
-15.8383

>  <r_i_glide_ecoul>  (34) 
-6.59983

>  <r_i_glide_erotb>  (34) 
0.457361

>  <r_i_glide_esite>  (34) 
-0.0975924

>  <r_i_glide_emodel>  (34) 
-26.9566

>  <r_i_glide_energy>  (34) 
-22.4381

>  <r_i_glide_einternal>  (34) 
1.60716

>  <r_i_glide_intrahb_reward>  (34) 
-0

>  <i_i_glide_confnum>  (34) 
3

>  <i_i_glide_posenum>  (34) 
12

>  <r_i_glide_eff_state_penalty>  (34) 
0

>  <ligand_id>  (34) 
12

>  <original_smiles>  (34) 
CC(C)CCC1(O)OC23C(CC4C(O)C2C4C=Cc2cnc[nH]2)C(C)CCC3C1C

>  <smiles>  (34) 
[H]OC1([H])C2([H])C([H])([H])C3([H])C([H])(C([H])([H])[H])C([H])([H])C([H])([H])C4([H])C([H])(C([H])([H])[H])C(O[H])(C([H])([H])C([H])([H])C([H])(C([H])([H])[H])C([H])([H])[H])OC34C1([H])C2([H])C([H])=C([H])c1c([H])[n+]([H])c([H])n1[H]

$$$$
12:1:0
     RDKit          3D

 69 73  0  0  1  0  0  0  0  0999 V2000
   -2.7791    2.4520    7.1291 C   0  0  0  0  0  0  0  0  0  0  0  0
   -2.3512    3.0660    8.4724 C   0  0  0  0  0  0  0  0  0  0  0  0
   -3.5801    3.4196    9.3263 C   0  0  0  0  0  0  0  0  0  0  0  0
   -1.4074    4.2721    8.2463 C   0  0  0  0  0  0  0  0  0  0  0  0
    0.0536    4.0488    8.7107 C   0  0  0  0  0  0  0  0  0  0  0  0
    0.9023    3.2858    7.6555 C   0  0  1  0  0  0  0  0  0  0  0  0
    0.4538    1.9485    7.5804 O   0  0  0  0  0  0  0  0  0  0  0  0
    0.7423    3.9620    6.4310 O   0  0  0  0  0  0  0  0  0  0  0  0
    1.9496    3.9680    5.6655 C   0  0  2  0  0  0  0  0  0  0  0  0
    1.9956    5.1559    4.6365 C   0  0  2  0  0  0  0  0  0  0  0  0
    1.3846    4.7144    3.2617 C   0  0  0  0  0  0  0  0  0  0  0  0
    1.5542    3.2016    3.0141 C   0  0  2  0  0  0  0  0  0  0  0  0
    0.7897    2.3562    4.0388 C   0  0  1  0  0  0  0  0  0  0  0  0
    0.3994    1.0335    3.7249 O   0  0  0  0  0  0  0  0  0  0  0  0
    2.0257    2.5955    4.9330 C   0  0  1  0  0  0  0  0  0  0  0  0
    2.8281    2.5691    3.6183 C   0  0  1  0  0  0  0  0  0  0  0  0
    3.3620    1.2213    3.1296 C   0  0  0  0  0  0  0  0  0  0  0  0
    2.9969    0.5641    2.0155 C   0  0  0  0  0  0  0  0  0  0  0  0
    3.5614   -0.6984    1.5132 C   0  0  0  0  0  0  0  0  0  0  0  0
    4.6452   -1.4294    1.9538 C   0  0  0  0  0  0  0  0  0  0  0  0
    4.6999   -2.5330    1.1347 N   0  0  0  0  0  0  0  0  0  0  0  0
    3.7059   -2.4970    0.2305 C   0  0  0  0  0  0  0  0  0  0  0  0
    3.0194   -1.3710    0.4529 N   0  0  0  0  0  0  0  0  0  0  0  0
    3.4350    5.7663    4.4144 C   0  0  1  0  0  0  0  0  0  0  0  0
    3.3554    7.2850    4.1475 C   0  0  0  0  0  0  0  0  0  0  0  0
    4.5134    5.5056    5.5195 C   0  0  0  0  0  0  0  0  0  0  0  0
    4.3447    4.2263    6.3592 C   0  0  0  0  0  0  0  0  0  0  0  0
    2.8996    4.2229    6.8283 C   0  0  2  0  0  0  0  0  0  0  0  0
    2.4430    3.2455    7.8922 C   0  0  1  0  0  0  0  0  0  0  0  0
    2.8911    3.5822    9.3285 C   0  0  0  0  0  0  0  0  0  0  0  0
    2.1479   -1.1246   -0.0290 H   0  0  0  0  0  0  0  0  0  0  0  0
   -3.3566    3.1602    6.5352 H   0  0  0  0  0  0  0  0  0  0  0  0
   -3.3848    1.5629    7.2784 H   0  0  0  0  0  0  0  0  0  0  0  0
   -1.9160    2.1604    6.5319 H   0  0  0  0  0  0  0  0  0  0  0  0
   -1.8118    2.2988    9.0297 H   0  0  0  0  0  0  0  0  0  0  0  0
   -4.1784    4.2144    8.8799 H   0  0  0  0  0  0  0  0  0  0  0  0
   -3.2862    3.7451   10.3248 H   0  0  0  0  0  0  0  0  0  0  0  0
   -4.2272    2.5526    9.4534 H   0  0  0  0  0  0  0  0  0  0  0  0
   -1.4452    4.6101    7.2098 H   0  0  0  0  0  0  0  0  0  0  0  0
   -1.7929    5.1258    8.7995 H   0  0  0  0  0  0  0  0  0  0  0  0
    0.5054    5.0316    8.8600 H   0  0  0  0  0  0  0  0  0  0  0  0
    0.0970    3.5392    9.6743 H   0  0  0  0  0  0  0  0  0  0  0  0
    1.0194    1.4915    6.9806 H   0  0  0  0  0  0  0  0  0  0  0  0
    1.3799    5.9577    5.0417 H   0  0  0  0  0  0  0  0  0  0  0  0
    0.3213    4.9774    3.2462 H   0  0  0  0  0  0  0  0  0  0  0  0
    1.8252    5.2774    2.4430 H   0  0  0  0  0  0  0  0  0  0  0  0
    1.3569    2.8925    1.9905 H   0  0  0  0  0  0  0  0  0  0  0  0
   -0.0907    2.8922    4.3953 H   0  0  0  0  0  0  0  0  0  0  0  0
    1.0594    0.6704    3.1580 H   0  0  0  0  0  0  0  0  0  0  0  0
    2.2287    1.7284    5.5570 H   0  0  0  0  0  0  0  0  0  0  0  0
    3.6665    3.2522    3.6318 H   0  0  0  0  0  0  0  0  0  0  0  0
    4.1355    0.7907    3.7535 H   0  0  0  0  0  0  0  0  0  0  0  0
    2.2272    0.9799    1.3813 H   0  0  0  0  0  0  0  0  0  0  0  0
    5.3521   -1.2679    2.7506 H   0  0  0  0  0  0  0  0  0  0  0  0
    3.4973   -3.2388   -0.5280 H   0  0  0  0  0  0  0  0  0  0  0  0
    3.8396    5.3435    3.4906 H   0  0  0  0  0  0  0  0  0  0  0  0
    2.9983    7.8359    5.0198 H   0  0  0  0  0  0  0  0  0  0  0  0
    2.6820    7.5175    3.3229 H   0  0  0  0  0  0  0  0  0  0  0  0
    4.3334    7.6927    3.8920 H   0  0  0  0  0  0  0  0  0  0  0  0
    5.4964    5.4919    5.0551 H   0  0  0  0  0  0  0  0  0  0  0  0
    4.5367    6.3555    6.2106 H   0  0  0  0  0  0  0  0  0  0  0  0
    4.5889    3.3251    5.7912 H   0  0  0  0  0  0  0  0  0  0  0  0
    5.0291    4.2547    7.2126 H   0  0  0  0  0  0  0  0  0  0  0  0
    2.6963    5.2191    7.2238 H   0  0  0  0  0  0  0  0  0  0  0  0
    2.8243    2.2557    7.6423 H   0  0  0  0  0  0  0  0  0  0  0  0
    2.6189    4.5934    9.6342 H   0  0  0  0  0  0  0  0  0  0  0  0
    3.9726    3.5013    9.4209 H   0  0  0  0  0  0  0  0  0  0  0  0
    2.4569    2.8827   10.0425 H   0  0  0  0  0  0  0  0  0  0  0  0
    5.3749   -3.2807    1.1958 H   0  0  0  0  0  0  0  0  0  0  0  0
  1  2  1  0
  1 32  1  0
  1 33  1  0
  1 34  1  0
  2  3  1  0
  2  4  1  0
  2 35  1  0
  3 36  1  0
  3 37  1  0
  3 38  1  0
  4  5  1  0
  4 39  1  0
  4 40  1  0
  5  6  1  0
  5 41  1  0
  5 42  1  0
  6 29  1  0
  6  7  1  6
  6  8  1  0
  7 43  1  0
  9  8  1  1
  9 15  1  0
  9 28  1  0
  9 10  1  0
 10 11  1  0
 10 24  1  0
 10 44  1  1
 11 12  1  0
 11 45  1  0
 11 46  1  0
 12 16  1  0
 12 13  1  0
 12 47  1  6
 13 14  1  0
 13 15  1  0
 13 48  1  1
 14 49  1  0
 15 16  1  0
 15 50  1  1
 16 17  1  0
 16 51  1  1
 17 18  2  3
 17 52  1  0
 18 19  1  0
 18 53  1  0
 19 23  1  0
 19 20  2  0
 20 21  1  0
 20 54  1  0
 21 22  2  0
 21 69  1  0
 22 23  1  0
 22 55  1  0
 23 31  1  0
 24 25  1  0
 24 26  1  0
 24 56  1  6
 25 57  1  0
 25 58  1  0
 25 59  1  0
 26 27  1  0
 26 60  1  0
 26 61  1  0
 27 28  1  0
 27 62  1  0
 27 63  1  0
 28 29  1  0
 28 64  1  1
 29 30  1  0
 29 65  1  6
 30 66  1  0
 30 67  1  0
 30 68  1  0
M  CHG  1  21   1
M  END
>  <i_m_ct_stereo_status>  (35) 
1

>  <s_m_source_file>  (35) 
/var/tmp/pbs.5076255.sched01/tmpc_kifbv4/0gx9_4qhc.sdf

>  <i_m_source_file_index>  (35) 
14

>  <i_lp_mmshare_version>  (35) 
48012

>  <i_f3d_flags>  (35) 
0

>  <s_epik_input>  (35) 
W0NIM11bQ0hdKFtDSDNdKVtDSDJdW0NIMl1bQ0BdKE8xKShbT0hdKVtDQEhdKFtDSDNdKVtDQEhdMltDSDJdW0NIMl1bQ0BIXShbQ0gzXSlbQ0BIXShbQ0BdMTIzKVtDSDJdW0NAQEhdNFtDQEBIXShbT0hdKVtDQEhdM1tDQEhdNC9bQ0hdPVtDSF1cYzVbY0hdbltjSF1bbkhdNQ==

>  <s_epik_cmdline>  (35) 
J2VwaWtfcHl0aG9uJywgJy1waHQnLCAnMi4wJywgJy1waCcsICc3LjAnLCAnLXRuJywgJzgnLCAnLW1hJywgJzIwMCcsICctaW1hZScsICc8aW5maWxlLm1hZT4nLCAnLW9tYWUnLCAnPG91dGZpbGUubWFlPic=

>  <r_epik_Ionization_Penalty>  (35) 
0.307122

>  <r_epik_Ionization_Penalty_Charging>  (35) 
0

>  <r_epik_Ionization_Penalty_Neutral>  (35) 
0.307122

>  <r_epik_State_Penalty>  (35) 
0.277104

>  <r_epik_Charging_Adjusted_Penalty>  (35) 
0.277104

>  <i_epik_Tot_Q>  (35) 
1

>  <i_epik_Tot_abs_Q>  (35) 
1

>  <s_lp_Force_Field>  (35) 
OPLS3e

>  <r_lp_Energy>  (35) 
55.8238

>  <b_lp_Chiralities_Consistent>  (35) 
1

>  <s_lp_Variant>  (35) 
12:0-2

>  <s_i_glide_gridfile>  (35) 
pfpi4k_grid

>  <i_i_glide_lignum>  (35) 
14

>  <i_i_glide_rotatable_bonds>  (35) 
7

>  <r_i_docking_score>  (35) 
-2.83114

>  <r_i_glide_ligand_efficiency>  (35) 
-0.0943713

>  <r_i_glide_ligand_efficiency_sa>  (35) 
-0.293234

>  <r_i_glide_ligand_efficiency_ln>  (35) 
-0.643266

>  <r_i_glide_gscore>  (35) 
-2.83114

>  <r_i_glide_lipo>  (35) 
-0.385897

>  <r_i_glide_hbond>  (35) 
-0.2

>  <r_i_glide_metal>  (35) 
-0

>  <r_i_glide_rewards>  (35) 
-0.575531

>  <r_i_glide_evdw>  (35) 
-20.0061

>  <r_i_glide_ecoul>  (35) 
-6.78487

>  <r_i_glide_erotb>  (35) 
0.457361

>  <r_i_glide_esite>  (35) 
-0.109039

>  <r_i_glide_emodel>  (35) 
-27.5825

>  <r_i_glide_energy>  (35) 
-26.7909

>  <r_i_glide_einternal>  (35) 
8.90326

>  <r_i_glide_intrahb_reward>  (35) 
-0

>  <i_i_glide_confnum>  (35) 
3

>  <i_i_glide_posenum>  (35) 
20

>  <r_i_glide_eff_state_penalty>  (35) 
0

>  <ligand_id>  (35) 
12

>  <original_smiles>  (35) 
CC(C)CCC1(O)OC23C(CC4C(O)C2C4C=Cc2cnc[nH]2)C(C)CCC3C1C

>  <smiles>  (35) 
[H]OC1([H])C2([H])C([H])([H])C3([H])C([H])(C([H])([H])[H])C([H])([H])C([H])([H])C4([H])C([H])(C([H])([H])[H])C(O[H])(C([H])([H])C([H])([H])C([H])(C([H])([H])[H])C([H])([H])[H])OC34C1([H])C2([H])C([H])=C([H])c1c([H])[n+]([H])c([H])n1[H]

$$$$
12:1:1
     RDKit          3D

 69 73  0  0  1  0  0  0  0  0999 V2000
    0.3084  -10.0023    5.9960 C   0  0  0  0  0  0  0  0  0  0  0  0
    0.8313   -9.5742    4.6232 C   0  0  0  0  0  0  0  0  0  0  0  0
   -0.1400   -9.9929    3.4968 C   0  0  0  0  0  0  0  0  0  0  0  0
    2.2690  -10.0813    4.3768 C   0  0  0  0  0  0  0  0  0  0  0  0
    2.9184   -9.6739    3.0269 C   0  0  0  0  0  0  0  0  0  0  0  0
    2.9210   -8.1357    2.7867 C   0  0  1  0  0  0  0  0  0  0  0  0
    1.6219   -7.6948    2.4824 O   0  0  0  0  0  0  0  0  0  0  0  0
    3.4138   -7.5398    3.9626 O   0  0  0  0  0  0  0  0  0  0  0  0
    4.1902   -6.3844    3.6761 C   0  0  2  0  0  0  0  0  0  0  0  0
    5.1928   -6.0571    4.8336 C   0  0  2  0  0  0  0  0  0  0  0  0
    4.5422   -5.0730    5.8718 C   0  0  0  0  0  0  0  0  0  0  0  0
    3.4661   -4.1648    5.2236 C   0  0  2  0  0  0  0  0  0  0  0  0
    2.2821   -4.9760    4.6867 C   0  0  1  0  0  0  0  0  0  0  0  0
    1.0163   -4.3552    4.5289 O   0  0  0  0  0  0  0  0  0  0  0  0
    3.1827   -5.2068    3.4547 C   0  0  1  0  0  0  0  0  0  0  0  0
    3.7300   -3.7911    3.7381 C   0  0  1  0  0  0  0  0  0  0  0  0
    2.9904   -2.6055    3.0935 C   0  0  0  0  0  0  0  0  0  0  0  0
    3.0212   -1.3454    3.5644 C   0  0  0  0  0  0  0  0  0  0  0  0
    2.3902   -0.1474    2.9474 C   0  0  0  0  0  0  0  0  0  0  0  0
    1.5019   -0.0700    1.9036 C   0  0  0  0  0  0  0  0  0  0  0  0
    1.2640    1.2683    1.7123 N   0  0  0  0  0  0  0  0  0  0  0  0
    1.9981    1.9974    2.5624 C   0  0  0  0  0  0  0  0  0  0  0  0
    2.6993    1.1391    3.3181 N   0  0  0  0  0  0  0  0  0  0  0  0
    6.5639   -5.4760    4.3293 C   0  0  1  0  0  0  0  0  0  0  0  0
    7.7313   -5.9159    5.2357 C   0  0  0  0  0  0  0  0  0  0  0  0
    6.9704   -5.7238    2.8325 C   0  0  0  0  0  0  0  0  0  0  0  0
    5.8231   -5.9292    1.8366 C   0  0  0  0  0  0  0  0  0  0  0  0
    4.9153   -6.9598    2.4653 C   0  0  2  0  0  0  0  0  0  0  0  0
    3.8238   -7.6001    1.6448 C   0  0  1  0  0  0  0  0  0  0  0  0
    4.2785   -8.6711    0.6348 C   0  0  0  0  0  0  0  0  0  0  0  0
    3.3744    1.4064    4.0266 H   0  0  0  0  0  0  0  0  0  0  0  0
    0.2080  -11.0848    6.0689 H   0  0  0  0  0  0  0  0  0  0  0  0
   -0.6678   -9.5549    6.1796 H   0  0  0  0  0  0  0  0  0  0  0  0
    0.9703   -9.6708    6.7971 H   0  0  0  0  0  0  0  0  0  0  0  0
    0.8597   -8.4864    4.7054 H   0  0  0  0  0  0  0  0  0  0  0  0
   -0.1853  -11.0775    3.4415 H   0  0  0  0  0  0  0  0  0  0  0  0
    0.1447   -9.6607    2.4998 H   0  0  0  0  0  0  0  0  0  0  0  0
   -1.1415   -9.6035    3.6780 H   0  0  0  0  0  0  0  0  0  0  0  0
    2.9152   -9.7578    5.1947 H   0  0  0  0  0  0  0  0  0  0  0  0
    2.2779  -11.1724    4.4323 H   0  0  0  0  0  0  0  0  0  0  0  0
    3.9532  -10.0223    3.0579 H   0  0  0  0  0  0  0  0  0  0  0  0
    2.4564  -10.1876    2.1803 H   0  0  0  0  0  0  0  0  0  0  0  0
    1.0296   -8.1674    3.0520 H   0  0  0  0  0  0  0  0  0  0  0  0
    5.4272   -6.9980    5.3373 H   0  0  0  0  0  0  0  0  0  0  0  0
    4.0969   -5.6627    6.6752 H   0  0  0  0  0  0  0  0  0  0  0  0
    5.2989   -4.4632    6.3590 H   0  0  0  0  0  0  0  0  0  0  0  0
    3.1384   -3.3260    5.8451 H   0  0  0  0  0  0  0  0  0  0  0  0
    2.1397   -5.8923    5.2730 H   0  0  0  0  0  0  0  0  0  0  0  0
    1.1598   -3.5444    4.0706 H   0  0  0  0  0  0  0  0  0  0  0  0
    2.5907   -5.2563    2.5404 H   0  0  0  0  0  0  0  0  0  0  0  0
    4.7773   -3.6879    3.4922 H   0  0  0  0  0  0  0  0  0  0  0  0
    2.4465   -2.8260    2.1798 H   0  0  0  0  0  0  0  0  0  0  0  0
    3.5572   -1.1617    4.4796 H   0  0  0  0  0  0  0  0  0  0  0  0
    1.0368   -0.8317    1.2887 H   0  0  0  0  0  0  0  0  0  0  0  0
    2.0210    3.0719    2.6189 H   0  0  0  0  0  0  0  0  0  0  0  0
    6.4951   -4.4004    4.4713 H   0  0  0  0  0  0  0  0  0  0  0  0
    7.9010   -6.9910    5.1725 H   0  0  0  0  0  0  0  0  0  0  0  0
    7.5470   -5.6707    6.2825 H   0  0  0  0  0  0  0  0  0  0  0  0
    8.6647   -5.4297    4.9442 H   0  0  0  0  0  0  0  0  0  0  0  0
    7.5881   -4.9038    2.4672 H   0  0  0  0  0  0  0  0  0  0  0  0
    7.6162   -6.6027    2.7777 H   0  0  0  0  0  0  0  0  0  0  0  0
    5.2928   -5.0005    1.6212 H   0  0  0  0  0  0  0  0  0  0  0  0
    6.2132   -6.2849    0.8824 H   0  0  0  0  0  0  0  0  0  0  0  0
    5.5508   -7.7789    2.8065 H   0  0  0  0  0  0  0  0  0  0  0  0
    3.2892   -6.8176    1.0977 H   0  0  0  0  0  0  0  0  0  0  0  0
    4.9042   -9.4442    1.0816 H   0  0  0  0  0  0  0  0  0  0  0  0
    4.8500   -8.2038   -0.1622 H   0  0  0  0  0  0  0  0  0  0  0  0
    3.4266   -9.1723    0.1785 H   0  0  0  0  0  0  0  0  0  0  0  0
    0.6217    1.6593    1.0266 H   0  0  0  0  0  0  0  0  0  0  0  0
  1  2  1  0
  1 32  1  0
  1 33  1  0
  1 34  1  0
  2  3  1  0
  2  4  1  0
  2 35  1  0
  3 36  1  0
  3 37  1  0
  3 38  1  0
  4  5  1  0
  4 39  1  0
  4 40  1  0
  5  6  1  0
  5 41  1  0
  5 42  1  0
  6 29  1  0
  6  7  1  6
  6  8  1  0
  7 43  1  0
  9  8  1  1
  9 15  1  0
  9 28  1  0
  9 10  1  0
 10 11  1  0
 10 24  1  0
 10 44  1  1
 11 12  1  0
 11 45  1  0
 11 46  1  0
 12 16  1  0
 12 13  1  0
 12 47  1  1
 13 14  1  0
 13 15  1  0
 13 48  1  1
 14 49  1  0
 15 16  1  0
 15 50  1  6
 16 17  1  0
 16 51  1  1
 17 18  2  3
 17 52  1  0
 18 19  1  0
 18 53  1  0
 19 23  1  0
 19 20  2  0
 20 21  1  0
 20 54  1  0
 21 22  2  0
 21 69  1  0
 22 23  1  0
 22 55  1  0
 23 31  1  0
 24 25  1  0
 24 26  1  0
 24 56  1  6
 25 57  1  0
 25 58  1  0
 25 59  1  0
 26 27  1  0
 26 60  1  0
 26 61  1  0
 27 28  1  0
 27 62  1  0
 27 63  1  0
 28 29  1  0
 28 64  1  1
 29 30  1  0
 29 65  1  6
 30 66  1  0
 30 67  1  0
 30 68  1  0
M  CHG  1  21   1
M  END
>  <i_m_ct_stereo_status>  (36) 
1

>  <s_m_source_file>  (36) 
/var/tmp/pbs.5076255.sched01/tmpc_kifbv4/0gx9_4qhc.sdf

>  <i_m_source_file_index>  (36) 
14

>  <i_lp_mmshare_version>  (36) 
48012

>  <i_f3d_flags>  (36) 
0

>  <s_epik_input>  (36) 
W0NIM11bQ0hdKFtDSDNdKVtDSDJdW0NIMl1bQ0BdKE8xKShbT0hdKVtDQEhdKFtDSDNdKVtDQEhdMltDSDJdW0NIMl1bQ0BIXShbQ0gzXSlbQ0BIXShbQ0BdMTIzKVtDSDJdW0NAQEhdNFtDQEBIXShbT0hdKVtDQEhdM1tDQEhdNC9bQ0hdPVtDSF1cYzVbY0hdbltjSF1bbkhdNQ==

>  <s_epik_cmdline>  (36) 
J2VwaWtfcHl0aG9uJywgJy1waHQnLCAnMi4wJywgJy1waCcsICc3LjAnLCAnLXRuJywgJzgnLCAnLW1hJywgJzIwMCcsICctaW1hZScsICc8aW5maWxlLm1hZT4nLCAnLW9tYWUnLCAnPG91dGZpbGUubWFlPic=

>  <r_epik_Ionization_Penalty>  (36) 
0.307122

>  <r_epik_Ionization_Penalty_Charging>  (36) 
0

>  <r_epik_Ionization_Penalty_Neutral>  (36) 
0.307122

>  <r_epik_State_Penalty>  (36) 
0.277104

>  <r_epik_Charging_Adjusted_Penalty>  (36) 
0.277104

>  <i_epik_Tot_Q>  (36) 
1

>  <i_epik_Tot_abs_Q>  (36) 
1

>  <s_lp_Force_Field>  (36) 
OPLS3e

>  <r_lp_Energy>  (36) 
55.8238

>  <b_lp_Chiralities_Consistent>  (36) 
1

>  <s_lp_Variant>  (36) 
12:0-2

>  <s_i_glide_gridfile>  (36) 
pfpi4k_grid

>  <i_i_glide_lignum>  (36) 
14

>  <i_i_glide_rotatable_bonds>  (36) 
7

>  <r_i_docking_score>  (36) 
-1.92792

>  <r_i_glide_ligand_efficiency>  (36) 
-0.0642642

>  <r_i_glide_ligand_efficiency_sa>  (36) 
-0.199684

>  <r_i_glide_ligand_efficiency_ln>  (36) 
-0.438045

>  <r_i_glide_gscore>  (36) 
-1.92792

>  <r_i_glide_lipo>  (36) 
-0.119879

>  <r_i_glide_hbond>  (36) 
0

>  <r_i_glide_metal>  (36) 
-0

>  <r_i_glide_rewards>  (36) 
-0.575531

>  <r_i_glide_evdw>  (36) 
-17.2328

>  <r_i_glide_ecoul>  (36) 
-4.98746

>  <r_i_glide_erotb>  (36) 
0.457361

>  <r_i_glide_esite>  (36) 
-0.0801176

>  <r_i_glide_emodel>  (36) 
-20.6184

>  <r_i_glide_energy>  (36) 
-22.2202

>  <r_i_glide_einternal>  (36) 
9.23173

>  <r_i_glide_intrahb_reward>  (36) 
-0

>  <i_i_glide_confnum>  (36) 
3

>  <i_i_glide_posenum>  (36) 
12

>  <r_i_glide_eff_state_penalty>  (36) 
0

>  <ligand_id>  (36) 
12

>  <original_smiles>  (36) 
CC(C)CCC1(O)OC23C(CC4C(O)C2C4C=Cc2cnc[nH]2)C(C)CCC3C1C

>  <smiles>  (36) 
[H]OC1([H])C2([H])C([H])([H])C3([H])C([H])(C([H])([H])[H])C([H])([H])C([H])([H])C4([H])C([H])(C([H])([H])[H])C(O[H])(C([H])([H])C([H])([H])C([H])(C([H])([H])[H])C([H])([H])[H])OC34C1([H])C2([H])C([H])=C([H])c1c([H])[n+]([H])c([H])n1[H]

$$$$
12:1:2
     RDKit          3D

 69 73  0  0  1  0  0  0  0  0999 V2000
   -2.3523    3.7383    7.3053 C   0  0  0  0  0  0  0  0  0  0  0  0
   -2.0332    2.2585    7.5601 C   0  0  0  0  0  0  0  0  0  0  0  0
   -1.3248    2.0885    8.9141 C   0  0  0  0  0  0  0  0  0  0  0  0
   -1.2303    1.6528    6.3889 C   0  0  0  0  0  0  0  0  0  0  0  0
   -1.1296    0.1096    6.4348 C   0  0  0  0  0  0  0  0  0  0  0  0
   -0.4100   -0.4690    5.1914 C   0  0  1  0  0  0  0  0  0  0  0  0
   -1.1788   -0.1789    4.0527 O   0  0  0  0  0  0  0  0  0  0  0  0
    0.8641    0.1277    5.1356 O   0  0  0  0  0  0  0  0  0  0  0  0
    1.8683   -0.7953    4.7027 C   0  0  2  0  0  0  0  0  0  0  0  0
    3.3097   -0.3875    5.1870 C   0  0  2  0  0  0  0  0  0  0  0  0
    4.0116    0.5394    4.1299 C   0  0  0  0  0  0  0  0  0  0  0  0
    3.5088    0.2587    2.7008 C   0  0  2  0  0  0  0  0  0  0  0  0
    2.0235    0.5747    2.5548 C   0  0  1  0  0  0  0  0  0  0  0  0
    1.5062    0.8986    1.2901 O   0  0  0  0  0  0  0  0  0  0  0  0
    1.8009   -0.8291    3.1469 C   0  0  1  0  0  0  0  0  0  0  0  0
    3.1099   -1.2132    2.4187 C   0  0  1  0  0  0  0  0  0  0  0  0
    3.0138   -1.7644    0.9865 C   0  0  0  0  0  0  0  0  0  0  0  0
    3.4832   -1.1877   -0.1374 C   0  0  0  0  0  0  0  0  0  0  0  0
    3.4512   -1.7539   -1.5069 C   0  0  0  0  0  0  0  0  0  0  0  0
    3.2281   -3.0375   -1.9369 C   0  0  0  0  0  0  0  0  0  0  0  0
    3.2418   -2.9738   -3.3062 N   0  0  0  0  0  0  0  0  0  0  0  0
    3.4297   -1.7080   -3.7160 C   0  0  0  0  0  0  0  0  0  0  0  0
    3.5591   -0.9607   -2.6168 N   0  0  0  0  0  0  0  0  0  0  0  0
    4.2475   -1.6083    5.5387 C   0  0  1  0  0  0  0  0  0  0  0  0
    5.1957   -1.2547    6.7045 C   0  0  0  0  0  0  0  0  0  0  0  0
    3.5682   -2.9844    5.8400 C   0  0  0  0  0  0  0  0  0  0  0  0
    2.2006   -3.2368    5.1821 C   0  0  0  0  0  0  0  0  0  0  0  0
    1.3598   -2.0063    5.4764 C   0  0  2  0  0  0  0  0  0  0  0  0
   -0.1293   -2.0081    5.2020 C   0  0  1  0  0  0  0  0  0  0  0  0
   -0.9758   -2.8115    6.2099 C   0  0  0  0  0  0  0  0  0  0  0  0
    3.6428    0.0494   -2.6045 H   0  0  0  0  0  0  0  0  0  0  0  0
   -1.4440    4.3388    7.2381 H   0  0  0  0  0  0  0  0  0  0  0  0
   -2.9625    4.1526    8.1094 H   0  0  0  0  0  0  0  0  0  0  0  0
   -2.9104    3.8595    6.3768 H   0  0  0  0  0  0  0  0  0  0  0  0
   -2.9891    1.7395    7.6152 H   0  0  0  0  0  0  0  0  0  0  0  0
   -0.3408    2.5587    8.9110 H   0  0  0  0  0  0  0  0  0  0  0  0
   -1.1907    1.0400    9.1757 H   0  0  0  0  0  0  0  0  0  0  0  0
   -1.9038    2.5464    9.7177 H   0  0  0  0  0  0  0  0  0  0  0  0
   -1.7064    1.9515    5.4562 H   0  0  0  0  0  0  0  0  0  0  0  0
   -0.2322    2.0906    6.3663 H   0  0  0  0  0  0  0  0  0  0  0  0
   -0.5848   -0.2014    7.3266 H   0  0  0  0  0  0  0  0  0  0  0  0
   -2.1319   -0.3146    6.4738 H   0  0  0  0  0  0  0  0  0  0  0  0
   -1.2256    0.7634    3.9608 H   0  0  0  0  0  0  0  0  0  0  0  0
    3.1833    0.1804    6.1076 H   0  0  0  0  0  0  0  0  0  0  0  0
    3.8133    1.5844    4.3870 H   0  0  0  0  0  0  0  0  0  0  0  0
    5.0952    0.4341    4.1742 H   0  0  0  0  0  0  0  0  0  0  0  0
    4.1044    0.7116    1.9090 H   0  0  0  0  0  0  0  0  0  0  0  0
    1.7271    1.3646    3.2393 H   0  0  0  0  0  0  0  0  0  0  0  0
    1.0307    1.7156    1.3800 H   0  0  0  0  0  0  0  0  0  0  0  0
    0.9260   -1.3112    2.7119 H   0  0  0  0  0  0  0  0  0  0  0  0
    3.7118   -1.9277    2.9721 H   0  0  0  0  0  0  0  0  0  0  0  0
    2.5308   -2.7289    0.9044 H   0  0  0  0  0  0  0  0  0  0  0  0
    3.9507   -0.2220   -0.0616 H   0  0  0  0  0  0  0  0  0  0  0  0
    3.0661   -3.9694   -1.4042 H   0  0  0  0  0  0  0  0  0  0  0  0
    3.4364   -1.3420   -4.7224 H   0  0  0  0  0  0  0  0  0  0  0  0
    4.9099   -1.7880    4.6885 H   0  0  0  0  0  0  0  0  0  0  0  0
    4.6504   -1.1005    7.6373 H   0  0  0  0  0  0  0  0  0  0  0  0
    5.7655   -0.3464    6.5067 H   0  0  0  0  0  0  0  0  0  0  0  0
    5.9141   -2.0555    6.8853 H   0  0  0  0  0  0  0  0  0  0  0  0
    4.2491   -3.7829    5.5475 H   0  0  0  0  0  0  0  0  0  0  0  0
    3.4447   -3.0989    6.9204 H   0  0  0  0  0  0  0  0  0  0  0  0
    2.2894   -3.4196    4.1097 H   0  0  0  0  0  0  0  0  0  0  0  0
    1.7466   -4.1309    5.6127 H   0  0  0  0  0  0  0  0  0  0  0  0
    1.4725   -1.7989    6.5412 H   0  0  0  0  0  0  0  0  0  0  0  0
   -0.3020   -2.4140    4.2039 H   0  0  0  0  0  0  0  0  0  0  0  0
   -0.7880   -2.5182    7.2423 H   0  0  0  0  0  0  0  0  0  0  0  0
   -0.7460   -3.8746    6.1406 H   0  0  0  0  0  0  0  0  0  0  0  0
   -2.0396   -2.6965    6.0059 H   0  0  0  0  0  0  0  0  0  0  0  0
    3.0954   -3.7645   -3.9191 H   0  0  0  0  0  0  0  0  0  0  0  0
  1  2  1  0
  1 32  1  0
  1 33  1  0
  1 34  1  0
  2  3  1  0
  2  4  1  0
  2 35  1  0
  3 36  1  0
  3 37  1  0
  3 38  1  0
  4  5  1  0
  4 39  1  0
  4 40  1  0
  5  6  1  0
  5 41  1  0
  5 42  1  0
  6 29  1  0
  6  7  1  6
  6  8  1  0
  7 43  1  0
  9  8  1  1
  9 15  1  0
  9 28  1  0
  9 10  1  0
 10 11  1  0
 10 24  1  0
 10 44  1  1
 11 12  1  0
 11 45  1  0
 11 46  1  0
 12 16  1  0
 12 13  1  0
 12 47  1  6
 13 14  1  0
 13 15  1  0
 13 48  1  1
 14 49  1  0
 15 16  1  0
 15 50  1  1
 16 17  1  0
 16 51  1  1
 17 18  2  3
 17 52  1  0
 18 19  1  0
 18 53  1  0
 19 23  1  0
 19 20  2  0
 20 21  1  0
 20 54  1  0
 21 22  2  0
 21 69  1  0
 22 23  1  0
 22 55  1  0
 23 31  1  0
 24 25  1  0
 24 26  1  0
 24 56  1  6
 25 57  1  0
 25 58  1  0
 25 59  1  0
 26 27  1  0
 26 60  1  0
 26 61  1  0
 27 28  1  0
 27 62  1  0
 27 63  1  0
 28 29  1  0
 28 64  1  1
 29 30  1  0
 29 65  1  6
 30 66  1  0
 30 67  1  0
 30 68  1  0
M  CHG  1  21   1
M  END
>  <i_m_ct_stereo_status>  (37) 
1

>  <s_m_source_file>  (37) 
/var/tmp/pbs.5076255.sched01/tmpc_kifbv4/0gx9_4qhc.sdf

>  <i_m_source_file_index>  (37) 
14

>  <i_lp_mmshare_version>  (37) 
48012

>  <i_f3d_flags>  (37) 
0

>  <s_epik_input>  (37) 
W0NIM11bQ0hdKFtDSDNdKVtDSDJdW0NIMl1bQ0BdKE8xKShbT0hdKVtDQEhdKFtDSDNdKVtDQEhdMltDSDJdW0NIMl1bQ0BIXShbQ0gzXSlbQ0BIXShbQ0BdMTIzKVtDSDJdW0NAQEhdNFtDQEBIXShbT0hdKVtDQEhdM1tDQEhdNC9bQ0hdPVtDSF1cYzVbY0hdbltjSF1bbkhdNQ==

>  <s_epik_cmdline>  (37) 
J2VwaWtfcHl0aG9uJywgJy1waHQnLCAnMi4wJywgJy1waCcsICc3LjAnLCAnLXRuJywgJzgnLCAnLW1hJywgJzIwMCcsICctaW1hZScsICc8aW5maWxlLm1hZT4nLCAnLW9tYWUnLCAnPG91dGZpbGUubWFlPic=

>  <r_epik_Ionization_Penalty>  (37) 
0.307122

>  <r_epik_Ionization_Penalty_Charging>  (37) 
0

>  <r_epik_Ionization_Penalty_Neutral>  (37) 
0.307122

>  <r_epik_State_Penalty>  (37) 
0.277104

>  <r_epik_Charging_Adjusted_Penalty>  (37) 
0.277104

>  <i_epik_Tot_Q>  (37) 
1

>  <i_epik_Tot_abs_Q>  (37) 
1

>  <s_lp_Force_Field>  (37) 
OPLS3e

>  <r_lp_Energy>  (37) 
55.8238

>  <b_lp_Chiralities_Consistent>  (37) 
1

>  <s_lp_Variant>  (37) 
12:0-2

>  <s_i_glide_gridfile>  (37) 
pfpi4k_grid

>  <i_i_glide_lignum>  (37) 
14

>  <i_i_glide_rotatable_bonds>  (37) 
7

>  <r_i_docking_score>  (37) 
-1.71917

>  <r_i_glide_ligand_efficiency>  (37) 
-0.0573058

>  <r_i_glide_ligand_efficiency_sa>  (37) 
-0.178062

>  <r_i_glide_ligand_efficiency_ln>  (37) 
-0.390615

>  <r_i_glide_gscore>  (37) 
-1.71917

>  <r_i_glide_lipo>  (37) 
-0.107583

>  <r_i_glide_hbond>  (37) 
0

>  <r_i_glide_metal>  (37) 
-0

>  <r_i_glide_rewards>  (37) 
-0.839662

>  <r_i_glide_evdw>  (37) 
-22.3433

>  <r_i_glide_ecoul>  (37) 
-0.360196

>  <r_i_glide_erotb>  (37) 
0.457361

>  <r_i_glide_esite>  (37) 
-0.058094

>  <r_i_glide_emodel>  (37) 
-24.6269

>  <r_i_glide_energy>  (37) 
-22.7035

>  <r_i_glide_einternal>  (37) 
2.46225

>  <r_i_glide_intrahb_reward>  (37) 
-0

>  <i_i_glide_confnum>  (37) 
3

>  <i_i_glide_posenum>  (37) 
17

>  <r_i_glide_eff_state_penalty>  (37) 
0

>  <ligand_id>  (37) 
12

>  <original_smiles>  (37) 
CC(C)CCC1(O)OC23C(CC4C(O)C2C4C=Cc2cnc[nH]2)C(C)CCC3C1C

>  <smiles>  (37) 
[H]OC1([H])C2([H])C([H])([H])C3([H])C([H])(C([H])([H])[H])C([H])([H])C([H])([H])C4([H])C([H])(C([H])([H])[H])C(O[H])(C([H])([H])C([H])([H])C([H])(C([H])([H])[H])C([H])([H])[H])OC34C1([H])C2([H])C([H])=C([H])c1c([H])[n+]([H])c([H])n1[H]

$$$$
12:5:0
     RDKit          3D

 68 72  0  0  1  0  0  0  0  0999 V2000
    0.0932    5.3153    4.0081 C   0  0  0  0  0  0  0  0  0  0  0  0
    1.5796    4.9046    4.0163 C   0  0  0  0  0  0  0  0  0  0  0  0
    2.3633    5.4990    2.8730 C   0  0  0  0  0  0  0  0  0  0  0  0
    1.8113    3.3822    4.0874 C   0  0  0  0  0  0  0  0  0  0  0  0
    0.9091    2.5479    3.1108 C   0  0  0  0  0  0  0  0  0  0  0  0
    1.1581    1.0313    3.1349 C   0  0  1  0  0  0  0  0  0  0  0  0
    0.3405    0.4473    2.1440 O   0  0  0  0  0  0  0  0  0  0  0  0
    2.5173    0.8315    2.8307 O   0  0  0  0  0  0  0  0  0  0  0  0
    3.0681   -0.2549    3.5789 C   0  0  2  0  0  0  0  0  0  0  0  0
    4.6281   -0.1453    3.7579 C   0  0  2  0  0  0  0  0  0  0  0  0
    5.3810   -0.8380    2.5630 C   0  0  0  0  0  0  0  0  0  0  0  0
    4.5598   -2.0098    1.9920 C   0  0  2  0  0  0  0  0  0  0  0  0
    3.2405   -1.5437    1.3568 C   0  0  1  0  0  0  0  0  0  0  0  0
    2.6054   -2.3305    0.3777 O   0  0  0  0  0  0  0  0  0  0  0  0
    2.7090   -1.5599    2.8025 C   0  0  1  0  0  0  0  0  0  0  0  0
    3.6649   -2.7510    3.0058 C   0  0  1  0  0  0  0  0  0  0  0  0
    3.2200   -4.1807    2.6454 C   0  0  0  0  0  0  0  0  0  0  0  0
    1.9661   -4.6371    2.5071 C   0  0  0  0  0  0  0  0  0  0  0  0
    1.5970   -6.0295    2.2338 C   0  0  0  0  0  0  0  0  0  0  0  0
    2.4330   -7.1287    2.1195 C   0  0  0  0  0  0  0  0  0  0  0  0
    1.5765   -8.1982    1.8774 N   0  0  0  0  0  0  0  0  0  0  0  0
    0.3234   -7.7317    1.8601 C   0  0  0  0  0  0  0  0  0  0  0  0
    0.2521   -6.4076    2.0581 N   0  0  0  0  0  0  0  0  0  0  0  0
    5.1636   -0.6971    5.1378 C   0  0  1  0  0  0  0  0  0  0  0  0
    6.3764    0.1288    5.6205 C   0  0  0  0  0  0  0  0  0  0  0  0
    4.1378   -0.8009    6.3167 C   0  0  0  0  0  0  0  0  0  0  0  0
    2.6648   -1.0312    5.9309 C   0  0  0  0  0  0  0  0  0  0  0  0
    2.3409    0.0213    4.8945 C   0  0  2  0  0  0  0  0  0  0  0  0
    0.9146    0.2639    4.4785 C   0  0  1  0  0  0  0  0  0  0  0  0
   -0.0217    0.9493    5.5314 C   0  0  0  0  0  0  0  0  0  0  0  0
   -0.4374    4.9399    3.1338 H   0  0  0  0  0  0  0  0  0  0  0  0
   -0.0076    6.4007    3.9718 H   0  0  0  0  0  0  0  0  0  0  0  0
   -0.4316    4.9547    4.8979 H   0  0  0  0  0  0  0  0  0  0  0  0
    2.0017    5.3090    4.9348 H   0  0  0  0  0  0  0  0  0  0  0  0
    2.0061    5.1089    1.9210 H   0  0  0  0  0  0  0  0  0  0  0  0
    3.4230    5.2458    2.9556 H   0  0  0  0  0  0  0  0  0  0  0  0
    2.2647    6.5780    2.8946 H   0  0  0  0  0  0  0  0  0  0  0  0
    2.8771    3.1606    3.8879 H   0  0  0  0  0  0  0  0  0  0  0  0
    1.6800    3.1645    5.1526 H   0  0  0  0  0  0  0  0  0  0  0  0
   -0.1495    2.7136    3.2675 H   0  0  0  0  0  0  0  0  0  0  0  0
    1.1181    2.8761    2.0973 H   0  0  0  0  0  0  0  0  0  0  0  0
    0.5170    0.8644    1.3036 H   0  0  0  0  0  0  0  0  0  0  0  0
    4.8715    0.9181    3.7478 H   0  0  0  0  0  0  0  0  0  0  0  0
    5.5919   -0.1002    1.7843 H   0  0  0  0  0  0  0  0  0  0  0  0
    6.3531   -1.2113    2.8790 H   0  0  0  0  0  0  0  0  0  0  0  0
    5.1036   -2.6805    1.3235 H   0  0  0  0  0  0  0  0  0  0  0  0
    3.3597   -0.5295    0.9695 H   0  0  0  0  0  0  0  0  0  0  0  0
    1.9926   -1.7472   -0.0872 H   0  0  0  0  0  0  0  0  0  0  0  0
    1.6593   -1.8403    2.8030 H   0  0  0  0  0  0  0  0  0  0  0  0
    4.0837   -2.7967    3.9963 H   0  0  0  0  0  0  0  0  0  0  0  0
    4.0367   -4.8750    2.5239 H   0  0  0  0  0  0  0  0  0  0  0  0
    1.1439   -3.9371    2.6128 H   0  0  0  0  0  0  0  0  0  0  0  0
    3.5023   -7.2305    2.1913 H   0  0  0  0  0  0  0  0  0  0  0  0
   -0.5403   -8.3469    1.6836 H   0  0  0  0  0  0  0  0  0  0  0  0
    5.5475   -1.7080    4.9888 H   0  0  0  0  0  0  0  0  0  0  0  0
    6.1012    1.1558    5.8619 H   0  0  0  0  0  0  0  0  0  0  0  0
    7.1653    0.1739    4.8698 H   0  0  0  0  0  0  0  0  0  0  0  0
    6.8114   -0.3043    6.5223 H   0  0  0  0  0  0  0  0  0  0  0  0
    4.4462   -1.6224    6.9670 H   0  0  0  0  0  0  0  0  0  0  0  0
    4.1996    0.0946    6.9429 H   0  0  0  0  0  0  0  0  0  0  0  0
    2.4985   -2.0431    5.5501 H   0  0  0  0  0  0  0  0  0  0  0  0
    2.0328   -0.9148    6.8126 H   0  0  0  0  0  0  0  0  0  0  0  0
    2.7257    0.9621    5.2886 H   0  0  0  0  0  0  0  0  0  0  0  0
    0.4665   -0.6849    4.2400 H   0  0  0  0  0  0  0  0  0  0  0  0
    0.3351    1.8657    6.0181 H   0  0  0  0  0  0  0  0  0  0  0  0
   -0.2146    0.2651    6.3676 H   0  0  0  0  0  0  0  0  0  0  0  0
   -0.9980    1.1849    5.0795 H   0  0  0  0  0  0  0  0  0  0  0  0
    1.8343   -9.1599    1.7219 H   0  0  0  0  0  0  0  0  0  0  0  0
  1  2  1  0
  1 31  1  0
  1 32  1  0
  1 33  1  0
  2  3  1  0
  2  4  1  0
  2 34  1  0
  3 35  1  0
  3 36  1  0
  3 37  1  0
  4  5  1  0
  4 38  1  0
  4 39  1  0
  5  6  1  0
  5 40  1  0
  5 41  1  0
  6 29  1  0
  6  7  1  6
  6  8  1  0
  7 42  1  0
  9  8  1  6
  9 15  1  0
  9 28  1  0
  9 10  1  0
 10 11  1  0
 10 24  1  0
 10 43  1  1
 11 12  1  0
 11 44  1  0
 11 45  1  0
 12 16  1  0
 12 13  1  0
 12 46  1  6
 13 14  1  0
 13 15  1  0
 13 47  1  6
 14 48  1  0
 15 16  1  0
 15 49  1  6
 16 17  1  0
 16 50  1  1
 17 18  2  3
 17 51  1  0
 18 19  1  0
 18 52  1  0
 19 23  1  0
 19 20  2  0
 20 21  1  0
 20 53  1  0
 21 22  1  0
 21 68  1  0
 22 23  2  0
 22 54  1  0
 24 25  1  0
 24 26  1  0
 24 55  1  6
 25 56  1  0
 25 57  1  0
 25 58  1  0
 26 27  1  0
 26 59  1  0
 26 60  1  0
 27 28  1  0
 27 61  1  0
 27 62  1  0
 28 29  1  0
 28 63  1  1
 29 30  1  0
 29 64  1  6
 30 65  1  0
 30 66  1  0
 30 67  1  0
M  END
>  <i_m_ct_stereo_status>  (38) 
1

>  <s_m_source_file>  (38) 
/var/tmp/pbs.5076255.sched01/tmpc_kifbv4/0gx9_4qhc.sdf

>  <i_m_source_file_index>  (38) 
18

>  <i_lp_mmshare_version>  (38) 
48012

>  <i_f3d_flags>  (38) 
0

>  <s_epik_input>  (38) 
W0NIM11bQ0hdKFtDSDNdKVtDSDJdW0NIMl1bQ0BdKE8xKShbT0hdKVtDQEhdKFtDSDNdKVtDQEhdMltDSDJdW0NIMl1bQ0BIXShbQ0gzXSlbQ0BIXShbQ0BdMTIzKVtDSDJdW0NAQEhdNFtDQEBIXShbT0hdKVtDQEhdM1tDQEhdNC9bQ0hdPVtDSF1cYzVbY0hdbltjSF1bbkhdNQ==

>  <s_epik_cmdline>  (38) 
J2VwaWtfcHl0aG9uJywgJy1waHQnLCAnMi4wJywgJy1waCcsICc3LjAnLCAnLXRuJywgJzgnLCAnLW1hJywgJzIwMCcsICctaW1hZScsICc8aW5maWxlLm1hZT4nLCAnLW9tYWUnLCAnPG91dGZpbGUubWFlPic=

>  <r_epik_Ionization_Penalty>  (38) 
1.48868

>  <r_epik_Ionization_Penalty_Charging>  (38) 
1.48868

>  <r_epik_Ionization_Penalty_Neutral>  (38) 
6.07015e-07

>  <r_epik_State_Penalty>  (38) 
1.81221

>  <r_epik_Charging_Adjusted_Penalty>  (38) 
3.30089

>  <i_epik_Tot_Q>  (38) 
0

>  <i_epik_Tot_abs_Q>  (38) 
0

>  <s_lp_Force_Field>  (38) 
OPLS3e

>  <r_lp_Energy>  (38) 
55.1558

>  <b_lp_Chiralities_Consistent>  (38) 
1

>  <s_lp_Variant>  (38) 
12:0-6

>  <s_i_glide_gridfile>  (38) 
pfpi4k_grid

>  <i_i_glide_lignum>  (38) 
18

>  <i_i_glide_rotatable_bonds>  (38) 
7

>  <r_i_docking_score>  (38) 
-3.22142

>  <r_i_glide_ligand_efficiency>  (38) 
-0.107381

>  <r_i_glide_ligand_efficiency_sa>  (38) 
-0.333657

>  <r_i_glide_ligand_efficiency_ln>  (38) 
-0.731942

>  <r_i_glide_gscore>  (38) 
-3.22142

>  <r_i_glide_lipo>  (38) 
-0.342055

>  <r_i_glide_hbond>  (38) 
-0.345928

>  <r_i_glide_metal>  (38) 
-0

>  <r_i_glide_rewards>  (38) 
-0.582403

>  <r_i_glide_evdw>  (38) 
-20.2151

>  <r_i_glide_ecoul>  (38) 
-8.52524

>  <r_i_glide_erotb>  (38) 
0.459371

>  <r_i_glide_esite>  (38) 
-0.120866

>  <r_i_glide_emodel>  (38) 
-33.915

>  <r_i_glide_energy>  (38) 
-28.7403

>  <r_i_glide_einternal>  (38) 
3.28458

>  <r_i_glide_intrahb_reward>  (38) 
-0

>  <i_i_glide_confnum>  (38) 
4

>  <i_i_glide_posenum>  (38) 
38

>  <r_i_glide_eff_state_penalty>  (38) 
0

>  <ligand_id>  (38) 
12

>  <original_smiles>  (38) 
CC(C)CCC1(O)OC23C(CC4C(O)C2C4C=Cc2cnc[nH]2)C(C)CCC3C1C

>  <smiles>  (38) 
[H]OC1([H])C2([H])C([H])([H])C3([H])C([H])(C([H])([H])[H])C([H])([H])C([H])([H])C4([H])C([H])(C([H])([H])[H])C(O[H])(C([H])([H])C([H])([H])C([H])(C([H])([H])[H])C([H])([H])[H])OC34C1([H])C2([H])C([H])=C([H])c1nc([H])n([H])c1[H]

$$$$
12:5:1
     RDKit          3D

 68 72  0  0  1  0  0  0  0  0999 V2000
   -1.1159    4.2371    4.6178 C   0  0  0  0  0  0  0  0  0  0  0  0
   -1.4688    3.7351    3.1970 C   0  0  0  0  0  0  0  0  0  0  0  0
   -2.9869    3.7823    2.9461 C   0  0  0  0  0  0  0  0  0  0  0  0
   -0.9872    2.2780    2.9633 C   0  0  0  0  0  0  0  0  0  0  0  0
    0.5598    2.1043    3.0521 C   0  0  0  0  0  0  0  0  0  0  0  0
    1.0402    0.6306    3.0354 C   0  0  1  0  0  0  0  0  0  0  0  0
    0.3706   -0.0629    2.0066 O   0  0  0  0  0  0  0  0  0  0  0  0
    2.4192    0.6706    2.7617 O   0  0  0  0  0  0  0  0  0  0  0  0
    3.1359   -0.3533    3.4576 C   0  0  2  0  0  0  0  0  0  0  0  0
    4.6557   -0.0082    3.6622 C   0  0  2  0  0  0  0  0  0  0  0  0
    5.5192   -0.5459    2.4590 C   0  0  0  0  0  0  0  0  0  0  0  0
    4.8916   -1.8139    1.8392 C   0  0  2  0  0  0  0  0  0  0  0  0
    3.5252   -1.5324    1.2142 C   0  0  1  0  0  0  0  0  0  0  0  0
    3.0174   -2.3730    0.1896 O   0  0  0  0  0  0  0  0  0  0  0  0
    2.9854   -1.6773    2.6450 C   0  0  1  0  0  0  0  0  0  0  0  0
    4.1182   -2.7140    2.8236 C   0  0  1  0  0  0  0  0  0  0  0  0
    3.9071   -4.1674    2.4174 C   0  0  0  0  0  0  0  0  0  0  0  0
    2.7370   -4.8253    2.3521 C   0  0  0  0  0  0  0  0  0  0  0  0
    2.5973   -6.2641    2.0446 C   0  0  0  0  0  0  0  0  0  0  0  0
    3.6032   -7.1994    1.8611 C   0  0  0  0  0  0  0  0  0  0  0  0
    2.9226   -8.3945    1.6450 N   0  0  0  0  0  0  0  0  0  0  0  0
    1.6182   -8.1293    1.6977 C   0  0  0  0  0  0  0  0  0  0  0  0
    1.3408   -6.8566    1.9298 N   0  0  0  0  0  0  0  0  0  0  0  0
    5.2669   -0.5123    5.0282 C   0  0  1  0  0  0  0  0  0  0  0  0
    6.3462    0.4709    5.5280 C   0  0  0  0  0  0  0  0  0  0  0  0
    4.2742   -0.7899    6.1976 C   0  0  0  0  0  0  0  0  0  0  0  0
    2.8625   -1.2448    5.7916 C   0  0  0  0  0  0  0  0  0  0  0  0
    2.3857   -0.2346    4.7720 C   0  0  2  0  0  0  0  0  0  0  0  0
    0.9264   -0.1984    4.3676 C   0  0  1  0  0  0  0  0  0  0  0  0
   -0.0042    0.3459    5.4827 C   0  0  0  0  0  0  0  0  0  0  0  0
   -1.5487    3.6128    5.4061 H   0  0  0  0  0  0  0  0  0  0  0  0
   -1.4472    5.2504    4.7561 H   0  0  0  0  0  0  0  0  0  0  0  0
   -0.0409    4.2803    4.7677 H   0  0  0  0  0  0  0  0  0  0  0  0
   -1.0075    4.4146    2.5133 H   0  0  0  0  0  0  0  0  0  0  0  0
   -3.5453    3.1781    3.6719 H   0  0  0  0  0  0  0  0  0  0  0  0
   -3.2373    3.3927    1.9579 H   0  0  0  0  0  0  0  0  0  0  0  0
   -3.3321    4.8078    2.9636 H   0  0  0  0  0  0  0  0  0  0  0  0
   -1.5614    1.6672    3.6360 H   0  0  0  0  0  0  0  0  0  0  0  0
   -1.2981    1.9664    1.9475 H   0  0  0  0  0  0  0  0  0  0  0  0
    1.0186    2.5986    2.1827 H   0  0  0  0  0  0  0  0  0  0  0  0
    1.0287    2.5966    3.9042 H   0  0  0  0  0  0  0  0  0  0  0  0
    0.5599    0.3457    1.1733 H   0  0  0  0  0  0  0  0  0  0  0  0
    4.7228    1.0784    3.7101 H   0  0  0  0  0  0  0  0  0  0  0  0
    5.6178    0.2190    1.6862 H   0  0  0  0  0  0  0  0  0  0  0  0
    6.5309   -0.7672    2.7863 H   0  0  0  0  0  0  0  0  0  0  0  0
    5.5342   -2.3744    1.1596 H   0  0  0  0  0  0  0  0  0  0  0  0
    3.4840   -0.5040    0.8587 H   0  0  0  0  0  0  0  0  0  0  0  0
    2.3285   -1.8673   -0.2413 H   0  0  0  0  0  0  0  0  0  0  0  0
    1.9960   -2.1273    2.6327 H   0  0  0  0  0  0  0  0  0  0  0  0
    4.5432   -2.7168    3.8187 H   0  0  0  0  0  0  0  0  0  0  0  0
    4.8138   -4.7017    2.1840 H   0  0  0  0  0  0  0  0  0  0  0  0
    1.8220   -4.2953    2.5554 H   0  0  0  0  0  0  0  0  0  0  0  0
    4.6764   -7.1202    1.8737 H   0  0  0  0  0  0  0  0  0  0  0  0
    0.8535   -8.8879    1.5654 H   0  0  0  0  0  0  0  0  0  0  0  0
    5.7839   -1.4585    4.8568 H   0  0  0  0  0  0  0  0  0  0  0  0
    5.9143    1.4365    5.7950 H   0  0  0  0  0  0  0  0  0  0  0  0
    7.1197    0.6580    4.7840 H   0  0  0  0  0  0  0  0  0  0  0  0
    6.8390    0.0929    6.4238 H   0  0  0  0  0  0  0  0  0  0  0  0
    4.7008   -1.5781    6.8185 H   0  0  0  0  0  0  0  0  0  0  0  0
    4.2030    0.0854    6.8513 H   0  0  0  0  0  0  0  0  0  0  0  0
    2.8709   -2.2570    5.3844 H   0  0  0  0  0  0  0  0  0  0  0  0
    2.2165   -1.2619    6.6703 H   0  0  0  0  0  0  0  0  0  0  0  0
    2.6086    0.7480    5.1870 H   0  0  0  0  0  0  0  0  0  0  0  0
    0.6097   -1.2144    4.1254 H   0  0  0  0  0  0  0  0  0  0  0  0
    0.2209    1.3848    5.7374 H   0  0  0  0  0  0  0  0  0  0  0  0
    0.1126   -0.2360    6.4102 H   0  0  0  0  0  0  0  0  0  0  0  0
   -1.0453    0.2478    5.2148 H   0  0  0  0  0  0  0  0  0  0  0  0
    3.3287   -9.3017    1.4285 H   0  0  0  0  0  0  0  0  0  0  0  0
  1  2  1  0
  1 31  1  0
  1 32  1  0
  1 33  1  0
  2  3  1  0
  2  4  1  0
  2 34  1  0
  3 35  1  0
  3 36  1  0
  3 37  1  0
  4  5  1  0
  4 38  1  0
  4 39  1  0
  5  6  1  0
  5 40  1  0
  5 41  1  0
  6 29  1  0
  6  7  1  6
  6  8  1  0
  7 42  1  0
  9  8  1  6
  9 15  1  0
  9 28  1  0
  9 10  1  0
 10 11  1  0
 10 24  1  0
 10 43  1  1
 11 12  1  0
 11 44  1  0
 11 45  1  0
 12 16  1  0
 12 13  1  0
 12 46  1  6
 13 14  1  0
 13 15  1  0
 13 47  1  6
 14 48  1  0
 15 16  1  0
 15 49  1  6
 16 17  1  0
 16 50  1  1
 17 18  2  3
 17 51  1  0
 18 19  1  0
 18 52  1  0
 19 23  1  0
 19 20  2  0
 20 21  1  0
 20 53  1  0
 21 22  1  0
 21 68  1  0
 22 23  2  0
 22 54  1  0
 24 25  1  0
 24 26  1  0
 24 55  1  6
 25 56  1  0
 25 57  1  0
 25 58  1  0
 26 27  1  0
 26 59  1  0
 26 60  1  0
 27 28  1  0
 27 61  1  0
 27 62  1  0
 28 29  1  0
 28 63  1  1
 29 30  1  0
 29 64  1  6
 30 65  1  0
 30 66  1  0
 30 67  1  0
M  END
>  <i_m_ct_stereo_status>  (39) 
1

>  <s_m_source_file>  (39) 
/var/tmp/pbs.5076255.sched01/tmpc_kifbv4/0gx9_4qhc.sdf

>  <i_m_source_file_index>  (39) 
18

>  <i_lp_mmshare_version>  (39) 
48012

>  <i_f3d_flags>  (39) 
0

>  <s_epik_input>  (39) 
W0NIM11bQ0hdKFtDSDNdKVtDSDJdW0NIMl1bQ0BdKE8xKShbT0hdKVtDQEhdKFtDSDNdKVtDQEhdMltDSDJdW0NIMl1bQ0BIXShbQ0gzXSlbQ0BIXShbQ0BdMTIzKVtDSDJdW0NAQEhdNFtDQEBIXShbT0hdKVtDQEhdM1tDQEhdNC9bQ0hdPVtDSF1cYzVbY0hdbltjSF1bbkhdNQ==

>  <s_epik_cmdline>  (39) 
J2VwaWtfcHl0aG9uJywgJy1waHQnLCAnMi4wJywgJy1waCcsICc3LjAnLCAnLXRuJywgJzgnLCAnLW1hJywgJzIwMCcsICctaW1hZScsICc8aW5maWxlLm1hZT4nLCAnLW9tYWUnLCAnPG91dGZpbGUubWFlPic=

>  <r_epik_Ionization_Penalty>  (39) 
1.48868

>  <r_epik_Ionization_Penalty_Charging>  (39) 
1.48868

>  <r_epik_Ionization_Penalty_Neutral>  (39) 
6.07015e-07

>  <r_epik_State_Penalty>  (39) 
1.81221

>  <r_epik_Charging_Adjusted_Penalty>  (39) 
3.30089

>  <i_epik_Tot_Q>  (39) 
0

>  <i_epik_Tot_abs_Q>  (39) 
0

>  <s_lp_Force_Field>  (39) 
OPLS3e

>  <r_lp_Energy>  (39) 
55.1558

>  <b_lp_Chiralities_Consistent>  (39) 
1

>  <s_lp_Variant>  (39) 
12:0-6

>  <s_i_glide_gridfile>  (39) 
pfpi4k_grid

>  <i_i_glide_lignum>  (39) 
18

>  <i_i_glide_rotatable_bonds>  (39) 
7

>  <r_i_docking_score>  (39) 
-2.49584

>  <r_i_glide_ligand_efficiency>  (39) 
-0.0831945

>  <r_i_glide_ligand_efficiency_sa>  (39) 
-0.258505

>  <r_i_glide_ligand_efficiency_ln>  (39) 
-0.567081

>  <r_i_glide_gscore>  (39) 
-2.49584

>  <r_i_glide_lipo>  (39) 
-0.435868

>  <r_i_glide_hbond>  (39) 
-0.16

>  <r_i_glide_metal>  (39) 
-0

>  <r_i_glide_rewards>  (39) 
-0.582403

>  <r_i_glide_evdw>  (39) 
-20.7339

>  <r_i_glide_ecoul>  (39) 
-4.43933

>  <r_i_glide_erotb>  (39) 
0.459371

>  <r_i_glide_esite>  (39) 
-0.0743376

>  <r_i_glide_emodel>  (39) 
-28.7739

>  <r_i_glide_energy>  (39) 
-25.1733

>  <r_i_glide_einternal>  (39) 
3.75559

>  <r_i_glide_intrahb_reward>  (39) 
-0

>  <i_i_glide_confnum>  (39) 
4

>  <i_i_glide_posenum>  (39) 
1

>  <r_i_glide_eff_state_penalty>  (39) 
0

>  <ligand_id>  (39) 
12

>  <original_smiles>  (39) 
CC(C)CCC1(O)OC23C(CC4C(O)C2C4C=Cc2cnc[nH]2)C(C)CCC3C1C

>  <smiles>  (39) 
[H]OC1([H])C2([H])C([H])([H])C3([H])C([H])(C([H])([H])[H])C([H])([H])C([H])([H])C4([H])C([H])(C([H])([H])[H])C(O[H])(C([H])([H])C([H])([H])C([H])(C([H])([H])[H])C([H])([H])[H])OC34C1([H])C2([H])C([H])=C([H])c1nc([H])n([H])c1[H]

$$$$
12:5:2
     RDKit          3D

 68 72  0  0  1  0  0  0  0  0999 V2000
   -3.7645    4.8233    2.4040 C   0  0  0  0  0  0  0  0  0  0  0  0
   -2.3197    4.7913    2.9646 C   0  0  0  0  0  0  0  0  0  0  0  0
   -1.4602    5.9132    2.3552 C   0  0  0  0  0  0  0  0  0  0  0  0
   -1.6927    3.4073    2.7632 C   0  0  0  0  0  0  0  0  0  0  0  0
   -0.3574    3.1612    3.5246 C   0  0  0  0  0  0  0  0  0  0  0  0
    0.3249    1.7976    3.2000 C   0  0  1  0  0  0  0  0  0  0  0  0
    0.3462    1.5993    1.7977 O   0  0  0  0  0  0  0  0  0  0  0  0
    1.6437    1.9100    3.6888 O   0  0  0  0  0  0  0  0  0  0  0  0
    2.1228    0.6699    4.2262 C   0  0  2  0  0  0  0  0  0  0  0  0
    3.2830    0.8683    5.2724 C   0  0  2  0  0  0  0  0  0  0  0  0
    4.6820    0.8041    4.5744 C   0  0  0  0  0  0  0  0  0  0  0  0
    4.6544   -0.0778    3.3210 C   0  0  2  0  0  0  0  0  0  0  0  0
    3.7135    0.4522    2.2319 C   0  0  1  0  0  0  0  0  0  0  0  0
    3.9631    0.0985    0.8873 O   0  0  0  0  0  0  0  0  0  0  0  0
    2.6035   -0.2349    3.0418 C   0  0  1  0  0  0  0  0  0  0  0  0
    3.6906   -1.2810    3.3854 C   0  0  1  0  0  0  0  0  0  0  0  0
    3.9337   -2.4560    2.4324 C   0  0  0  0  0  0  0  0  0  0  0  0
    3.9599   -3.7339    2.8443 C   0  0  0  0  0  0  0  0  0  0  0  0
    4.1999   -4.9152    2.0040 C   0  0  0  0  0  0  0  0  0  0  0  0
    4.3969   -4.9367    0.6383 C   0  0  0  0  0  0  0  0  0  0  0  0
    4.5877   -6.2751    0.3299 N   0  0  0  0  0  0  0  0  0  0  0  0
    4.5058   -6.9737    1.4759 C   0  0  0  0  0  0  0  0  0  0  0  0
    4.2712   -6.2104    2.5329 N   0  0  0  0  0  0  0  0  0  0  0  0
    3.2591   -0.1404    6.4841 C   0  0  1  0  0  0  0  0  0  0  0  0
    3.7784    0.5326    7.7711 C   0  0  0  0  0  0  0  0  0  0  0  0
    1.9094   -0.8587    6.7976 C   0  0  0  0  0  0  0  0  0  0  0  0
    0.9505   -1.0641    5.6131 C   0  0  0  0  0  0  0  0  0  0  0  0
    0.8398    0.2848    4.9370 C   0  0  2  0  0  0  0  0  0  0  0  0
   -0.2303    0.5140    3.9063 C   0  0  1  0  0  0  0  0  0  0  0  0
   -1.6259    0.6460    4.5297 C   0  0  0  0  0  0  0  0  0  0  0  0
   -3.8385    4.6163    1.3435 H   0  0  0  0  0  0  0  0  0  0  0  0
   -4.2137    5.8077    2.5239 H   0  0  0  0  0  0  0  0  0  0  0  0
   -4.4104    4.0680    2.8614 H   0  0  0  0  0  0  0  0  0  0  0  0
   -2.3631    4.9172    4.0445 H   0  0  0  0  0  0  0  0  0  0  0  0
   -1.3835    5.7672    1.2808 H   0  0  0  0  0  0  0  0  0  0  0  0
   -0.4439    5.9272    2.7502 H   0  0  0  0  0  0  0  0  0  0  0  0
   -1.8742    6.9088    2.4762 H   0  0  0  0  0  0  0  0  0  0  0  0
   -2.4784    2.7091    3.0131 H   0  0  0  0  0  0  0  0  0  0  0  0
   -1.4911    3.2593    1.7132 H   0  0  0  0  0  0  0  0  0  0  0  0
    0.3713    3.9139    3.2267 H   0  0  0  0  0  0  0  0  0  0  0  0
   -0.4724    3.2761    4.6003 H   0  0  0  0  0  0  0  0  0  0  0  0
    0.3429    2.4504    1.3704 H   0  0  0  0  0  0  0  0  0  0  0  0
    3.1623    1.8672    5.6934 H   0  0  0  0  0  0  0  0  0  0  0  0
    4.9680    1.8093    4.2967 H   0  0  0  0  0  0  0  0  0  0  0  0
    5.4597    0.4561    5.2520 H   0  0  0  0  0  0  0  0  0  0  0  0
    5.6309   -0.3179    2.8993 H   0  0  0  0  0  0  0  0  0  0  0  0
    3.5614    1.5314    2.2795 H   0  0  0  0  0  0  0  0  0  0  0  0
    4.3587    0.8566    0.4800 H   0  0  0  0  0  0  0  0  0  0  0  0
    1.8317   -0.6159    2.3734 H   0  0  0  0  0  0  0  0  0  0  0  0
    3.5762   -1.6720    4.3863 H   0  0  0  0  0  0  0  0  0  0  0  0
    4.1011   -2.2495    1.3841 H   0  0  0  0  0  0  0  0  0  0  0  0
    3.7900   -3.9337    3.8943 H   0  0  0  0  0  0  0  0  0  0  0  0
    4.4082   -4.1463   -0.0947 H   0  0  0  0  0  0  0  0  0  0  0  0
    4.6152   -8.0485    1.5222 H   0  0  0  0  0  0  0  0  0  0  0  0
    3.9784   -0.9349    6.2829 H   0  0  0  0  0  0  0  0  0  0  0  0
    3.1115    1.3257    8.1132 H   0  0  0  0  0  0  0  0  0  0  0  0
    4.7654    0.9733    7.6323 H   0  0  0  0  0  0  0  0  0  0  0  0
    3.8583   -0.1893    8.5848 H   0  0  0  0  0  0  0  0  0  0  0  0
    2.1270   -1.8332    7.2356 H   0  0  0  0  0  0  0  0  0  0  0  0
    1.3754   -0.3062    7.5742 H   0  0  0  0  0  0  0  0  0  0  0  0
    1.3026   -1.8283    4.9188 H   0  0  0  0  0  0  0  0  0  0  0  0
   -0.0212   -1.3940    5.9802 H   0  0  0  0  0  0  0  0  0  0  0  0
    0.6609    1.0217    5.7226 H   0  0  0  0  0  0  0  0  0  0  0  0
   -0.2397   -0.3059    3.1881 H   0  0  0  0  0  0  0  0  0  0  0  0
   -1.7302    1.4690    5.2413 H   0  0  0  0  0  0  0  0  0  0  0  0
   -1.9680   -0.2759    5.0070 H   0  0  0  0  0  0  0  0  0  0  0  0
   -2.2940    0.8279    3.7197 H   0  0  0  0  0  0  0  0  0  0  0  0
    4.7417   -6.6558   -0.5872 H   0  0  0  0  0  0  0  0  0  0  0  0
  1  2  1  0
  1 31  1  0
  1 32  1  0
  1 33  1  0
  2  3  1  0
  2  4  1  0
  2 34  1  0
  3 35  1  0
  3 36  1  0
  3 37  1  0
  4  5  1  0
  4 38  1  0
  4 39  1  0
  5  6  1  0
  5 40  1  0
  5 41  1  0
  6 29  1  0
  6  7  1  6
  6  8  1  0
  7 42  1  0
  9  8  1  6
  9 15  1  0
  9 28  1  0
  9 10  1  0
 10 11  1  0
 10 24  1  0
 10 43  1  1
 11 12  1  0
 11 44  1  0
 11 45  1  0
 12 16  1  0
 12 13  1  0
 12 46  1  6
 13 14  1  0
 13 15  1  0
 13 47  1  6
 14 48  1  0
 15 16  1  0
 15 49  1  6
 16 17  1  0
 16 50  1  1
 17 18  2  3
 17 51  1  0
 18 19  1  0
 18 52  1  0
 19 23  1  0
 19 20  2  0
 20 21  1  0
 20 53  1  0
 21 22  1  0
 21 68  1  0
 22 23  2  0
 22 54  1  0
 24 25  1  0
 24 26  1  0
 24 55  1  6
 25 56  1  0
 25 57  1  0
 25 58  1  0
 26 27  1  0
 26 59  1  0
 26 60  1  0
 27 28  1  0
 27 61  1  0
 27 62  1  0
 28 29  1  0
 28 63  1  1
 29 30  1  0
 29 64  1  6
 30 65  1  0
 30 66  1  0
 30 67  1  0
M  END
>  <i_m_ct_stereo_status>  (40) 
1

>  <s_m_source_file>  (40) 
/var/tmp/pbs.5076255.sched01/tmpc_kifbv4/0gx9_4qhc.sdf

>  <i_m_source_file_index>  (40) 
18

>  <i_lp_mmshare_version>  (40) 
48012

>  <i_f3d_flags>  (40) 
0

>  <s_epik_input>  (40) 
W0NIM11bQ0hdKFtDSDNdKVtDSDJdW0NIMl1bQ0BdKE8xKShbT0hdKVtDQEhdKFtDSDNdKVtDQEhdMltDSDJdW0NIMl1bQ0BIXShbQ0gzXSlbQ0BIXShbQ0BdMTIzKVtDSDJdW0NAQEhdNFtDQEBIXShbT0hdKVtDQEhdM1tDQEhdNC9bQ0hdPVtDSF1cYzVbY0hdbltjSF1bbkhdNQ==

>  <s_epik_cmdline>  (40) 
J2VwaWtfcHl0aG9uJywgJy1waHQnLCAnMi4wJywgJy1waCcsICc3LjAnLCAnLXRuJywgJzgnLCAnLW1hJywgJzIwMCcsICctaW1hZScsICc8aW5maWxlLm1hZT4nLCAnLW9tYWUnLCAnPG91dGZpbGUubWFlPic=

>  <r_epik_Ionization_Penalty>  (40) 
1.48868

>  <r_epik_Ionization_Penalty_Charging>  (40) 
1.48868

>  <r_epik_Ionization_Penalty_Neutral>  (40) 
6.07015e-07

>  <r_epik_State_Penalty>  (40) 
1.81221

>  <r_epik_Charging_Adjusted_Penalty>  (40) 
3.30089

>  <i_epik_Tot_Q>  (40) 
0

>  <i_epik_Tot_abs_Q>  (40) 
0

>  <s_lp_Force_Field>  (40) 
OPLS3e

>  <r_lp_Energy>  (40) 
55.1558

>  <b_lp_Chiralities_Consistent>  (40) 
1

>  <s_lp_Variant>  (40) 
12:0-6

>  <s_i_glide_gridfile>  (40) 
pfpi4k_grid

>  <i_i_glide_lignum>  (40) 
18

>  <i_i_glide_rotatable_bonds>  (40) 
7

>  <r_i_docking_score>  (40) 
-1.51239

>  <r_i_glide_ligand_efficiency>  (40) 
-0.0504131

>  <r_i_glide_ligand_efficiency_sa>  (40) 
-0.156645

>  <r_i_glide_ligand_efficiency_ln>  (40) 
-0.343632

>  <r_i_glide_gscore>  (40) 
-1.51239

>  <r_i_glide_lipo>  (40) 
-0.18394

>  <r_i_glide_hbond>  (40) 
-0.135611

>  <r_i_glide_metal>  (40) 
-0

>  <r_i_glide_rewards>  (40) 
-0.684767

>  <r_i_glide_evdw>  (40) 
-9.17382

>  <r_i_glide_ecoul>  (40) 
-3.0989

>  <r_i_glide_erotb>  (40) 
0.459371

>  <r_i_glide_esite>  (40) 
-0.0439185

>  <r_i_glide_emodel>  (40) 
-13.0928

>  <r_i_glide_energy>  (40) 
-12.2727

>  <r_i_glide_einternal>  (40) 
4.05873

>  <r_i_glide_intrahb_reward>  (40) 
-0

>  <i_i_glide_confnum>  (40) 
4

>  <i_i_glide_posenum>  (40) 
18

>  <r_i_glide_eff_state_penalty>  (40) 
0

>  <ligand_id>  (40) 
12

>  <original_smiles>  (40) 
CC(C)CCC1(O)OC23C(CC4C(O)C2C4C=Cc2cnc[nH]2)C(C)CCC3C1C

>  <smiles>  (40) 
[H]OC1([H])C2([H])C([H])([H])C3([H])C([H])(C([H])([H])[H])C([H])([H])C([H])([H])C4([H])C([H])(C([H])([H])[H])C(O[H])(C([H])([H])C([H])([H])C([H])(C([H])([H])[H])C([H])([H])[H])OC34C1([H])C2([H])C([H])=C([H])c1nc([H])n([H])c1[H]

$$$$
13:0:0
     RDKit          3D

 21 23  0  0  1  0  0  0  0  0999 V2000
    4.0008   -0.4930   -4.3365 C   0  0  0  0  0  0  0  0  0  0  0  0
    3.6331   -1.4654   -3.3281 N   0  0  0  0  0  0  0  0  0  0  0  0
    2.6100   -2.3122   -3.5945 N   0  0  0  0  0  0  0  0  0  0  0  0
    2.4624   -3.0550   -2.5254 C   0  0  0  0  0  0  0  0  0  0  0  0
    3.4410   -2.7488   -1.5170 C   0  0  0  0  0  0  0  0  0  0  0  0
    3.8425   -3.1567   -0.2117 C   0  0  0  0  0  0  0  0  0  0  0  0
    3.2104   -4.1979    0.5300 N   0  0  0  0  0  0  0  0  0  0  0  0
    2.2628   -5.0278    0.0821 C   0  0  0  0  0  0  0  0  0  0  0  0
    1.8665   -5.8595    1.0321 N   0  0  0  0  0  0  0  0  0  0  0  0
    2.6687   -5.5205    2.1114 N   0  0  0  0  0  0  0  0  0  0  0  0
    3.4694   -4.5281    1.8204 N   0  0  0  0  0  0  0  0  0  0  0  0
    4.8890   -2.5081    0.3540 N   0  0  0  0  0  0  0  0  0  0  0  0
    5.5074   -1.5300   -0.3031 C   0  0  0  0  0  0  0  0  0  0  0  0
    5.2665   -1.0548   -1.5241 N   0  0  0  0  0  0  0  0  0  0  0  0
    4.2011   -1.6920   -2.0858 C   0  0  0  0  0  0  0  0  0  0  0  0
    3.9790    0.5097   -3.9072 H   0  0  0  0  0  0  0  0  0  0  0  0
    3.3098   -0.5312   -5.1795 H   0  0  0  0  0  0  0  0  0  0  0  0
    4.9999   -0.7167   -4.6957 H   0  0  0  0  0  0  0  0  0  0  0  0
    1.6647   -3.7839   -2.5307 H   0  0  0  0  0  0  0  0  0  0  0  0
    1.8229   -5.0446   -0.8991 H   0  0  0  0  0  0  0  0  0  0  0  0
    6.3330   -1.0776    0.2223 H   0  0  0  0  0  0  0  0  0  0  0  0
  1  2  1  0
  1 16  1  0
  1 17  1  0
  1 18  1  0
  2 15  1  0
  2  3  1  0
  3  4  2  0
  4  5  1  0
  4 19  1  0
  5 15  2  0
  5  6  1  0
  6  7  1  0
  6 12  2  0
  7 11  1  0
  7  8  1  0
  8  9  2  0
  8 20  1  0
  9 10  1  0
 10 11  2  0
 12 13  1  0
 13 14  2  0
 13 21  1  0
 14 15  1  0
M  END
>  <i_m_ct_stereo_status>  (41) 
1

>  <s_m_source_file>  (41) 
/var/tmp/pbs.5076255.sched01/tmpc_kifbv4/0gx9_4qhc.sdf

>  <i_m_source_file_index>  (41) 
19

>  <i_lp_mmshare_version>  (41) 
48012

>  <i_f3d_flags>  (41) 
0

>  <s_epik_input>  (41) 
W2NIXTFubihbQ0gzXSljKGMxMiluW2NIXW5jMi1uM1tjSF1ubm4z

>  <s_epik_cmdline>  (41) 
J2VwaWtfcHl0aG9uJywgJy1waHQnLCAnMi4wJywgJy1waCcsICc3LjAnLCAnLXRuJywgJzgnLCAnLW1hJywgJzIwMCcsICctaW1hZScsICc8aW5maWxlLm1hZT4nLCAnLW9tYWUnLCAnPG91dGZpbGUubWFlPic=

>  <r_lp_tautomer_probability>  (41) 
1

>  <r_epik_Ionization_Penalty>  (41) 
8.05334e-10

>  <r_epik_Ionization_Penalty_Charging>  (41) 
0

>  <r_epik_Ionization_Penalty_Neutral>  (41) 
8.05334e-10

>  <r_epik_State_Penalty>  (41) 
-0

>  <r_epik_Charging_Adjusted_Penalty>  (41) 
0

>  <i_epik_Tot_Q>  (41) 
0

>  <i_epik_Tot_abs_Q>  (41) 
0

>  <s_lp_Force_Field>  (41) 
OPLS3e

>  <r_lp_Energy>  (41) 
19.2096

>  <b_lp_Chiralities_Consistent>  (41) 
1

>  <s_lp_Variant>  (41) 
13:0-1

>  <s_i_glide_gridfile>  (41) 
pfpi4k_grid

>  <i_i_glide_lignum>  (41) 
19

>  <i_i_glide_rotatable_bonds>  (41) 
1

>  <r_i_docking_score>  (41) 
-3.99211

>  <r_i_glide_ligand_efficiency>  (41) 
-0.266141

>  <r_i_glide_ligand_efficiency_sa>  (41) 
-0.656359

>  <r_i_glide_ligand_efficiency_ln>  (41) 
-1.07661

>  <r_i_glide_gscore>  (41) 
-3.99211

>  <r_i_glide_lipo>  (41) 
-0.297404

>  <r_i_glide_hbond>  (41) 
0

>  <r_i_glide_metal>  (41) 
-0

>  <r_i_glide_rewards>  (41) 
-2.20653

>  <r_i_glide_evdw>  (41) 
-23.4386

>  <r_i_glide_ecoul>  (41) 
-3.47242

>  <r_i_glide_erotb>  (41) 
0.401029

>  <r_i_glide_esite>  (41) 
-0.196411

>  <r_i_glide_emodel>  (41) 
-33.3032

>  <r_i_glide_energy>  (41) 
-26.911

>  <r_i_glide_einternal>  (41) 
0.484088

>  <r_i_glide_intrahb_reward>  (41) 
-0

>  <i_i_glide_confnum>  (41) 
2

>  <i_i_glide_posenum>  (41) 
24

>  <r_i_glide_eff_state_penalty>  (41) 
0

>  <ligand_id>  (41) 
13

>  <original_smiles>  (41) 
Cn1ncc2c(-n3cnnn3)ncnc21

>  <smiles>  (41) 
[H]c1nc(-n2nnnc2[H])c2c([H])nn(C([H])([H])[H])c2n1

$$$$
13:0:1
     RDKit          3D

 21 23  0  0  1  0  0  0  0  0999 V2000
   -0.5214   -8.2959    2.3588 C   0  0  0  0  0  0  0  0  0  0  0  0
    0.6853   -7.5811    1.9841 N   0  0  0  0  0  0  0  0  0  0  0  0
    0.6091   -6.2551    1.6915 N   0  0  0  0  0  0  0  0  0  0  0  0
    1.8316   -5.8693    1.4178 C   0  0  0  0  0  0  0  0  0  0  0  0
    2.7639   -6.9588    1.4851 C   0  0  0  0  0  0  0  0  0  0  0  0
    4.1506   -7.2174    1.3093 C   0  0  0  0  0  0  0  0  0  0  0  0
    5.0952   -6.2091    0.9733 N   0  0  0  0  0  0  0  0  0  0  0  0
    4.8397   -5.1108    0.2554 C   0  0  0  0  0  0  0  0  0  0  0  0
    5.9415   -4.3907    0.0894 N   0  0  0  0  0  0  0  0  0  0  0  0
    6.9135   -5.1262    0.7532 N   0  0  0  0  0  0  0  0  0  0  0  0
    6.4210   -6.2205    1.2710 N   0  0  0  0  0  0  0  0  0  0  0  0
    4.5852   -8.4837    1.5064 N   0  0  0  0  0  0  0  0  0  0  0  0
    3.7267   -9.4394    1.8685 C   0  0  0  0  0  0  0  0  0  0  0  0
    2.4179   -9.3411    2.0855 N   0  0  0  0  0  0  0  0  0  0  0  0
    1.9750   -8.0745    1.8709 C   0  0  0  0  0  0  0  0  0  0  0  0
   -0.6788   -9.1346    1.6835 H   0  0  0  0  0  0  0  0  0  0  0  0
   -1.3897   -7.6423    2.3022 H   0  0  0  0  0  0  0  0  0  0  0  0
   -0.4306   -8.6778    3.3755 H   0  0  0  0  0  0  0  0  0  0  0  0
    2.0097   -4.8293    1.1801 H   0  0  0  0  0  0  0  0  0  0  0  0
    3.8892   -4.8214   -0.1650 H   0  0  0  0  0  0  0  0  0  0  0  0
    4.1680  -10.4083    2.0349 H   0  0  0  0  0  0  0  0  0  0  0  0
  1  2  1  0
  1 16  1  0
  1 17  1  0
  1 18  1  0
  2 15  1  0
  2  3  1  0
  3  4  2  0
  4  5  1  0
  4 19  1  0
  5 15  2  0
  5  6  1  0
  6  7  1  0
  6 12  2  0
  7 11  1  0
  7  8  1  0
  8  9  2  0
  8 20  1  0
  9 10  1  0
 10 11  2  0
 12 13  1  0
 13 14  2  0
 13 21  1  0
 14 15  1  0
M  END
>  <i_m_ct_stereo_status>  (42) 
1

>  <s_m_source_file>  (42) 
/var/tmp/pbs.5076255.sched01/tmpc_kifbv4/0gx9_4qhc.sdf

>  <i_m_source_file_index>  (42) 
19

>  <i_lp_mmshare_version>  (42) 
48012

>  <i_f3d_flags>  (42) 
0

>  <s_epik_input>  (42) 
W2NIXTFubihbQ0gzXSljKGMxMiluW2NIXW5jMi1uM1tjSF1ubm4z

>  <s_epik_cmdline>  (42) 
J2VwaWtfcHl0aG9uJywgJy1waHQnLCAnMi4wJywgJy1waCcsICc3LjAnLCAnLXRuJywgJzgnLCAnLW1hJywgJzIwMCcsICctaW1hZScsICc8aW5maWxlLm1hZT4nLCAnLW9tYWUnLCAnPG91dGZpbGUubWFlPic=

>  <r_lp_tautomer_probability>  (42) 
1

>  <r_epik_Ionization_Penalty>  (42) 
8.05334e-10

>  <r_epik_Ionization_Penalty_Charging>  (42) 
0

>  <r_epik_Ionization_Penalty_Neutral>  (42) 
8.05334e-10

>  <r_epik_State_Penalty>  (42) 
-0

>  <r_epik_Charging_Adjusted_Penalty>  (42) 
0

>  <i_epik_Tot_Q>  (42) 
0

>  <i_epik_Tot_abs_Q>  (42) 
0

>  <s_lp_Force_Field>  (42) 
OPLS3e

>  <r_lp_Energy>  (42) 
19.2096

>  <b_lp_Chiralities_Consistent>  (42) 
1

>  <s_lp_Variant>  (42) 
13:0-1

>  <s_i_glide_gridfile>  (42) 
pfpi4k_grid

>  <i_i_glide_lignum>  (42) 
19

>  <i_i_glide_rotatable_bonds>  (42) 
1

>  <r_i_docking_score>  (42) 
-3.85448

>  <r_i_glide_ligand_efficiency>  (42) 
-0.256965

>  <r_i_glide_ligand_efficiency_sa>  (42) 
-0.633731

>  <r_i_glide_ligand_efficiency_ln>  (42) 
-1.03949

>  <r_i_glide_gscore>  (42) 
-3.85448

>  <r_i_glide_lipo>  (42) 
-0.014844

>  <r_i_glide_hbond>  (42) 
-0.160227

>  <r_i_glide_metal>  (42) 
-0

>  <r_i_glide_rewards>  (42) 
-2.37703

>  <r_i_glide_evdw>  (42) 
-19.1068

>  <r_i_glide_ecoul>  (42) 
-4.11837

>  <r_i_glide_erotb>  (42) 
0.401029

>  <r_i_glide_esite>  (42) 
-0.130308

>  <r_i_glide_emodel>  (42) 
-29.2681

>  <r_i_glide_energy>  (42) 
-23.2252

>  <r_i_glide_einternal>  (42) 
0.74606

>  <r_i_glide_intrahb_reward>  (42) 
-0

>  <i_i_glide_confnum>  (42) 
2

>  <i_i_glide_posenum>  (42) 
32

>  <r_i_glide_eff_state_penalty>  (42) 
0

>  <ligand_id>  (42) 
13

>  <original_smiles>  (42) 
Cn1ncc2c(-n3cnnn3)ncnc21

>  <smiles>  (42) 
[H]c1nc(-n2nnnc2[H])c2c([H])nn(C([H])([H])[H])c2n1

$$$$
13:0:2
     RDKit          3D

 21 23  0  0  1  0  0  0  0  0999 V2000
    4.0224   -0.6625   -4.2955 C   0  0  0  0  0  0  0  0  0  0  0  0
    3.6627   -1.6209   -3.2737 N   0  0  0  0  0  0  0  0  0  0  0  0
    2.6018   -2.4370   -3.4966 N   0  0  0  0  0  0  0  0  0  0  0  0
    2.4621   -3.1570   -2.4099 C   0  0  0  0  0  0  0  0  0  0  0  0
    3.4959   -2.8829   -1.4555 C   0  0  0  0  0  0  0  0  0  0  0  0
    3.9269   -3.3226   -0.1789 C   0  0  0  0  0  0  0  0  0  0  0  0
    3.2506   -4.3619    0.5162 N   0  0  0  0  0  0  0  0  0  0  0  0
    3.5639   -4.7808    1.7451 C   0  0  0  0  0  0  0  0  0  0  0  0
    2.7361   -5.7373    2.1441 N   0  0  0  0  0  0  0  0  0  0  0  0
    1.8878   -5.9010    1.0595 N   0  0  0  0  0  0  0  0  0  0  0  0
    2.1938   -5.0866    0.0838 N   0  0  0  0  0  0  0  0  0  0  0  0
    5.0183   -2.7271    0.3587 N   0  0  0  0  0  0  0  0  0  0  0  0
    5.6527   -1.7647   -0.3122 C   0  0  0  0  0  0  0  0  0  0  0  0
    5.3815   -1.2662   -1.5192 N   0  0  0  0  0  0  0  0  0  0  0  0
    4.2726   -1.8569   -2.0487 C   0  0  0  0  0  0  0  0  0  0  0  0
    4.0534    0.3370   -3.8619 H   0  0  0  0  0  0  0  0  0  0  0  0
    3.2932   -0.6749   -5.1062 H   0  0  0  0  0  0  0  0  0  0  0  0
    4.9993   -0.9238   -4.6938 H   0  0  0  0  0  0  0  0  0  0  0  0
    1.6582   -3.8762   -2.3526 H   0  0  0  0  0  0  0  0  0  0  0  0
    4.3731   -4.3994    2.3468 H   0  0  0  0  0  0  0  0  0  0  0  0
    6.5200   -1.3395    0.1748 H   0  0  0  0  0  0  0  0  0  0  0  0
  1  2  1  0
  1 16  1  0
  1 17  1  0
  1 18  1  0
  2 15  1  0
  2  3  1  0
  3  4  2  0
  4  5  1  0
  4 19  1  0
  5 15  2  0
  5  6  1  0
  6  7  1  0
  6 12  2  0
  7 11  1  0
  7  8  1  0
  8  9  2  0
  8 20  1  0
  9 10  1  0
 10 11  2  0
 12 13  1  0
 13 14  2  0
 13 21  1  0
 14 15  1  0
M  END
>  <i_m_ct_stereo_status>  (43) 
1

>  <s_m_source_file>  (43) 
/var/tmp/pbs.5076255.sched01/tmpc_kifbv4/0gx9_4qhc.sdf

>  <i_m_source_file_index>  (43) 
19

>  <i_lp_mmshare_version>  (43) 
48012

>  <i_f3d_flags>  (43) 
0

>  <s_epik_input>  (43) 
W2NIXTFubihbQ0gzXSljKGMxMiluW2NIXW5jMi1uM1tjSF1ubm4z

>  <s_epik_cmdline>  (43) 
J2VwaWtfcHl0aG9uJywgJy1waHQnLCAnMi4wJywgJy1waCcsICc3LjAnLCAnLXRuJywgJzgnLCAnLW1hJywgJzIwMCcsICctaW1hZScsICc8aW5maWxlLm1hZT4nLCAnLW9tYWUnLCAnPG91dGZpbGUubWFlPic=

>  <r_lp_tautomer_probability>  (43) 
1

>  <r_epik_Ionization_Penalty>  (43) 
8.05334e-10

>  <r_epik_Ionization_Penalty_Charging>  (43) 
0

>  <r_epik_Ionization_Penalty_Neutral>  (43) 
8.05334e-10

>  <r_epik_State_Penalty>  (43) 
-0

>  <r_epik_Charging_Adjusted_Penalty>  (43) 
0

>  <i_epik_Tot_Q>  (43) 
0

>  <i_epik_Tot_abs_Q>  (43) 
0

>  <s_lp_Force_Field>  (43) 
OPLS3e

>  <r_lp_Energy>  (43) 
19.2096

>  <b_lp_Chiralities_Consistent>  (43) 
1

>  <s_lp_Variant>  (43) 
13:0-1

>  <s_i_glide_gridfile>  (43) 
pfpi4k_grid

>  <i_i_glide_lignum>  (43) 
19

>  <i_i_glide_rotatable_bonds>  (43) 
1

>  <r_i_docking_score>  (43) 
-3.76613

>  <r_i_glide_ligand_efficiency>  (43) 
-0.251075

>  <r_i_glide_ligand_efficiency_sa>  (43) 
-0.619205

>  <r_i_glide_ligand_efficiency_ln>  (43) 
-1.01566

>  <r_i_glide_gscore>  (43) 
-3.76613

>  <r_i_glide_lipo>  (43) 
-0.262273

>  <r_i_glide_hbond>  (43) 
0

>  <r_i_glide_metal>  (43) 
-0

>  <r_i_glide_rewards>  (43) 
-2.23007

>  <r_i_glide_evdw>  (43) 
-23.4721

>  <r_i_glide_ecoul>  (43) 
-2.11083

>  <r_i_glide_erotb>  (43) 
0.401029

>  <r_i_glide_esite>  (43) 
-0.184588

>  <r_i_glide_emodel>  (43) 
-31.8933

>  <r_i_glide_energy>  (43) 
-25.5829

>  <r_i_glide_einternal>  (43) 
0.00313675

>  <r_i_glide_intrahb_reward>  (43) 
-0

>  <i_i_glide_confnum>  (43) 
1

>  <i_i_glide_posenum>  (43) 
16

>  <r_i_glide_eff_state_penalty>  (43) 
0

>  <ligand_id>  (43) 
13

>  <original_smiles>  (43) 
Cn1ncc2c(-n3cnnn3)ncnc21

>  <smiles>  (43) 
[H]c1nc(-n2nnnc2[H])c2c([H])nn(C([H])([H])[H])c2n1

$$$$
14:0:0
     RDKit          3D

 69 74  0  0  1  0  0  0  0  0999 V2000
    5.1651   -8.5863    6.4906 C   0  0  0  0  0  0  0  0  0  0  0  0
    5.7447   -7.2213    6.1183 C   0  0  2  0  0  0  0  0  0  0  0  0
    5.5100   -6.1993    7.2462 C   0  0  0  0  0  0  0  0  0  0  0  0
    5.9186   -4.7922    6.7973 C   0  0  0  0  0  0  0  0  0  0  0  0
    5.1730   -4.4336    5.4895 C   0  0  2  0  0  0  0  0  0  0  0  0
    5.4747   -5.3738    4.4894 O   0  0  0  0  0  0  0  0  0  0  0  0
    5.2063   -6.7483    4.7805 C   0  0  0  0  0  0  0  0  0  0  0  0
    5.6162   -3.1522    5.0453 O   0  0  0  0  0  0  0  0  0  0  0  0
    4.4995   -2.2711    5.0092 C   0  0  1  0  0  0  0  0  0  0  0  0
    4.2652   -1.1515    3.9886 C   0  0  0  0  0  0  0  0  0  0  0  0
    2.7432   -1.2584    3.6097 C   0  0  2  0  0  0  0  0  0  0  0  0
    1.9102    0.0591    3.5471 C   0  0  2  0  0  0  0  0  0  0  0  0
    2.6255    1.1396    2.7080 C   0  0  0  0  0  0  0  0  0  0  0  0
    1.9849    2.5066    2.8429 C   0  0  0  0  0  0  0  0  0  0  0  0
    1.0978    2.8607    3.7892 C   0  0  0  0  0  0  0  0  0  0  0  0
    0.4204    4.2249    3.7542 C   0  0  0  0  0  0  0  0  0  0  0  0
   -1.1300    4.1191    3.6765 C   0  0  0  0  0  0  0  0  0  0  0  0
   -1.8094    4.9108    3.1537 O   0  0  0  0  0  0  0  0  0  0  0  0
   -1.7627    2.9029    4.3965 C   0  0  0  0  0  0  0  0  0  0  0  0
   -2.9402    2.9682    4.7528 O   0  0  0  0  0  0  0  0  0  0  0  0
   -0.8977    1.6528    4.6257 C   0  0  0  0  0  0  0  0  0  0  0  0
    0.6207    1.9152    4.9047 C   0  0  2  0  0  0  0  0  0  0  0  0
    0.7965    2.6170    6.2841 C   0  0  0  0  0  0  0  0  0  0  0  0
    1.4670    0.5775    4.9412 C   0  0  1  0  0  0  0  0  0  0  0  0
    0.7388   -0.5635    5.7030 C   0  0  0  0  0  0  0  0  0  0  0  0
    1.6232   -1.8046    5.8775 C   0  0  0  0  0  0  0  0  0  0  0  0
    2.1334   -2.3697    4.5218 C   0  0  1  0  0  0  0  0  0  0  0  0
    1.0104   -3.1521    3.8049 C   0  0  0  0  0  0  0  0  0  0  0  0
    3.3923   -3.2263    4.6741 C   0  0  2  0  0  0  0  0  0  0  0  0
    3.6202   -4.2800    5.7072 C   0  0  1  0  0  0  0  0  0  0  0  0
    2.7494   -5.5319    5.5123 C   0  0  0  0  0  0  0  0  0  0  0  0
    4.0839   -8.5518    6.6527 H   0  0  0  0  0  0  0  0  0  0  0  0
    5.6317   -8.9430    7.4024 H   0  0  0  0  0  0  0  0  0  0  0  0
    5.3583   -9.3103    5.6996 H   0  0  0  0  0  0  0  0  0  0  0  0
    6.8042   -7.3222    5.9278 H   0  0  0  0  0  0  0  0  0  0  0  0
    4.4827   -6.2000    7.6047 H   0  0  0  0  0  0  0  0  0  0  0  0
    6.0916   -6.4988    8.1121 H   0  0  0  0  0  0  0  0  0  0  0  0
    5.6545   -4.0638    7.5645 H   0  0  0  0  0  0  0  0  0  0  0  0
    6.9961   -4.7416    6.6541 H   0  0  0  0  0  0  0  0  0  0  0  0
    5.3224   -7.4044    3.9339 H   0  0  0  0  0  0  0  0  0  0  0  0
    4.2105   -7.0585    4.8013 H   0  0  0  0  0  0  0  0  0  0  0  0
    4.4336   -1.8383    6.0085 H   0  0  0  0  0  0  0  0  0  0  0  0
    4.5071   -0.1893    4.4368 H   0  0  0  0  0  0  0  0  0  0  0  0
    4.9027   -1.2815    3.1134 H   0  0  0  0  0  0  0  0  0  0  0  0
    2.7402   -1.6464    2.5869 H   0  0  0  0  0  0  0  0  0  0  0  0
    0.9869   -0.1806    3.0130 H   0  0  0  0  0  0  0  0  0  0  0  0
    3.6803    1.2387    2.9665 H   0  0  0  0  0  0  0  0  0  0  0  0
    2.6093    0.8479    1.6560 H   0  0  0  0  0  0  0  0  0  0  0  0
    2.2560    3.2331    2.0883 H   0  0  0  0  0  0  0  0  0  0  0  0
    0.6959    4.8011    4.6339 H   0  0  0  0  0  0  0  0  0  0  0  0
    0.7569    4.7998    2.8897 H   0  0  0  0  0  0  0  0  0  0  0  0
   -1.3481    1.0843    5.4353 H   0  0  0  0  0  0  0  0  0  0  0  0
   -0.9940    1.0451    3.7260 H   0  0  0  0  0  0  0  0  0  0  0  0
    0.5041    1.9747    7.1135 H   0  0  0  0  0  0  0  0  0  0  0  0
    0.1968    3.5212    6.3864 H   0  0  0  0  0  0  0  0  0  0  0  0
    1.8347    2.9069    6.4581 H   0  0  0  0  0  0  0  0  0  0  0  0
    2.3985    0.7885    5.4769 H   0  0  0  0  0  0  0  0  0  0  0  0
    0.4297   -0.2235    6.6889 H   0  0  0  0  0  0  0  0  0  0  0  0
   -0.1808   -0.8402    5.1883 H   0  0  0  0  0  0  0  0  0  0  0  0
    2.4384   -1.4946    6.5238 H   0  0  0  0  0  0  0  0  0  0  0  0
    1.1057   -2.5813    6.4471 H   0  0  0  0  0  0  0  0  0  0  0  0
    0.5996   -3.9381    4.4355 H   0  0  0  0  0  0  0  0  0  0  0  0
    1.3679   -3.6262    2.8887 H   0  0  0  0  0  0  0  0  0  0  0  0
    0.1906   -2.4976    3.5278 H   0  0  0  0  0  0  0  0  0  0  0  0
    3.6094   -3.6721    3.6963 H   0  0  0  0  0  0  0  0  0  0  0  0
    3.4590   -3.9261    6.7186 H   0  0  0  0  0  0  0  0  0  0  0  0
    2.7695   -5.8312    4.4570 H   0  0  0  0  0  0  0  0  0  0  0  0
    1.7063   -5.4499    5.7256 H   0  0  0  0  0  0  0  0  0  0  0  0
    3.0585   -6.3265    6.1933 H   0  0  0  0  0  0  0  0  0  0  0  0
  1  2  1  0
  1 32  1  0
  1 33  1  0
  1 34  1  0
  2  7  1  0
  2  3  1  0
  2 35  1  6
  3  4  1  0
  3 36  1  0
  3 37  1  0
  4  5  1  0
  4 38  1  0
  4 39  1  0
  5 30  1  0
  5  6  1  6
  5  8  1  0
  6  7  1  0
  7 40  1  0
  7 41  1  0
  8  9  1  0
  9 29  1  0
  9 10  1  0
  9 42  1  1
 10 11  1  0
 10 43  1  0
 10 44  1  0
 11 27  1  0
 11 12  1  0
 11 45  1  6
 12 24  1  0
 12 13  1  0
 12 46  1  6
 13 14  1  0
 13 47  1  0
 13 48  1  0
 14 15  2  0
 14 49  1  0
 15 22  1  0
 15 16  1  0
 16 17  1  0
 16 50  1  0
 16 51  1  0
 17 18  2  0
 17 19  1  0
 19 20  2  0
 19 21  1  0
 21 22  1  0
 21 52  1  0
 21 53  1  0
 22 23  1  1
 22 24  1  0
 23 54  1  0
 23 55  1  0
 23 56  1  0
 24 25  1  0
 24 57  1  1
 25 26  1  0
 25 58  1  0
 25 59  1  0
 26 27  1  0
 26 60  1  0
 26 61  1  0
 27 28  1  6
 27 29  1  0
 28 62  1  0
 28 63  1  0
 28 64  1  0
 29 30  1  0
 29 65  1  6
 30 31  1  0
 30 66  1  1
 31 67  1  0
 31 68  1  0
 31 69  1  0
M  END
>  <i_m_ct_stereo_status>  (44) 
1

>  <s_m_source_file>  (44) 
/var/tmp/pbs.5076255.sched01/tmpc_kifbv4/0gx9_4qhc.sdf

>  <i_m_source_file_index>  (44) 
20

>  <i_lp_mmshare_version>  (44) 
48012

>  <i_f3d_flags>  (44) 
0

>  <s_epik_input>  (44) 
TzFbQ0gyXVtDQEhdKFtDSDNdKVtDSDJdW0NIMl1bQ0BAXTEyT1tDQEBIXTNbQ0BASF0oW0NASF0yW0NIM10pW0NAXTQoW0NIM10pW0NASF0oW0NIMl0zKVtDQEhdNVtDQEhdKFtDSDJdW0NIMl00KVtDQEBdNihbQ0gzXSlDKD1bQ0hdW0NIMl01KVtDSDJdQyg9TylDKD1PKVtDSDJdNg==

>  <s_epik_cmdline>  (44) 
J2VwaWtfcHl0aG9uJywgJy1waHQnLCAnMi4wJywgJy1waCcsICc3LjAnLCAnLXRuJywgJzgnLCAnLW1hJywgJzIwMCcsICctaW1hZScsICc8aW5maWxlLm1hZT4nLCAnLW9tYWUnLCAnPG91dGZpbGUubWFlPic=

>  <r_lp_tautomer_probability>  (44) 
1

>  <r_epik_Ionization_Penalty>  (44) 
4.43667e-12

>  <r_epik_Ionization_Penalty_Charging>  (44) 
0

>  <r_epik_Ionization_Penalty_Neutral>  (44) 
4.43667e-12

>  <r_epik_State_Penalty>  (44) 
-0

>  <r_epik_Charging_Adjusted_Penalty>  (44) 
0

>  <i_epik_Tot_Q>  (44) 
0

>  <i_epik_Tot_abs_Q>  (44) 
0

>  <s_lp_Force_Field>  (44) 
OPLS3e

>  <r_lp_Energy>  (44) 
61.2276

>  <b_lp_Chiralities_Consistent>  (44) 
1

>  <s_lp_Variant>  (44) 
14:0-1

>  <s_i_glide_gridfile>  (44) 
pfpi4k_grid

>  <i_i_glide_lignum>  (44) 
20

>  <i_i_glide_rotatable_bonds>  (44) 
0

>  <r_i_docking_score>  (44) 
-2.20785

>  <r_i_glide_ligand_efficiency>  (44) 
-0.0712211

>  <r_i_glide_ligand_efficiency_sa>  (44) 
-0.223732

>  <r_i_glide_ligand_efficiency_ln>  (44) 
-0.497938

>  <r_i_glide_gscore>  (44) 
-2.20785

>  <r_i_glide_lipo>  (44) 
-0.0705285

>  <r_i_glide_hbond>  (44) 
-0.16

>  <r_i_glide_metal>  (44) 
-0

>  <r_i_glide_rewards>  (44) 
-0.501134

>  <r_i_glide_evdw>  (44) 
-20.4283

>  <r_i_glide_ecoul>  (44) 
-4.88585

>  <r_i_glide_erotb>  (44) 
0

>  <r_i_glide_esite>  (44) 
-0.127925

>  <r_i_glide_emodel>  (44) 
-24.0489

>  <r_i_glide_energy>  (44) 
-25.3141

>  <r_i_glide_einternal>  (44) 
0

>  <r_i_glide_intrahb_reward>  (44) 
-0

>  <i_i_glide_confnum>  (44) 
2

>  <i_i_glide_posenum>  (44) 
32

>  <r_i_glide_eff_state_penalty>  (44) 
0

>  <ligand_id>  (44) 
14

>  <original_smiles>  (44) 
CC1CCC2(OC1)OC1CC3C4CC=C5CC(=O)C(=O)CC5(C)C4CCC3(C)C1C2C

>  <smiles>  (44) 
[H]C1=C2C([H])([H])C(=O)C(=O)C([H])([H])C2(C([H])([H])[H])C2([H])C([H])([H])C([H])([H])C3(C([H])([H])[H])C([H])(C([H])([H])C4([H])OC5(OC([H])([H])C([H])(C([H])([H])[H])C([H])([H])C5([H])[H])C([H])(C([H])([H])[H])C43[H])C2([H])C1([H])[H]

$$$$
14:0:1
     RDKit          3D

 69 74  0  0  1  0  0  0  0  0999 V2000
    5.2529   -8.0935    5.9492 C   0  0  0  0  0  0  0  0  0  0  0  0
    5.7232   -6.6413    5.9985 C   0  0  2  0  0  0  0  0  0  0  0  0
    5.0264   -5.8769    7.1360 C   0  0  0  0  0  0  0  0  0  0  0  0
    5.3604   -4.3816    7.0678 C   0  0  0  0  0  0  0  0  0  0  0  0
    5.0140   -3.8380    5.6623 C   0  0  2  0  0  0  0  0  0  0  0  0
    5.7251   -4.5499    4.6806 O   0  0  0  0  0  0  0  0  0  0  0  0
    5.5370   -5.9683    4.6467 C   0  0  0  0  0  0  0  0  0  0  0  0
    5.3924   -2.4649    5.5874 O   0  0  0  0  0  0  0  0  0  0  0  0
    4.2305   -1.6848    5.3331 C   0  0  1  0  0  0  0  0  0  0  0  0
    4.1669   -0.4151    4.4769 C   0  0  0  0  0  0  0  0  0  0  0  0
    2.8609   -0.5667    3.6153 C   0  0  2  0  0  0  0  0  0  0  0  0
    1.9150    0.6691    3.4933 C   0  0  2  0  0  0  0  0  0  0  0  0
    2.7001    1.9413    3.1123 C   0  0  0  0  0  0  0  0  0  0  0  0
    1.8753    3.2052    3.2419 C   0  0  0  0  0  0  0  0  0  0  0  0
    0.7016    3.3003    3.8937 C   0  0  0  0  0  0  0  0  0  0  0  0
   -0.1101    4.5945    3.8541 C   0  0  0  0  0  0  0  0  0  0  0  0
   -1.5294    4.3690    3.2595 C   0  0  0  0  0  0  0  0  0  0  0  0
   -2.1359    5.2329    2.6756 O   0  0  0  0  0  0  0  0  0  0  0  0
   -2.1854    3.0125    3.5421 C   0  0  0  0  0  0  0  0  0  0  0  0
   -3.4163    2.9420    3.5062 O   0  0  0  0  0  0  0  0  0  0  0  0
   -1.2740    1.8049    3.8410 C   0  0  0  0  0  0  0  0  0  0  0  0
    0.0392    2.1284    4.6343 C   0  0  2  0  0  0  0  0  0  0  0  0
   -0.3084    2.5673    6.0879 C   0  0  0  0  0  0  0  0  0  0  0  0
    1.0071    0.8775    4.7347 C   0  0  1  0  0  0  0  0  0  0  0  0
    0.2416   -0.4409    5.0314 C   0  0  0  0  0  0  0  0  0  0  0  0
    1.1876   -1.6206    5.2878 C   0  0  0  0  0  0  0  0  0  0  0  0
    2.1578   -1.8759    4.0991 C   0  0  1  0  0  0  0  0  0  0  0  0
    1.4232   -2.5915    2.9470 C   0  0  0  0  0  0  0  0  0  0  0  0
    3.4168   -2.6458    4.5149 C   0  0  2  0  0  0  0  0  0  0  0  0
    3.4621   -3.8578    5.3893 C   0  0  1  0  0  0  0  0  0  0  0  0
    2.8650   -5.1104    4.7350 C   0  0  0  0  0  0  0  0  0  0  0  0
    4.1791   -8.1776    5.7571 H   0  0  0  0  0  0  0  0  0  0  0  0
    5.4645   -8.5800    6.8953 H   0  0  0  0  0  0  0  0  0  0  0  0
    5.7729   -8.6384    5.1613 H   0  0  0  0  0  0  0  0  0  0  0  0
    6.7969   -6.6237    6.1448 H   0  0  0  0  0  0  0  0  0  0  0  0
    3.9482   -6.0252    7.1345 H   0  0  0  0  0  0  0  0  0  0  0  0
    5.3541   -6.2886    8.0850 H   0  0  0  0  0  0  0  0  0  0  0  0
    4.7815   -3.8361    7.8121 H   0  0  0  0  0  0  0  0  0  0  0  0
    6.4133   -4.2224    7.2922 H   0  0  0  0  0  0  0  0  0  0  0  0
    6.0003   -6.4412    3.7994 H   0  0  0  0  0  0  0  0  0  0  0  0
    4.6540   -6.3304    4.3166 H   0  0  0  0  0  0  0  0  0  0  0  0
    3.8061   -1.4554    6.3121 H   0  0  0  0  0  0  0  0  0  0  0  0
    4.1291    0.4606    5.1228 H   0  0  0  0  0  0  0  0  0  0  0  0
    5.0520   -0.3262    3.8465 H   0  0  0  0  0  0  0  0  0  0  0  0
    3.2204   -0.7522    2.5990 H   0  0  0  0  0  0  0  0  0  0  0  0
    1.2393    0.4636    2.6586 H   0  0  0  0  0  0  0  0  0  0  0  0
    3.6063    2.0720    3.7051 H   0  0  0  0  0  0  0  0  0  0  0  0
    3.0420    1.8540    2.0798 H   0  0  0  0  0  0  0  0  0  0  0  0
    2.2599    4.0789    2.7360 H   0  0  0  0  0  0  0  0  0  0  0  0
   -0.1937    5.0087    4.8519 H   0  0  0  0  0  0  0  0  0  0  0  0
    0.3913    5.3429    3.2445 H   0  0  0  0  0  0  0  0  0  0  0  0
   -1.8682    1.0602    4.3632 H   0  0  0  0  0  0  0  0  0  0  0  0
   -1.0089    1.3742    2.8762 H   0  0  0  0  0  0  0  0  0  0  0  0
   -0.7496    1.7581    6.6675 H   0  0  0  0  0  0  0  0  0  0  0  0
   -1.0266    3.3857    6.1295 H   0  0  0  0  0  0  0  0  0  0  0  0
    0.5798    2.8988    6.6299 H   0  0  0  0  0  0  0  0  0  0  0  0
    1.6955    1.0553    5.5671 H   0  0  0  0  0  0  0  0  0  0  0  0
   -0.3962   -0.3190    5.9042 H   0  0  0  0  0  0  0  0  0  0  0  0
   -0.4345   -0.6844    4.2121 H   0  0  0  0  0  0  0  0  0  0  0  0
    1.7194   -1.3737    6.2015 H   0  0  0  0  0  0  0  0  0  0  0  0
    0.6319   -2.5291    5.5331 H   0  0  0  0  0  0  0  0  0  0  0  0
    0.9469   -3.5133    3.2802 H   0  0  0  0  0  0  0  0  0  0  0  0
    2.0985   -2.8546    2.1317 H   0  0  0  0  0  0  0  0  0  0  0  0
    0.6424   -1.9622    2.5230 H   0  0  0  0  0  0  0  0  0  0  0  0
    3.9759   -2.8782    3.6011 H   0  0  0  0  0  0  0  0  0  0  0  0
    2.9505   -3.7155    6.3342 H   0  0  0  0  0  0  0  0  0  0  0  0
    3.2584   -5.2091    3.6996 H   0  0  0  0  0  0  0  0  0  0  0  0
    1.8233   -5.1584    4.6047 H   0  0  0  0  0  0  0  0  0  0  0  0
    3.0732   -6.0023    5.3510 H   0  0  0  0  0  0  0  0  0  0  0  0
  1  2  1  0
  1 32  1  0
  1 33  1  0
  1 34  1  0
  2  7  1  0
  2  3  1  0
  2 35  1  1
  3  4  1  0
  3 36  1  0
  3 37  1  0
  4  5  1  0
  4 38  1  0
  4 39  1  0
  5 30  1  0
  5  6  1  6
  5  8  1  0
  6  7  1  0
  7 40  1  0
  7 41  1  0
  8  9  1  0
  9 29  1  0
  9 10  1  0
  9 42  1  1
 10 11  1  0
 10 43  1  0
 10 44  1  0
 11 27  1  0
 11 12  1  0
 11 45  1  6
 12 24  1  0
 12 13  1  0
 12 46  1  6
 13 14  1  0
 13 47  1  0
 13 48  1  0
 14 15  2  0
 14 49  1  0
 15 22  1  0
 15 16  1  0
 16 17  1  0
 16 50  1  0
 16 51  1  0
 17 18  2  0
 17 19  1  0
 19 20  2  0
 19 21  1  0
 21 22  1  0
 21 52  1  0
 21 53  1  0
 22 23  1  1
 22 24  1  0
 23 54  1  0
 23 55  1  0
 23 56  1  0
 24 25  1  0
 24 57  1  1
 25 26  1  0
 25 58  1  0
 25 59  1  0
 26 27  1  0
 26 60  1  0
 26 61  1  0
 27 28  1  6
 27 29  1  0
 28 62  1  0
 28 63  1  0
 28 64  1  0
 29 30  1  0
 29 65  1  6
 30 31  1  0
 30 66  1  1
 31 67  1  0
 31 68  1  0
 31 69  1  0
M  END
>  <i_m_ct_stereo_status>  (45) 
1

>  <s_m_source_file>  (45) 
/var/tmp/pbs.5076255.sched01/tmpc_kifbv4/0gx9_4qhc.sdf

>  <i_m_source_file_index>  (45) 
20

>  <i_lp_mmshare_version>  (45) 
48012

>  <i_f3d_flags>  (45) 
0

>  <s_epik_input>  (45) 
TzFbQ0gyXVtDQEhdKFtDSDNdKVtDSDJdW0NIMl1bQ0BAXTEyT1tDQEBIXTNbQ0BASF0oW0NASF0yW0NIM10pW0NAXTQoW0NIM10pW0NASF0oW0NIMl0zKVtDQEhdNVtDQEhdKFtDSDJdW0NIMl00KVtDQEBdNihbQ0gzXSlDKD1bQ0hdW0NIMl01KVtDSDJdQyg9TylDKD1PKVtDSDJdNg==

>  <s_epik_cmdline>  (45) 
J2VwaWtfcHl0aG9uJywgJy1waHQnLCAnMi4wJywgJy1waCcsICc3LjAnLCAnLXRuJywgJzgnLCAnLW1hJywgJzIwMCcsICctaW1hZScsICc8aW5maWxlLm1hZT4nLCAnLW9tYWUnLCAnPG91dGZpbGUubWFlPic=

>  <r_lp_tautomer_probability>  (45) 
1

>  <r_epik_Ionization_Penalty>  (45) 
4.43667e-12

>  <r_epik_Ionization_Penalty_Charging>  (45) 
0

>  <r_epik_Ionization_Penalty_Neutral>  (45) 
4.43667e-12

>  <r_epik_State_Penalty>  (45) 
-0

>  <r_epik_Charging_Adjusted_Penalty>  (45) 
0

>  <i_epik_Tot_Q>  (45) 
0

>  <i_epik_Tot_abs_Q>  (45) 
0

>  <s_lp_Force_Field>  (45) 
OPLS3e

>  <r_lp_Energy>  (45) 
61.2276

>  <b_lp_Chiralities_Consistent>  (45) 
1

>  <s_lp_Variant>  (45) 
14:0-1

>  <s_i_glide_gridfile>  (45) 
pfpi4k_grid

>  <i_i_glide_lignum>  (45) 
20

>  <i_i_glide_rotatable_bonds>  (45) 
0

>  <r_i_docking_score>  (45) 
-2.16649

>  <r_i_glide_ligand_efficiency>  (45) 
-0.0698867

>  <r_i_glide_ligand_efficiency_sa>  (45) 
-0.219541

>  <r_i_glide_ligand_efficiency_ln>  (45) 
-0.48861

>  <r_i_glide_gscore>  (45) 
-2.16649

>  <r_i_glide_lipo>  (45) 
-0.0237954

>  <r_i_glide_hbond>  (45) 
-0.16

>  <r_i_glide_metal>  (45) 
-0

>  <r_i_glide_rewards>  (45) 
-0.507363

>  <r_i_glide_evdw>  (45) 
-19.6438

>  <r_i_glide_ecoul>  (45) 
-4.2861

>  <r_i_glide_erotb>  (45) 
0

>  <r_i_glide_esite>  (45) 
-0.147578

>  <r_i_glide_emodel>  (45) 
-22.8492

>  <r_i_glide_energy>  (45) 
-23.9299

>  <r_i_glide_einternal>  (45) 
0

>  <r_i_glide_intrahb_reward>  (45) 
-0

>  <i_i_glide_confnum>  (45) 
2

>  <i_i_glide_posenum>  (45) 
2

>  <r_i_glide_eff_state_penalty>  (45) 
0

>  <ligand_id>  (45) 
14

>  <original_smiles>  (45) 
CC1CCC2(OC1)OC1CC3C4CC=C5CC(=O)C(=O)CC5(C)C4CCC3(C)C1C2C

>  <smiles>  (45) 
[H]C1=C2C([H])([H])C(=O)C(=O)C([H])([H])C2(C([H])([H])[H])C2([H])C([H])([H])C([H])([H])C3(C([H])([H])[H])C([H])(C([H])([H])C4([H])OC5(OC([H])([H])C([H])(C([H])([H])[H])C([H])([H])C5([H])[H])C([H])(C([H])([H])[H])C43[H])C2([H])C1([H])[H]

$$$$
14:0:2
     RDKit          3D

 69 74  0  0  1  0  0  0  0  0999 V2000
    5.5004   -8.8834    3.9832 C   0  0  0  0  0  0  0  0  0  0  0  0
    5.8114   -7.5490    4.6578 C   0  0  2  0  0  0  0  0  0  0  0  0
    4.7444   -7.2007    5.7071 C   0  0  0  0  0  0  0  0  0  0  0  0
    4.9569   -5.7808    6.2473 C   0  0  0  0  0  0  0  0  0  0  0  0
    5.0027   -4.7809    5.0681 C   0  0  2  0  0  0  0  0  0  0  0  0
    6.0325   -5.1303    4.1790 O   0  0  0  0  0  0  0  0  0  0  0  0
    5.9868   -6.4508    3.6182 C   0  0  0  0  0  0  0  0  0  0  0  0
    5.2719   -3.4750    5.5744 O   0  0  0  0  0  0  0  0  0  0  0  0
    4.1784   -2.6263    5.2472 C   0  0  1  0  0  0  0  0  0  0  0  0
    4.2684   -1.1392    4.8870 C   0  0  0  0  0  0  0  0  0  0  0  0
    3.2983   -0.9542    3.6641 C   0  0  2  0  0  0  0  0  0  0  0  0
    2.3340    0.2731    3.6734 C   0  0  2  0  0  0  0  0  0  0  0  0
    3.0894    1.5783    4.0025 C   0  0  0  0  0  0  0  0  0  0  0  0
    2.1596    2.7434    4.2771 C   0  0  0  0  0  0  0  0  0  0  0  0
    0.8396    2.6376    4.5260 C   0  0  0  0  0  0  0  0  0  0  0  0
   -0.0265    3.8896    4.6666 C   0  0  0  0  0  0  0  0  0  0  0  0
   -1.1802    3.9016    3.6485 C   0  0  0  0  0  0  0  0  0  0  0  0
   -1.6647    4.9607    3.2171 O   0  0  0  0  0  0  0  0  0  0  0  0
   -1.7721    2.5571    3.2228 C   0  0  0  0  0  0  0  0  0  0  0  0
   -2.9220    2.5466    2.7703 O   0  0  0  0  0  0  0  0  0  0  0  0
   -0.8985    1.3077    3.3716 C   0  0  0  0  0  0  0  0  0  0  0  0
    0.0859    1.3015    4.5911 C   0  0  2  0  0  0  0  0  0  0  0  0
   -0.7168    1.2250    5.9249 C   0  0  0  0  0  0  0  0  0  0  0  0
    1.0809    0.0674    4.5661 C   0  0  1  0  0  0  0  0  0  0  0  0
    0.3753   -1.2529    4.1570 C   0  0  0  0  0  0  0  0  0  0  0  0
    1.2949   -2.4733    4.2845 C   0  0  0  0  0  0  0  0  0  0  0  0
    2.5943   -2.3311    3.4411 C   0  0  1  0  0  0  0  0  0  0  0  0
    2.3025   -2.5908    1.9484 C   0  0  0  0  0  0  0  0  0  0  0  0
    3.7298   -3.2280    3.9463 C   0  0  2  0  0  0  0  0  0  0  0  0
    3.6126   -4.6672    4.3363 C   0  0  1  0  0  0  0  0  0  0  0  0
    3.3402   -5.6023    3.1520 C   0  0  0  0  0  0  0  0  0  0  0  0
    4.5441   -8.8695    3.4514 H   0  0  0  0  0  0  0  0  0  0  0  0
    5.4580   -9.6687    4.7303 H   0  0  0  0  0  0  0  0  0  0  0  0
    6.2762   -9.1392    3.2619 H   0  0  0  0  0  0  0  0  0  0  0  0
    6.7861   -7.6082    5.1255 H   0  0  0  0  0  0  0  0  0  0  0  0
    3.7321   -7.3126    5.3233 H   0  0  0  0  0  0  0  0  0  0  0  0
    4.8049   -7.9199    6.5170 H   0  0  0  0  0  0  0  0  0  0  0  0
    4.1380   -5.5081    6.9114 H   0  0  0  0  0  0  0  0  0  0  0  0
    5.8771   -5.7346    6.8263 H   0  0  0  0  0  0  0  0  0  0  0  0
    6.7189   -6.6151    2.8494 H   0  0  0  0  0  0  0  0  0  0  0  0
    5.2806   -6.6583    2.9280 H   0  0  0  0  0  0  0  0  0  0  0  0
    3.4620   -2.7345    6.0637 H   0  0  0  0  0  0  0  0  0  0  0  0
    3.9658   -0.5364    5.7418 H   0  0  0  0  0  0  0  0  0  0  0  0
    5.2912   -0.8626    4.6296 H   0  0  0  0  0  0  0  0  0  0  0  0
    3.9603   -0.7903    2.8090 H   0  0  0  0  0  0  0  0  0  0  0  0
    1.9584    0.3819    2.6519 H   0  0  0  0  0  0  0  0  0  0  0  0
    3.7613    1.4753    4.8544 H   0  0  0  0  0  0  0  0  0  0  0  0
    3.7304    1.8376    3.1604 H   0  0  0  0  0  0  0  0  0  0  0  0
    2.6036    3.7256    4.2393 H   0  0  0  0  0  0  0  0  0  0  0  0
   -0.4412    3.9385    5.6703 H   0  0  0  0  0  0  0  0  0  0  0  0
    0.5695    4.7870    4.5325 H   0  0  0  0  0  0  0  0  0  0  0  0
   -1.5570    0.4379    3.4040 H   0  0  0  0  0  0  0  0  0  0  0  0
   -0.3201    1.2198    2.4499 H   0  0  0  0  0  0  0  0  0  0  0  0
   -1.2422    0.2782    6.0341 H   0  0  0  0  0  0  0  0  0  0  0  0
   -1.4800    1.9985    6.0104 H   0  0  0  0  0  0  0  0  0  0  0  0
   -0.0626    1.3296    6.7930 H   0  0  0  0  0  0  0  0  0  0  0  0
    1.4702   -0.0676    5.5800 H   0  0  0  0  0  0  0  0  0  0  0  0
   -0.5044   -1.4214    4.7744 H   0  0  0  0  0  0  0  0  0  0  0  0
    0.0013   -1.1827    3.1372 H   0  0  0  0  0  0  0  0  0  0  0  0
    1.5055   -2.5674    5.3452 H   0  0  0  0  0  0  0  0  0  0  0  0
    0.7684   -3.3961    4.0282 H   0  0  0  0  0  0  0  0  0  0  0  0
    1.8276   -3.5589    1.7926 H   0  0  0  0  0  0  0  0  0  0  0  0
    3.2104   -2.5771    1.3448 H   0  0  0  0  0  0  0  0  0  0  0  0
    1.6339   -1.8360    1.5373 H   0  0  0  0  0  0  0  0  0  0  0  0
    4.5552   -3.1490    3.2294 H   0  0  0  0  0  0  0  0  0  0  0  0
    2.8308   -4.8434    5.0676 H   0  0  0  0  0  0  0  0  0  0  0  0
    4.0356   -5.3524    2.3194 H   0  0  0  0  0  0  0  0  0  0  0  0
    2.3984   -5.5793    2.6975 H   0  0  0  0  0  0  0  0  0  0  0  0
    3.4300   -6.6579    3.4684 H   0  0  0  0  0  0  0  0  0  0  0  0
  1  2  1  0
  1 32  1  0
  1 33  1  0
  1 34  1  0
  2  7  1  0
  2  3  1  0
  2 35  1  1
  3  4  1  0
  3 36  1  0
  3 37  1  0
  4  5  1  0
  4 38  1  0
  4 39  1  0
  5 30  1  0
  5  6  1  6
  5  8  1  0
  6  7  1  0
  7 40  1  0
  7 41  1  0
  8  9  1  0
  9 29  1  0
  9 10  1  0
  9 42  1  1
 10 11  1  0
 10 43  1  0
 10 44  1  0
 11 27  1  0
 11 12  1  0
 11 45  1  6
 12 24  1  0
 12 13  1  0
 12 46  1  6
 13 14  1  0
 13 47  1  0
 13 48  1  0
 14 15  2  0
 14 49  1  0
 15 22  1  0
 15 16  1  0
 16 17  1  0
 16 50  1  0
 16 51  1  0
 17 18  2  0
 17 19  1  0
 19 20  2  0
 19 21  1  0
 21 22  1  0
 21 52  1  0
 21 53  1  0
 22 23  1  1
 22 24  1  0
 23 54  1  0
 23 55  1  0
 23 56  1  0
 24 25  1  0
 24 57  1  1
 25 26  1  0
 25 58  1  0
 25 59  1  0
 26 27  1  0
 26 60  1  0
 26 61  1  0
 27 28  1  6
 27 29  1  0
 28 62  1  0
 28 63  1  0
 28 64  1  0
 29 30  1  0
 29 65  1  6
 30 31  1  0
 30 66  1  1
 31 67  1  0
 31 68  1  0
 31 69  1  0
M  END
>  <i_m_ct_stereo_status>  (46) 
1

>  <s_m_source_file>  (46) 
/var/tmp/pbs.5076255.sched01/tmpc_kifbv4/0gx9_4qhc.sdf

>  <i_m_source_file_index>  (46) 
20

>  <i_lp_mmshare_version>  (46) 
48012

>  <i_f3d_flags>  (46) 
0

>  <s_epik_input>  (46) 
TzFbQ0gyXVtDQEhdKFtDSDNdKVtDSDJdW0NIMl1bQ0BAXTEyT1tDQEBIXTNbQ0BASF0oW0NASF0yW0NIM10pW0NAXTQoW0NIM10pW0NASF0oW0NIMl0zKVtDQEhdNVtDQEhdKFtDSDJdW0NIMl00KVtDQEBdNihbQ0gzXSlDKD1bQ0hdW0NIMl01KVtDSDJdQyg9TylDKD1PKVtDSDJdNg==

>  <s_epik_cmdline>  (46) 
J2VwaWtfcHl0aG9uJywgJy1waHQnLCAnMi4wJywgJy1waCcsICc3LjAnLCAnLXRuJywgJzgnLCAnLW1hJywgJzIwMCcsICctaW1hZScsICc8aW5maWxlLm1hZT4nLCAnLW9tYWUnLCAnPG91dGZpbGUubWFlPic=

>  <r_lp_tautomer_probability>  (46) 
1

>  <r_epik_Ionization_Penalty>  (46) 
4.43667e-12

>  <r_epik_Ionization_Penalty_Charging>  (46) 
0

>  <r_epik_Ionization_Penalty_Neutral>  (46) 
4.43667e-12

>  <r_epik_State_Penalty>  (46) 
-0

>  <r_epik_Charging_Adjusted_Penalty>  (46) 
0

>  <i_epik_Tot_Q>  (46) 
0

>  <i_epik_Tot_abs_Q>  (46) 
0

>  <s_lp_Force_Field>  (46) 
OPLS3e

>  <r_lp_Energy>  (46) 
61.2276

>  <b_lp_Chiralities_Consistent>  (46) 
1

>  <s_lp_Variant>  (46) 
14:0-1

>  <s_i_glide_gridfile>  (46) 
pfpi4k_grid

>  <i_i_glide_lignum>  (46) 
20

>  <i_i_glide_rotatable_bonds>  (46) 
0

>  <r_i_docking_score>  (46) 
-1.73864

>  <r_i_glide_ligand_efficiency>  (46) 
-0.056085

>  <r_i_glide_ligand_efficiency_sa>  (46) 
-0.176184

>  <r_i_glide_ligand_efficiency_ln>  (46) 
-0.392116

>  <r_i_glide_gscore>  (46) 
-1.73864

>  <r_i_glide_lipo>  (46) 
-0.0184995

>  <r_i_glide_hbond>  (46) 
-0.16

>  <r_i_glide_metal>  (46) 
-0

>  <r_i_glide_rewards>  (46) 
-0.500721

>  <r_i_glide_evdw>  (46) 
-19.752

>  <r_i_glide_ecoul>  (46) 
-3.60636

>  <r_i_glide_erotb>  (46) 
0

>  <r_i_glide_esite>  (46) 
-0.134314

>  <r_i_glide_emodel>  (46) 
-20.8502

>  <r_i_glide_energy>  (46) 
-23.3584

>  <r_i_glide_einternal>  (46) 
0

>  <r_i_glide_intrahb_reward>  (46) 
-0

>  <i_i_glide_confnum>  (46) 
2

>  <i_i_glide_posenum>  (46) 
11

>  <r_i_glide_eff_state_penalty>  (46) 
0

>  <ligand_id>  (46) 
14

>  <original_smiles>  (46) 
CC1CCC2(OC1)OC1CC3C4CC=C5CC(=O)C(=O)CC5(C)C4CCC3(C)C1C2C

>  <smiles>  (46) 
[H]C1=C2C([H])([H])C(=O)C(=O)C([H])([H])C2(C([H])([H])[H])C2([H])C([H])([H])C([H])([H])C3(C([H])([H])[H])C([H])(C([H])([H])C4([H])OC5(OC([H])([H])C([H])(C([H])([H])[H])C([H])([H])C5([H])[H])C([H])(C([H])([H])[H])C43[H])C2([H])C1([H])[H]

$$$$
15:0:0
     RDKit          3D

 19 21  0  0  1  0  0  0  0  0999 V2000
    0.2266   -9.1861    5.2015 C   0  0  0  0  0  0  0  0  0  0  0  0
    0.2170   -9.6015    6.5107 C   0  0  0  0  0  0  0  0  0  0  0  0
    0.2333   -8.6182    7.5277 C   0  0  0  0  0  0  0  0  0  0  0  0
    0.2143   -8.6342    8.8617 N   0  0  0  0  0  0  0  0  0  0  0  0
    0.2244   -7.3167    9.2940 N   0  0  0  0  0  0  0  0  0  0  0  0
    0.2688   -6.5312    8.2174 C   0  0  0  0  0  0  0  0  0  0  0  0
    0.2676   -7.2834    7.0860 N   0  0  0  0  0  0  0  0  0  0  0  0
    0.2770   -6.8178    5.8100 N   0  0  0  0  0  0  0  0  0  0  0  0
    0.2543   -7.7979    4.9064 C   0  0  0  0  0  0  0  0  0  0  0  0
    0.2756   -7.4003    3.5531 N   0  0  0  0  0  0  0  0  0  0  0  0
   -0.4161   -7.8556    2.4945 C   0  0  0  0  0  0  0  0  0  0  0  0
   -0.1871   -7.1973    1.3508 N   0  0  0  0  0  0  0  0  0  0  0  0
    0.7622   -6.2553    1.6656 N   0  0  0  0  0  0  0  0  0  0  0  0
    0.9921   -6.4272    2.9702 C   0  0  0  0  0  0  0  0  0  0  0  0
    0.2155   -9.9331    4.4136 H   0  0  0  0  0  0  0  0  0  0  0  0
    0.2000  -10.6551    6.7725 H   0  0  0  0  0  0  0  0  0  0  0  0
    0.2892   -5.4515    8.2407 H   0  0  0  0  0  0  0  0  0  0  0  0
   -1.1356   -8.6589    2.5613 H   0  0  0  0  0  0  0  0  0  0  0  0
    1.6866   -5.8095    3.5164 H   0  0  0  0  0  0  0  0  0  0  0  0
  1  9  1  0
  1  2  2  0
  1 15  1  0
  2  3  1  0
  2 16  1  0
  3  7  1  0
  3  4  2  0
  4  5  1  0
  5  6  2  0
  6  7  1  0
  6 17  1  0
  7  8  1  0
  8  9  2  0
  9 10  1  0
 10 14  1  0
 10 11  1  0
 11 12  2  0
 11 18  1  0
 12 13  1  0
 13 14  2  0
 14 19  1  0
M  END
>  <i_m_ct_stereo_status>  (47) 
1

>  <s_m_source_file>  (47) 
/var/tmp/pbs.5076255.sched01/tmpc_kifbv4/0gx9_4qhc.sdf

>  <i_m_source_file_index>  (47) 
21

>  <i_lp_mmshare_version>  (47) 
48012

>  <i_f3d_flags>  (47) 
0

>  <s_epik_input>  (47) 
W2NIXTFubltjSF1uMS1jKFtjSF1bY0hdMilubihjMjMpW2NIXW5uMw==

>  <s_epik_cmdline>  (47) 
J2VwaWtfcHl0aG9uJywgJy1waHQnLCAnMi4wJywgJy1waCcsICc3LjAnLCAnLXRuJywgJzgnLCAnLW1hJywgJzIwMCcsICctaW1hZScsICc8aW5maWxlLm1hZT4nLCAnLW9tYWUnLCAnPG91dGZpbGUubWFlPic=

>  <r_lp_tautomer_probability>  (47) 
1

>  <r_epik_Ionization_Penalty>  (47) 
8.08695e-06

>  <r_epik_Ionization_Penalty_Charging>  (47) 
0

>  <r_epik_Ionization_Penalty_Neutral>  (47) 
8.08695e-06

>  <r_epik_State_Penalty>  (47) 
-0

>  <r_epik_Charging_Adjusted_Penalty>  (47) 
0

>  <i_epik_Tot_Q>  (47) 
0

>  <i_epik_Tot_abs_Q>  (47) 
0

>  <s_lp_Force_Field>  (47) 
OPLS3e

>  <r_lp_Energy>  (47) 
16.6368

>  <b_lp_Chiralities_Consistent>  (47) 
1

>  <s_lp_Variant>  (47) 
15:0-1

>  <s_i_glide_gridfile>  (47) 
pfpi4k_grid

>  <i_i_glide_lignum>  (47) 
21

>  <i_i_glide_rotatable_bonds>  (47) 
1

>  <r_i_docking_score>  (47) 
-3.96866

>  <r_i_glide_ligand_efficiency>  (47) 
-0.283476

>  <r_i_glide_ligand_efficiency_sa>  (47) 
-0.683218

>  <r_i_glide_ligand_efficiency_ln>  (47) 
-1.09057

>  <r_i_glide_gscore>  (47) 
-3.96866

>  <r_i_glide_lipo>  (47) 
0

>  <r_i_glide_hbond>  (47) 
0

>  <r_i_glide_metal>  (47) 
-0

>  <r_i_glide_rewards>  (47) 
-2.13299

>  <r_i_glide_evdw>  (47) 
-16.0879

>  <r_i_glide_ecoul>  (47) 
-6.25132

>  <r_i_glide_erotb>  (47) 
0.455851

>  <r_i_glide_esite>  (47) 
-0.549434

>  <r_i_glide_emodel>  (47) 
-28.4378

>  <r_i_glide_energy>  (47) 
-22.3392

>  <r_i_glide_einternal>  (47) 
0.93242

>  <r_i_glide_intrahb_reward>  (47) 
-0

>  <i_i_glide_confnum>  (47) 
1

>  <i_i_glide_posenum>  (47) 
27

>  <r_i_glide_eff_state_penalty>  (47) 
0

>  <ligand_id>  (47) 
15

>  <original_smiles>  (47) 
c1cc2nncn2nc1-n1cnnc1

>  <smiles>  (47) 
[H]c1c(-n2c([H])nnc2[H])nn2c([H])nnc2c1[H]

$$$$
15:0:1
     RDKit          3D

 19 21  0  0  1  0  0  0  0  0999 V2000
    3.9808   -2.0219    0.1433 C   0  0  0  0  0  0  0  0  0  0  0  0
    4.3853   -1.1292   -0.8212 C   0  0  0  0  0  0  0  0  0  0  0  0
    4.0050   -1.3734   -2.1638 C   0  0  0  0  0  0  0  0  0  0  0  0
    4.2088   -0.7513   -3.3278 N   0  0  0  0  0  0  0  0  0  0  0  0
    3.5901   -1.5046   -4.3116 N   0  0  0  0  0  0  0  0  0  0  0  0
    3.0152   -2.5563   -3.7255 C   0  0  0  0  0  0  0  0  0  0  0  0
    3.2405   -2.5303   -2.3871 N   0  0  0  0  0  0  0  0  0  0  0  0
    2.8198   -3.4462   -1.4790 N   0  0  0  0  0  0  0  0  0  0  0  0
    3.2067   -3.1569   -0.2350 C   0  0  0  0  0  0  0  0  0  0  0  0
    2.8213   -4.0728    0.7687 N   0  0  0  0  0  0  0  0  0  0  0  0
    2.5346   -5.3788    0.6548 C   0  0  0  0  0  0  0  0  0  0  0  0
    2.1677   -5.9797    1.7869 N   0  0  0  0  0  0  0  0  0  0  0  0
    2.2319   -4.9889    2.7462 N   0  0  0  0  0  0  0  0  0  0  0  0
    2.6225   -3.8974    2.0854 C   0  0  0  0  0  0  0  0  0  0  0  0
    4.2666   -1.8484    1.1762 H   0  0  0  0  0  0  0  0  0  0  0  0
    4.9751   -0.2549   -0.5786 H   0  0  0  0  0  0  0  0  0  0  0  0
    2.4530   -3.3184   -4.2431 H   0  0  0  0  0  0  0  0  0  0  0  0
    2.5782   -5.9010   -0.2872 H   0  0  0  0  0  0  0  0  0  0  0  0
    2.7511   -2.9476    2.5792 H   0  0  0  0  0  0  0  0  0  0  0  0
  1  9  1  0
  1  2  2  0
  1 15  1  0
  2  3  1  0
  2 16  1  0
  3  7  1  0
  3  4  2  0
  4  5  1  0
  5  6  2  0
  6  7  1  0
  6 17  1  0
  7  8  1  0
  8  9  2  0
  9 10  1  0
 10 14  1  0
 10 11  1  0
 11 12  2  0
 11 18  1  0
 12 13  1  0
 13 14  2  0
 14 19  1  0
M  END
>  <i_m_ct_stereo_status>  (48) 
1

>  <s_m_source_file>  (48) 
/var/tmp/pbs.5076255.sched01/tmpc_kifbv4/0gx9_4qhc.sdf

>  <i_m_source_file_index>  (48) 
21

>  <i_lp_mmshare_version>  (48) 
48012

>  <i_f3d_flags>  (48) 
0

>  <s_epik_input>  (48) 
W2NIXTFubltjSF1uMS1jKFtjSF1bY0hdMilubihjMjMpW2NIXW5uMw==

>  <s_epik_cmdline>  (48) 
J2VwaWtfcHl0aG9uJywgJy1waHQnLCAnMi4wJywgJy1waCcsICc3LjAnLCAnLXRuJywgJzgnLCAnLW1hJywgJzIwMCcsICctaW1hZScsICc8aW5maWxlLm1hZT4nLCAnLW9tYWUnLCAnPG91dGZpbGUubWFlPic=

>  <r_lp_tautomer_probability>  (48) 
1

>  <r_epik_Ionization_Penalty>  (48) 
8.08695e-06

>  <r_epik_Ionization_Penalty_Charging>  (48) 
0

>  <r_epik_Ionization_Penalty_Neutral>  (48) 
8.08695e-06

>  <r_epik_State_Penalty>  (48) 
-0

>  <r_epik_Charging_Adjusted_Penalty>  (48) 
0

>  <i_epik_Tot_Q>  (48) 
0

>  <i_epik_Tot_abs_Q>  (48) 
0

>  <s_lp_Force_Field>  (48) 
OPLS3e

>  <r_lp_Energy>  (48) 
16.6368

>  <b_lp_Chiralities_Consistent>  (48) 
1

>  <s_lp_Variant>  (48) 
15:0-1

>  <s_i_glide_gridfile>  (48) 
pfpi4k_grid

>  <i_i_glide_lignum>  (48) 
21

>  <i_i_glide_rotatable_bonds>  (48) 
1

>  <r_i_docking_score>  (48) 
-3.82451

>  <r_i_glide_ligand_efficiency>  (48) 
-0.273179

>  <r_i_glide_ligand_efficiency_sa>  (48) 
-0.658401

>  <r_i_glide_ligand_efficiency_ln>  (48) 
-1.05096

>  <r_i_glide_gscore>  (48) 
-3.82451

>  <r_i_glide_lipo>  (48) 
0

>  <r_i_glide_hbond>  (48) 
0

>  <r_i_glide_metal>  (48) 
-0

>  <r_i_glide_rewards>  (48) 
-2.41247

>  <r_i_glide_evdw>  (48) 
-22.2864

>  <r_i_glide_ecoul>  (48) 
-3.56934

>  <r_i_glide_erotb>  (48) 
0.455851

>  <r_i_glide_esite>  (48) 
-0.21817

>  <r_i_glide_emodel>  (48) 
-32.1048

>  <r_i_glide_energy>  (48) 
-25.8557

>  <r_i_glide_einternal>  (48) 
0.24265

>  <r_i_glide_intrahb_reward>  (48) 
-0

>  <i_i_glide_confnum>  (48) 
3

>  <i_i_glide_posenum>  (48) 
18

>  <r_i_glide_eff_state_penalty>  (48) 
0

>  <ligand_id>  (48) 
15

>  <original_smiles>  (48) 
c1cc2nncn2nc1-n1cnnc1

>  <smiles>  (48) 
[H]c1c(-n2c([H])nnc2[H])nn2c([H])nnc2c1[H]

$$$$
15:0:2
     RDKit          3D

 19 21  0  0  1  0  0  0  0  0999 V2000
    1.5925    1.8858    2.3340 C   0  0  0  0  0  0  0  0  0  0  0  0
    2.4985    0.9418    1.9102 C   0  0  0  0  0  0  0  0  0  0  0  0
    2.2854   -0.4096    2.2736 C   0  0  0  0  0  0  0  0  0  0  0  0
    2.9329   -1.5586    2.0628 N   0  0  0  0  0  0  0  0  0  0  0  0
    2.2141   -2.5591    2.7013 N   0  0  0  0  0  0  0  0  0  0  0  0
    1.1569   -1.9968    3.2871 C   0  0  0  0  0  0  0  0  0  0  0  0
    1.1438   -0.6595    3.0529 N   0  0  0  0  0  0  0  0  0  0  0  0
    0.2152    0.2264    3.4975 N   0  0  0  0  0  0  0  0  0  0  0  0
    0.4719    1.4817    3.1138 C   0  0  0  0  0  0  0  0  0  0  0  0
   -0.4483    2.4692    3.5338 N   0  0  0  0  0  0  0  0  0  0  0  0
   -0.3033    3.7977    3.6787 C   0  0  0  0  0  0  0  0  0  0  0  0
   -1.3912    4.4427    4.1050 N   0  0  0  0  0  0  0  0  0  0  0  0
   -2.3450    3.4553    4.2641 N   0  0  0  0  0  0  0  0  0  0  0  0
   -1.7283    2.3265    3.9087 C   0  0  0  0  0  0  0  0  0  0  0  0
    1.7377    2.9251    2.0472 H   0  0  0  0  0  0  0  0  0  0  0  0
    3.3602    1.2057    1.3088 H   0  0  0  0  0  0  0  0  0  0  0  0
    0.4164   -2.5352    3.8569 H   0  0  0  0  0  0  0  0  0  0  0  0
    0.6139    4.3202    3.4518 H   0  0  0  0  0  0  0  0  0  0  0  0
   -2.2241    1.3678    3.9246 H   0  0  0  0  0  0  0  0  0  0  0  0
  1  9  1  0
  1  2  2  0
  1 15  1  0
  2  3  1  0
  2 16  1  0
  3  7  1  0
  3  4  2  0
  4  5  1  0
  5  6  2  0
  6  7  1  0
  6 17  1  0
  7  8  1  0
  8  9  2  0
  9 10  1  0
 10 14  1  0
 10 11  1  0
 11 12  2  0
 11 18  1  0
 12 13  1  0
 13 14  2  0
 14 19  1  0
M  END
>  <i_m_ct_stereo_status>  (49) 
1

>  <s_m_source_file>  (49) 
/var/tmp/pbs.5076255.sched01/tmpc_kifbv4/0gx9_4qhc.sdf

>  <i_m_source_file_index>  (49) 
21

>  <i_lp_mmshare_version>  (49) 
48012

>  <i_f3d_flags>  (49) 
0

>  <s_epik_input>  (49) 
W2NIXTFubltjSF1uMS1jKFtjSF1bY0hdMilubihjMjMpW2NIXW5uMw==

>  <s_epik_cmdline>  (49) 
J2VwaWtfcHl0aG9uJywgJy1waHQnLCAnMi4wJywgJy1waCcsICc3LjAnLCAnLXRuJywgJzgnLCAnLW1hJywgJzIwMCcsICctaW1hZScsICc8aW5maWxlLm1hZT4nLCAnLW9tYWUnLCAnPG91dGZpbGUubWFlPic=

>  <r_lp_tautomer_probability>  (49) 
1

>  <r_epik_Ionization_Penalty>  (49) 
8.08695e-06

>  <r_epik_Ionization_Penalty_Charging>  (49) 
0

>  <r_epik_Ionization_Penalty_Neutral>  (49) 
8.08695e-06

>  <r_epik_State_Penalty>  (49) 
-0

>  <r_epik_Charging_Adjusted_Penalty>  (49) 
0

>  <i_epik_Tot_Q>  (49) 
0

>  <i_epik_Tot_abs_Q>  (49) 
0

>  <s_lp_Force_Field>  (49) 
OPLS3e

>  <r_lp_Energy>  (49) 
16.6368

>  <b_lp_Chiralities_Consistent>  (49) 
1

>  <s_lp_Variant>  (49) 
15:0-1

>  <s_i_glide_gridfile>  (49) 
pfpi4k_grid

>  <i_i_glide_lignum>  (49) 
21

>  <i_i_glide_rotatable_bonds>  (49) 
1

>  <r_i_docking_score>  (49) 
-3.8173

>  <r_i_glide_ligand_efficiency>  (49) 
-0.272665

>  <r_i_glide_ligand_efficiency_sa>  (49) 
-0.657161

>  <r_i_glide_ligand_efficiency_ln>  (49) 
-1.04898

>  <r_i_glide_gscore>  (49) 
-3.8173

>  <r_i_glide_lipo>  (49) 
0

>  <r_i_glide_hbond>  (49) 
0

>  <r_i_glide_metal>  (49) 
-0

>  <r_i_glide_rewards>  (49) 
-2.16848

>  <r_i_glide_evdw>  (49) 
-16.6984

>  <r_i_glide_ecoul>  (49) 
-5.59869

>  <r_i_glide_erotb>  (49) 
0.455851

>  <r_i_glide_esite>  (49) 
-0.429956

>  <r_i_glide_emodel>  (49) 
-28.5816

>  <r_i_glide_energy>  (49) 
-22.2971

>  <r_i_glide_einternal>  (49) 
0.177476

>  <r_i_glide_intrahb_reward>  (49) 
-0

>  <i_i_glide_confnum>  (49) 
1

>  <i_i_glide_posenum>  (49) 
2

>  <r_i_glide_eff_state_penalty>  (49) 
0

>  <ligand_id>  (49) 
15

>  <original_smiles>  (49) 
c1cc2nncn2nc1-n1cnnc1

>  <smiles>  (49) 
[H]c1c(-n2c([H])nnc2[H])nn2c([H])nnc2c1[H]

$$$$
19:0:0
     RDKit          3D

 78 85  0  0  1  0  0  0  0  0999 V2000
    1.9100   -5.2875   -0.1738 C   0  0  0  0  0  0  0  0  0  0  0  0
    1.4224   -5.7067    1.0900 O   0  0  0  0  0  0  0  0  0  0  0  0
    1.3788   -7.0841    1.2673 C   0  0  0  0  0  0  0  0  0  0  0  0
    1.1853   -7.3968    2.6144 O   0  0  0  0  0  0  0  0  0  0  0  0
    2.3662   -7.3057    3.4265 C   0  0  2  0  0  0  0  0  0  0  0  0
    3.4181   -8.4625    3.2731 C   0  0  2  0  0  0  0  0  0  0  0  0
    4.4722   -8.2054    2.1368 C   0  0  0  0  0  0  0  0  0  0  0  0
    2.8008   -9.8606    2.8377 C   0  0  1  0  0  0  0  0  0  0  0  0
    3.8075  -10.8565    2.9172 O   0  0  0  0  0  0  0  0  0  0  0  0
    1.5840  -10.4268    3.5399 C   0  0  2  0  0  0  0  0  0  0  0  0
    0.5642   -9.5050    4.0081 O   0  0  0  0  0  0  0  0  0  0  0  0
    1.2656  -10.3137    4.9813 C   0  0  2  0  0  0  0  0  0  0  0  0
    2.1115   -9.6200    6.0219 C   0  0  1  0  0  0  0  0  0  0  0  0
    3.0050  -10.6334    6.4746 O   0  0  0  0  0  0  0  0  0  0  0  0
    2.8863   -8.2565    5.7034 C   0  0  1  0  0  0  0  0  0  0  0  0
    3.3176   -7.8870    7.1498 C   0  0  0  0  0  0  0  0  0  0  0  0
    4.0598   -8.4288    4.7113 C   0  0  2  0  0  0  0  0  0  0  0  0
    5.1787   -7.3544    4.9810 C   0  0  0  0  0  0  0  0  0  0  0  0
    5.0280   -5.8325    4.6448 C   0  0  1  0  0  0  0  0  0  0  0  0
    5.1864   -5.6928    3.2541 O   0  0  0  0  0  0  0  0  0  0  0  0
    3.8870   -4.8909    5.2332 C   0  0  1  0  0  0  0  0  0  0  0  0
    4.3714   -4.4085    6.6402 C   0  0  0  0  0  0  0  0  0  0  0  0
    3.8898   -3.5083    4.4842 C   0  0  0  0  0  0  0  0  0  0  0  0
    5.0145   -3.0035    3.9419 C   0  0  0  0  0  0  0  0  0  0  0  0
    5.1740   -1.8041    3.2666 O   0  0  0  0  0  0  0  0  0  0  0  0
    3.9963   -1.0533    2.9766 C   0  0  2  0  0  0  0  0  0  0  0  0
    4.0121   -0.1187    1.7912 C   0  0  0  0  0  0  0  0  0  0  0  0
    2.6924    0.5786    2.0803 C   0  0  0  0  0  0  0  0  0  0  0  0
    2.3455   -0.2060    3.3416 C   0  0  2  0  0  0  0  0  0  0  0  0
    3.5811   -0.1283    4.0099 O   0  0  0  0  0  0  0  0  0  0  0  0
    2.6582   -1.7268    3.2366 C   0  0  1  0  0  0  0  0  0  0  0  0
    2.0715   -2.4771    2.0474 C   0  0  0  0  0  0  0  0  0  0  0  0
    2.6431   -2.6406    4.4727 C   0  0  1  0  0  0  0  0  0  0  0  0
    1.3517   -3.3768    4.6899 C   0  0  0  0  0  0  0  0  0  0  0  0
    1.2761   -4.6445    5.0809 C   0  0  0  0  0  0  0  0  0  0  0  0
    2.4432   -5.5802    5.4048 C   0  0  1  0  0  0  0  0  0  0  0  0
    2.1157   -7.0850    4.9669 C   0  0  1  0  0  0  0  0  0  0  0  0
    0.7557   -7.3111    5.3186 O   0  0  0  0  0  0  0  0  0  0  0  0
    1.8972   -4.1976   -0.2452 H   0  0  0  0  0  0  0  0  0  0  0  0
    1.2883   -5.6686   -0.9830 H   0  0  0  0  0  0  0  0  0  0  0  0
    2.9443   -5.6084   -0.3133 H   0  0  0  0  0  0  0  0  0  0  0  0
    0.5430   -7.5009    0.6914 H   0  0  0  0  0  0  0  0  0  0  0  0
    2.2629   -7.5831    0.8853 H   0  0  0  0  0  0  0  0  0  0  0  0
    2.8172   -6.3739    3.1106 H   0  0  0  0  0  0  0  0  0  0  0  0
    4.4208   -8.9467    1.3327 H   0  0  0  0  0  0  0  0  0  0  0  0
    5.5046   -8.2449    2.4764 H   0  0  0  0  0  0  0  0  0  0  0  0
    4.3420   -7.2539    1.6256 H   0  0  0  0  0  0  0  0  0  0  0  0
    2.4945   -9.8103    1.7948 H   0  0  0  0  0  0  0  0  0  0  0  0
    3.7920  -11.4197    2.1532 H   0  0  0  0  0  0  0  0  0  0  0  0
    1.1555  -11.3076    3.0517 H   0  0  0  0  0  0  0  0  0  0  0  0
    0.6277  -11.1098    5.3848 H   0  0  0  0  0  0  0  0  0  0  0  0
    1.4273   -9.4489    6.8474 H   0  0  0  0  0  0  0  0  0  0  0  0
    2.4776  -11.3489    6.8323 H   0  0  0  0  0  0  0  0  0  0  0  0
    3.8836   -6.9819    7.2252 H   0  0  0  0  0  0  0  0  0  0  0  0
    3.9479   -8.6589    7.5924 H   0  0  0  0  0  0  0  0  0  0  0  0
    2.4527   -7.7544    7.8023 H   0  0  0  0  0  0  0  0  0  0  0  0
    4.5461   -9.3857    4.9003 H   0  0  0  0  0  0  0  0  0  0  0  0
    5.5496   -7.4393    5.9998 H   0  0  0  0  0  0  0  0  0  0  0  0
    6.0638   -7.6814    4.4383 H   0  0  0  0  0  0  0  0  0  0  0  0
    5.9634   -5.4081    5.0125 H   0  0  0  0  0  0  0  0  0  0  0  0
    4.4503   -6.1005    2.8278 H   0  0  0  0  0  0  0  0  0  0  0  0
    4.7091   -5.1848    7.3159 H   0  0  0  0  0  0  0  0  0  0  0  0
    3.5890   -3.8347    7.1448 H   0  0  0  0  0  0  0  0  0  0  0  0
    5.2272   -3.7305    6.5579 H   0  0  0  0  0  0  0  0  0  0  0  0
    5.9560   -3.5034    3.9772 H   0  0  0  0  0  0  0  0  0  0  0  0
    4.8691    0.5470    1.8085 H   0  0  0  0  0  0  0  0  0  0  0  0
    4.0162   -0.6394    0.8330 H   0  0  0  0  0  0  0  0  0  0  0  0
    2.8152    1.6461    2.2653 H   0  0  0  0  0  0  0  0  0  0  0  0
    1.9514    0.4557    1.2811 H   0  0  0  0  0  0  0  0  0  0  0  0
    1.4640    0.0648    3.9057 H   0  0  0  0  0  0  0  0  0  0  0  0
    1.0210   -2.6878    2.2044 H   0  0  0  0  0  0  0  0  0  0  0  0
    2.6397   -3.4032    1.8724 H   0  0  0  0  0  0  0  0  0  0  0  0
    2.1235   -1.8820    1.1091 H   0  0  0  0  0  0  0  0  0  0  0  0
    2.7298   -2.0181    5.3580 H   0  0  0  0  0  0  0  0  0  0  0  0
    0.4601   -2.7823    4.5497 H   0  0  0  0  0  0  0  0  0  0  0  0
    0.2849   -5.0277    5.2804 H   0  0  0  0  0  0  0  0  0  0  0  0
    2.2993   -5.6166    6.4757 H   0  0  0  0  0  0  0  0  0  0  0  0
    0.5188   -8.1580    4.9473 H   0  0  0  0  0  0  0  0  0  0  0  0
  1  2  1  0
  1 39  1  0
  1 40  1  0
  1 41  1  0
  2  3  1  0
  3  4  1  0
  3 42  1  0
  3 43  1  0
  4  5  1  0
  5 37  1  0
  5  6  1  0
  5 44  1  6
  6 17  1  0
  6  7  1  6
  6  8  1  0
  7 45  1  0
  7 46  1  0
  7 47  1  0
  8  9  1  0
  8 10  1  0
  8 48  1  6
  9 49  1  0
 10 12  1  0
 10 11  1  0
 10 50  1  6
 11 12  1  0
 12 13  1  0
 12 51  1  1
 13 14  1  0
 13 15  1  0
 13 52  1  1
 14 53  1  0
 15 37  1  0
 15 16  1  1
 15 17  1  0
 16 54  1  0
 16 55  1  0
 16 56  1  0
 17 18  1  0
 17 57  1  1
 18 19  1  0
 18 58  1  0
 18 59  1  0
 19 20  1  0
 19 21  1  0
 19 60  1  1
 20 61  1  0
 21 36  1  0
 21 22  1  1
 21 23  1  0
 22 62  1  0
 22 63  1  0
 22 64  1  0
 23 33  1  0
 23 24  2  0
 24 25  1  0
 24 65  1  0
 26 25  1  1
 26 30  1  0
 26 31  1  0
 26 27  1  0
 27 28  1  0
 27 66  1  0
 27 67  1  0
 28 29  1  0
 28 68  1  0
 28 69  1  0
 29 30  1  0
 29 31  1  0
 29 70  1  1
 31 32  1  6
 31 33  1  0
 32 71  1  0
 32 72  1  0
 32 73  1  0
 33 34  1  0
 33 74  1  1
 34 35  2  0
 34 75  1  0
 35 36  1  0
 35 76  1  0
 36 37  1  0
 36 77  1  1
 37 38  1  6
 38 78  1  0
M  END
>  <i_m_ct_stereo_status>  (50) 
1

>  <s_m_source_file>  (50) 
/var/tmp/pbs.5076255.sched01/tmpc_kifbv4/0gx9_4qhc.sdf

>  <i_m_source_file_index>  (50) 
25

>  <i_lp_mmshare_version>  (50) 
48012

>  <i_f3d_flags>  (50) 
1

>  <s_epik_input>  (50) 
W0NIM11PW0NIMl1PW0NAQEhdMVtDQF0oW0NIM10pKFtDQEBIXShbT0hdKVtDQEhdMltDQEhdKE8yKVtDQEhdM1tPSF0pW0NAQEhdKFtDSDJdW0NASF00W09IXSlbQ0BAXTMoW0NIM10pW0NAQF0xKFtPSF0pW0NASF0oW0NIXT1bQ0hdNSlbQ0BdNChbQ0gzXSlDKD1bQ0hdTzYpW0NASF01W0NAQF0oW0NAQF02NzgpKFtDSDNdKVtDQEBIXShPOClbQ0gyXVtDSDJdNw==

>  <s_epik_cmdline>  (50) 
J2VwaWtfcHl0aG9uJywgJy1waHQnLCAnMi4wJywgJy1waCcsICc3LjAnLCAnLXRuJywgJzgnLCAnLW1hJywgJzIwMCcsICctaW1hZScsICc8aW5maWxlLm1hZT4nLCAnLW9tYWUnLCAnPG91dGZpbGUubWFlPic=

>  <r_lp_tautomer_probability>  (50) 
1

>  <r_epik_Ionization_Penalty>  (50) 
3.16831e-07

>  <r_epik_Ionization_Penalty_Charging>  (50) 
0

>  <r_epik_Ionization_Penalty_Neutral>  (50) 
3.16831e-07

>  <r_epik_State_Penalty>  (50) 
-0

>  <r_epik_Charging_Adjusted_Penalty>  (50) 
0

>  <i_epik_Tot_Q>  (50) 
0

>  <i_epik_Tot_abs_Q>  (50) 
0

>  <s_epik_Chemistry_Notes>  (50) 
This compound contains an acetal/aminal-like group ( X-CH(R)-Y where X, Y are N, S, or O) that may be acid/base labile, releasing an aldehyde.

>  <s_lp_Force_Field>  (50) 
OPLS3e

>  <r_lp_Energy>  (50) 
144.412

>  <b_lp_Chiralities_Consistent>  (50) 
1

>  <s_lp_Variant>  (50) 
19:0-1

>  <s_i_glide_gridfile>  (50) 
pfpi4k_grid

>  <i_i_glide_lignum>  (50) 
25

>  <i_i_glide_rotatable_bonds>  (50) 
7

>  <r_i_docking_score>  (50) 
-3.54758

>  <r_i_glide_ligand_efficiency>  (50) 
-0.0933572

>  <r_i_glide_ligand_efficiency_sa>  (50) 
-0.313865

>  <r_i_glide_ligand_efficiency_ln>  (50) 
-0.764962

>  <r_i_glide_gscore>  (50) 
-3.54758

>  <r_i_glide_lipo>  (50) 
-0.205824

>  <r_i_glide_hbond>  (50) 
-0.435089

>  <r_i_glide_metal>  (50) 
-0

>  <r_i_glide_rewards>  (50) 
-0.515322

>  <r_i_glide_evdw>  (50) 
-19.7697

>  <r_i_glide_ecoul>  (50) 
-9.99438

>  <r_i_glide_erotb>  (50) 
0.145423

>  <r_i_glide_esite>  (50) 
-0.0491231

>  <r_i_glide_emodel>  (50) 
-39.7809

>  <r_i_glide_energy>  (50) 
-29.764

>  <r_i_glide_einternal>  (50) 
4.93682

>  <r_i_glide_intrahb_reward>  (50) 
-0.5

>  <i_i_glide_confnum>  (50) 
3

>  <i_i_glide_posenum>  (50) 
1

>  <r_i_glide_eff_state_penalty>  (50) 
0

>  <ligand_id>  (50) 
19

>  <original_smiles>  (50) 
COCOC1C2(C)C(O)C3OC3C(O)C3(C)C2CC(O)C2(C)C4=COC56CCC(O5)C6(C)C4C=CC2C13O

>  <smiles>  (50) 
[H]OC1([H])C([H])([H])C2([H])C3(C([H])([H])[H])C([H])(O[H])C4([H])OC4([H])C([H])(O[H])C2(C([H])([H])[H])C(O[H])(C3([H])OC([H])([H])OC([H])([H])[H])C2([H])C([H])=C([H])C3([H])C(=C([H])OC45OC([H])(C([H])([H])C4([H])[H])C35C([H])([H])[H])C12C([H])([H])[H]

$$$$
19:0:1
     RDKit          3D

 78 85  0  0  1  0  0  0  0  0999 V2000
    5.0918   -2.9271    1.8189 C   0  0  0  0  0  0  0  0  0  0  0  0
    4.3582   -2.9316    3.0343 O   0  0  0  0  0  0  0  0  0  0  0  0
    4.5050   -4.1055    3.7577 C   0  0  0  0  0  0  0  0  0  0  0  0
    3.8825   -5.1955    3.1340 O   0  0  0  0  0  0  0  0  0  0  0  0
    4.0938   -6.4622    3.7678 C   0  0  2  0  0  0  0  0  0  0  0  0
    5.5219   -7.0822    3.6123 C   0  0  2  0  0  0  0  0  0  0  0  0
    6.5144   -6.5910    4.7248 C   0  0  0  0  0  0  0  0  0  0  0  0
    6.2760   -6.6472    2.2891 C   0  0  1  0  0  0  0  0  0  0  0  0
    7.4462   -7.4189    2.1158 O   0  0  0  0  0  0  0  0  0  0  0  0
    5.5941   -6.6913    0.9446 C   0  0  2  0  0  0  0  0  0  0  0  0
    4.1786   -6.4007    0.8483 O   0  0  0  0  0  0  0  0  0  0  0  0
    4.6329   -7.7179    0.4908 C   0  0  2  0  0  0  0  0  0  0  0  0
    4.1612   -8.9015    1.2955 C   0  0  1  0  0  0  0  0  0  0  0  0
    5.1650   -9.8557    1.0188 O   0  0  0  0  0  0  0  0  0  0  0  0
    3.8885   -8.8107    2.8685 C   0  0  1  0  0  0  0  0  0  0  0  0
    3.1980  -10.1914    3.0652 C   0  0  0  0  0  0  0  0  0  0  0  0
    5.1733   -8.6135    3.7088 C   0  0  2  0  0  0  0  0  0  0  0  0
    4.9953   -9.2255    5.1482 C   0  0  0  0  0  0  0  0  0  0  0  0
    4.0786   -8.6029    6.2540 C   0  0  1  0  0  0  0  0  0  0  0  0
    4.7587   -7.4816    6.7745 O   0  0  0  0  0  0  0  0  0  0  0  0
    2.5119   -8.3508    6.0913 C   0  0  1  0  0  0  0  0  0  0  0  0
    1.7877   -9.6971    6.4175 C   0  0  0  0  0  0  0  0  0  0  0  0
    1.9877   -7.4918    7.2941 C   0  0  0  0  0  0  0  0  0  0  0  0
    2.5772   -7.5317    8.5174 C   0  0  0  0  0  0  0  0  0  0  0  0
    2.2094   -6.8268    9.6480 O   0  0  0  0  0  0  0  0  0  0  0  0
    1.1867   -5.8402    9.5165 C   0  0  2  0  0  0  0  0  0  0  0  0
    1.1443   -4.7033   10.5074 C   0  0  0  0  0  0  0  0  0  0  0  0
   -0.2089   -4.1474   10.1022 C   0  0  0  0  0  0  0  0  0  0  0  0
   -0.4976   -5.1565    9.0064 C   0  0  2  0  0  0  0  0  0  0  0  0
   -0.1537   -6.3450    9.6820 O   0  0  0  0  0  0  0  0  0  0  0  0
    0.7202   -5.4844    8.1033 C   0  0  1  0  0  0  0  0  0  0  0  0
    1.4573   -4.2918    7.4426 C   0  0  0  0  0  0  0  0  0  0  0  0
    0.7075   -6.6758    7.1438 C   0  0  1  0  0  0  0  0  0  0  0  0
    0.3225   -6.3369    5.7318 C   0  0  0  0  0  0  0  0  0  0  0  0
    0.9065   -6.8451    4.6552 C   0  0  0  0  0  0  0  0  0  0  0  0
    2.0397   -7.8756    4.6265 C   0  0  1  0  0  0  0  0  0  0  0  0
    3.0445   -7.5931    3.4137 C   0  0  1  0  0  0  0  0  0  0  0  0
    2.2308   -7.2266    2.3048 O   0  0  0  0  0  0  0  0  0  0  0  0
    4.9292   -1.9746    1.3154 H   0  0  0  0  0  0  0  0  0  0  0  0
    4.7547   -3.7191    1.1507 H   0  0  0  0  0  0  0  0  0  0  0  0
    6.1669   -3.0391    1.9780 H   0  0  0  0  0  0  0  0  0  0  0  0
    5.5738   -4.2539    3.9030 H   0  0  0  0  0  0  0  0  0  0  0  0
    4.0511   -3.9648    4.7416 H   0  0  0  0  0  0  0  0  0  0  0  0
    3.8990   -6.2574    4.8149 H   0  0  0  0  0  0  0  0  0  0  0  0
    7.3729   -6.0381    4.3369 H   0  0  0  0  0  0  0  0  0  0  0  0
    6.9497   -7.3921    5.3159 H   0  0  0  0  0  0  0  0  0  0  0  0
    6.0505   -5.8873    5.4150 H   0  0  0  0  0  0  0  0  0  0  0  0
    6.6018   -5.6145    2.3731 H   0  0  0  0  0  0  0  0  0  0  0  0
    8.0127   -7.3182    2.8581 H   0  0  0  0  0  0  0  0  0  0  0  0
    6.1720   -6.2162    0.1475 H   0  0  0  0  0  0  0  0  0  0  0  0
    4.6197   -7.8863   -0.5914 H   0  0  0  0  0  0  0  0  0  0  0  0
    3.2618   -9.2349    0.7874 H   0  0  0  0  0  0  0  0  0  0  0  0
    4.7539  -10.7305    0.8701 H   0  0  0  0  0  0  0  0  0  0  0  0
    2.8967  -10.3911    4.0740 H   0  0  0  0  0  0  0  0  0  0  0  0
    3.8492  -11.0215    2.7913 H   0  0  0  0  0  0  0  0  0  0  0  0
    2.2924  -10.2754    2.4622 H   0  0  0  0  0  0  0  0  0  0  0  0
    5.9885   -9.1889    3.2737 H   0  0  0  0  0  0  0  0  0  0  0  0
    4.7634  -10.2868    5.0801 H   0  0  0  0  0  0  0  0  0  0  0  0
    5.9896   -9.2814    5.5931 H   0  0  0  0  0  0  0  0  0  0  0  0
    4.1648   -9.3177    7.0716 H   0  0  0  0  0  0  0  0  0  0  0  0
    4.7658   -6.8064    6.1259 H   0  0  0  0  0  0  0  0  0  0  0  0
    2.1569  -10.5783    5.9058 H   0  0  0  0  0  0  0  0  0  0  0  0
    0.7118   -9.6264    6.2259 H   0  0  0  0  0  0  0  0  0  0  0  0
    1.8776   -9.9504    7.4780 H   0  0  0  0  0  0  0  0  0  0  0  0
    3.4276   -8.1423    8.7584 H   0  0  0  0  0  0  0  0  0  0  0  0
    1.1715   -5.0334   11.5436 H   0  0  0  0  0  0  0  0  0  0  0  0
    1.9616   -3.9986   10.3469 H   0  0  0  0  0  0  0  0  0  0  0  0
   -0.9294   -4.1882   10.9160 H   0  0  0  0  0  0  0  0  0  0  0  0
   -0.1643   -3.1255    9.7310 H   0  0  0  0  0  0  0  0  0  0  0  0
   -1.4746   -5.1522    8.5194 H   0  0  0  0  0  0  0  0  0  0  0  0
    0.9458   -3.8992    6.5551 H   0  0  0  0  0  0  0  0  0  0  0  0
    2.4855   -4.5695    7.1712 H   0  0  0  0  0  0  0  0  0  0  0  0
    1.5467   -3.4372    8.1358 H   0  0  0  0  0  0  0  0  0  0  0  0
   -0.0825   -7.3572    7.4532 H   0  0  0  0  0  0  0  0  0  0  0  0
   -0.5180   -5.6608    5.6325 H   0  0  0  0  0  0  0  0  0  0  0  0
    0.4813   -6.5681    3.7019 H   0  0  0  0  0  0  0  0  0  0  0  0
    1.4550   -8.7101    4.2528 H   0  0  0  0  0  0  0  0  0  0  0  0
    2.8193   -6.9827    1.6019 H   0  0  0  0  0  0  0  0  0  0  0  0
  1  2  1  0
  1 39  1  0
  1 40  1  0
  1 41  1  0
  2  3  1  0
  3  4  1  0
  3 42  1  0
  3 43  1  0
  4  5  1  0
  5 37  1  0
  5  6  1  0
  5 44  1  1
  6 17  1  0
  6  7  1  1
  6  8  1  0
  7 45  1  0
  7 46  1  0
  7 47  1  0
  8  9  1  0
  8 10  1  0
  8 48  1  1
  9 49  1  0
 10 12  1  0
 10 11  1  0
 10 50  1  6
 11 12  1  0
 12 13  1  0
 12 51  1  6
 13 14  1  0
 13 15  1  0
 13 52  1  6
 14 53  1  0
 15 37  1  0
 15 16  1  1
 15 17  1  0
 16 54  1  0
 16 55  1  0
 16 56  1  0
 17 18  1  0
 17 57  1  6
 18 19  1  0
 18 58  1  0
 18 59  1  0
 19 20  1  0
 19 21  1  0
 19 60  1  1
 20 61  1  0
 21 36  1  0
 21 22  1  1
 21 23  1  0
 22 62  1  0
 22 63  1  0
 22 64  1  0
 23 33  1  0
 23 24  2  0
 24 25  1  0
 24 65  1  0
 26 25  1  6
 26 30  1  0
 26 31  1  0
 26 27  1  0
 27 28  1  0
 27 66  1  0
 27 67  1  0
 28 29  1  0
 28 68  1  0
 28 69  1  0
 29 30  1  0
 29 31  1  0
 29 70  1  6
 31 32  1  6
 31 33  1  0
 32 71  1  0
 32 72  1  0
 32 73  1  0
 33 34  1  0
 33 74  1  1
 34 35  2  0
 34 75  1  0
 35 36  1  0
 35 76  1  0
 36 37  1  0
 36 77  1  6
 37 38  1  6
 38 78  1  0
M  END
>  <i_m_ct_stereo_status>  (51) 
1

>  <s_m_source_file>  (51) 
/var/tmp/pbs.5076255.sched01/tmpc_kifbv4/0gx9_4qhc.sdf

>  <i_m_source_file_index>  (51) 
25

>  <i_lp_mmshare_version>  (51) 
48012

>  <i_f3d_flags>  (51) 
1

>  <s_epik_input>  (51) 
W0NIM11PW0NIMl1PW0NAQEhdMVtDQF0oW0NIM10pKFtDQEBIXShbT0hdKVtDQEhdMltDQEhdKE8yKVtDQEhdM1tPSF0pW0NAQEhdKFtDSDJdW0NASF00W09IXSlbQ0BAXTMoW0NIM10pW0NAQF0xKFtPSF0pW0NASF0oW0NIXT1bQ0hdNSlbQ0BdNChbQ0gzXSlDKD1bQ0hdTzYpW0NASF01W0NAQF0oW0NAQF02NzgpKFtDSDNdKVtDQEBIXShPOClbQ0gyXVtDSDJdNw==

>  <s_epik_cmdline>  (51) 
J2VwaWtfcHl0aG9uJywgJy1waHQnLCAnMi4wJywgJy1waCcsICc3LjAnLCAnLXRuJywgJzgnLCAnLW1hJywgJzIwMCcsICctaW1hZScsICc8aW5maWxlLm1hZT4nLCAnLW9tYWUnLCAnPG91dGZpbGUubWFlPic=

>  <r_lp_tautomer_probability>  (51) 
1

>  <r_epik_Ionization_Penalty>  (51) 
3.16831e-07

>  <r_epik_Ionization_Penalty_Charging>  (51) 
0

>  <r_epik_Ionization_Penalty_Neutral>  (51) 
3.16831e-07

>  <r_epik_State_Penalty>  (51) 
-0

>  <r_epik_Charging_Adjusted_Penalty>  (51) 
0

>  <i_epik_Tot_Q>  (51) 
0

>  <i_epik_Tot_abs_Q>  (51) 
0

>  <s_epik_Chemistry_Notes>  (51) 
This compound contains an acetal/aminal-like group ( X-CH(R)-Y where X, Y are N, S, or O) that may be acid/base labile, releasing an aldehyde.

>  <s_lp_Force_Field>  (51) 
OPLS3e

>  <r_lp_Energy>  (51) 
144.412

>  <b_lp_Chiralities_Consistent>  (51) 
1

>  <s_lp_Variant>  (51) 
19:0-1

>  <s_i_glide_gridfile>  (51) 
pfpi4k_grid

>  <i_i_glide_lignum>  (51) 
25

>  <i_i_glide_rotatable_bonds>  (51) 
7

>  <r_i_docking_score>  (51) 
-3.12831

>  <r_i_glide_ligand_efficiency>  (51) 
-0.0823239

>  <r_i_glide_ligand_efficiency_sa>  (51) 
-0.276771

>  <r_i_glide_ligand_efficiency_ln>  (51) 
-0.674555

>  <r_i_glide_gscore>  (51) 
-3.12831

>  <r_i_glide_lipo>  (51) 
-0.195925

>  <r_i_glide_hbond>  (51) 
-0.456

>  <r_i_glide_metal>  (51) 
-0

>  <r_i_glide_rewards>  (51) 
-0.509192

>  <r_i_glide_evdw>  (51) 
-18.2222

>  <r_i_glide_ecoul>  (51) 
-8.0069

>  <r_i_glide_erotb>  (51) 
0.145423

>  <r_i_glide_esite>  (51) 
-0.000468898

>  <r_i_glide_emodel>  (51) 
-35.8662

>  <r_i_glide_energy>  (51) 
-26.2291

>  <r_i_glide_einternal>  (51) 
3.94409

>  <r_i_glide_intrahb_reward>  (51) 
-0.5

>  <i_i_glide_confnum>  (51) 
4

>  <i_i_glide_posenum>  (51) 
14

>  <r_i_glide_eff_state_penalty>  (51) 
0

>  <ligand_id>  (51) 
19

>  <original_smiles>  (51) 
COCOC1C2(C)C(O)C3OC3C(O)C3(C)C2CC(O)C2(C)C4=COC56CCC(O5)C6(C)C4C=CC2C13O

>  <smiles>  (51) 
[H]OC1([H])C([H])([H])C2([H])C3(C([H])([H])[H])C([H])(O[H])C4([H])OC4([H])C([H])(O[H])C2(C([H])([H])[H])C(O[H])(C3([H])OC([H])([H])OC([H])([H])[H])C2([H])C([H])=C([H])C3([H])C(=C([H])OC45OC([H])(C([H])([H])C4([H])[H])C35C([H])([H])[H])C12C([H])([H])[H]

$$$$
19:0:2
     RDKit          3D

 78 85  0  0  1  0  0  0  0  0999 V2000
    2.2293   -3.2284    4.3587 C   0  0  0  0  0  0  0  0  0  0  0  0
    3.5425   -3.6693    4.6467 O   0  0  0  0  0  0  0  0  0  0  0  0
    4.2466   -4.0363    3.5160 C   0  0  0  0  0  0  0  0  0  0  0  0
    3.7293   -5.2086    2.9477 O   0  0  0  0  0  0  0  0  0  0  0  0
    4.0162   -6.4261    3.6439 C   0  0  2  0  0  0  0  0  0  0  0  0
    5.4842   -6.9352    3.5040 C   0  0  2  0  0  0  0  0  0  0  0  0
    6.4612   -6.3192    4.5724 C   0  0  0  0  0  0  0  0  0  0  0  0
    6.1873   -6.5177    2.1411 C   0  0  1  0  0  0  0  0  0  0  0  0
    7.4065   -7.2191    1.9871 O   0  0  0  0  0  0  0  0  0  0  0  0
    5.4851   -6.6595    0.8192 C   0  0  2  0  0  0  0  0  0  0  0  0
    4.0635   -6.5103    0.7390 O   0  0  0  0  0  0  0  0  0  0  0  0
    4.6154   -7.7956    0.4313 C   0  0  2  0  0  0  0  0  0  0  0  0
    4.2493   -8.9709    1.3035 C   0  0  1  0  0  0  0  0  0  0  0  0
    5.3077   -9.8719    1.0769 O   0  0  0  0  0  0  0  0  0  0  0  0
    3.9758   -8.8146    2.8732 C   0  0  1  0  0  0  0  0  0  0  0  0
    3.3899  -10.2244    3.1542 C   0  0  0  0  0  0  0  0  0  0  0  0
    5.2503   -8.4764    3.6834 C   0  0  2  0  0  0  0  0  0  0  0  0
    5.1340   -9.0178    5.1544 C   0  0  0  0  0  0  0  0  0  0  0  0
    4.1940   -8.4014    6.2394 C   0  0  1  0  0  0  0  0  0  0  0  0
    4.7935   -7.2097    6.6924 O   0  0  0  0  0  0  0  0  0  0  0  0
    2.6134   -8.2844    6.0952 C   0  0  1  0  0  0  0  0  0  0  0  0
    1.9933   -9.6564    6.5016 C   0  0  0  0  0  0  0  0  0  0  0  0
    2.0453   -7.3993    7.2656 C   0  0  0  0  0  0  0  0  0  0  0  0
    2.6476   -7.3286    8.4832 C   0  0  0  0  0  0  0  0  0  0  0  0
    2.2362   -6.6140    9.5953 O   0  0  0  0  0  0  0  0  0  0  0  0
    1.1225   -5.7375    9.4541 C   0  0  2  0  0  0  0  0  0  0  0  0
    1.0297   -4.5160   10.3535 C   0  0  0  0  0  0  0  0  0  0  0  0
   -0.3704   -4.0779    9.9265 C   0  0  0  0  0  0  0  0  0  0  0  0
   -0.5980   -5.1945    8.9070 C   0  0  2  0  0  0  0  0  0  0  0  0
   -0.1634   -6.3216    9.6944 O   0  0  0  0  0  0  0  0  0  0  0  0
    0.6325   -5.4792    8.0182 C   0  0  1  0  0  0  0  0  0  0  0  0
    1.2021   -4.2625    7.2989 C   0  0  0  0  0  0  0  0  0  0  0  0
    0.6947   -6.7068    7.1047 C   0  0  1  0  0  0  0  0  0  0  0  0
    0.2736   -6.4513    5.6824 C   0  0  0  0  0  0  0  0  0  0  0  0
    0.8823   -6.9709    4.6100 C   0  0  0  0  0  0  0  0  0  0  0  0
    2.0840   -7.9112    4.6164 C   0  0  1  0  0  0  0  0  0  0  0  0
    3.0433   -7.6378    3.3610 C   0  0  1  0  0  0  0  0  0  0  0  0
    2.1937   -7.3771    2.2535 O   0  0  0  0  0  0  0  0  0  0  0  0
    1.7957   -2.8139    5.2519 H   0  0  0  0  0  0  0  0  0  0  0  0
    1.6324   -4.0839    4.0341 H   0  0  0  0  0  0  0  0  0  0  0  0
    2.2391   -2.4953    3.5441 H   0  0  0  0  0  0  0  0  0  0  0  0
    4.1580   -3.2273    2.7828 H   0  0  0  0  0  0  0  0  0  0  0  0
    5.3140   -4.1054    3.7419 H   0  0  0  0  0  0  0  0  0  0  0  0
    3.8220   -6.1803    4.6782 H   0  0  0  0  0  0  0  0  0  0  0  0
    7.2639   -5.7272    4.1316 H   0  0  0  0  0  0  0  0  0  0  0  0
    6.9718   -7.0647    5.1760 H   0  0  0  0  0  0  0  0  0  0  0  0
    5.9567   -5.6283    5.2445 H   0  0  0  0  0  0  0  0  0  0  0  0
    6.4456   -5.4588    2.1749 H   0  0  0  0  0  0  0  0  0  0  0  0
    7.2141   -8.1304    1.8221 H   0  0  0  0  0  0  0  0  0  0  0  0
    6.0195   -6.1847   -0.0027 H   0  0  0  0  0  0  0  0  0  0  0  0
    4.6252   -8.0224   -0.6365 H   0  0  0  0  0  0  0  0  0  0  0  0
    3.3636   -9.3840    0.8242 H   0  0  0  0  0  0  0  0  0  0  0  0
    4.9228  -10.7623    0.8845 H   0  0  0  0  0  0  0  0  0  0  0  0
    3.1203  -10.3851    4.1772 H   0  0  0  0  0  0  0  0  0  0  0  0
    4.1011  -11.0114    2.9128 H   0  0  0  0  0  0  0  0  0  0  0  0
    2.4876  -10.4034    2.5705 H   0  0  0  0  0  0  0  0  0  0  0  0
    6.0990   -9.0158    3.2691 H   0  0  0  0  0  0  0  0  0  0  0  0
    4.9827  -10.0944    5.1469 H   0  0  0  0  0  0  0  0  0  0  0  0
    6.1332   -8.9709    5.5833 H   0  0  0  0  0  0  0  0  0  0  0  0
    4.3386   -9.0628    7.0899 H   0  0  0  0  0  0  0  0  0  0  0  0
    4.7207   -6.5596    6.0130 H   0  0  0  0  0  0  0  0  0  0  0  0
    2.4233  -10.5274    6.0256 H   0  0  0  0  0  0  0  0  0  0  0  0
    0.9133   -9.6675    6.3225 H   0  0  0  0  0  0  0  0  0  0  0  0
    2.1184   -9.8420    7.5699 H   0  0  0  0  0  0  0  0  0  0  0  0
    3.5544   -7.8528    8.7230 H   0  0  0  0  0  0  0  0  0  0  0  0
    1.0925   -4.7571   11.4155 H   0  0  0  0  0  0  0  0  0  0  0  0
    1.7900   -3.7553   10.1286 H   0  0  0  0  0  0  0  0  0  0  0  0
   -1.0776   -4.1086   10.7625 H   0  0  0  0  0  0  0  0  0  0  0  0
   -0.4009   -3.0754    9.4987 H   0  0  0  0  0  0  0  0  0  0  0  0
   -1.5758   -5.2525    8.4071 H   0  0  0  0  0  0  0  0  0  0  0  0
    0.5403   -3.9782    6.4641 H   0  0  0  0  0  0  0  0  0  0  0  0
    2.2144   -4.5140    6.9445 H   0  0  0  0  0  0  0  0  0  0  0  0
    1.2763   -3.3965    7.9728 H   0  0  0  0  0  0  0  0  0  0  0  0
   -0.0438   -7.4359    7.4461 H   0  0  0  0  0  0  0  0  0  0  0  0
   -0.6147   -5.8482    5.5521 H   0  0  0  0  0  0  0  0  0  0  0  0
    0.4255   -6.7811    3.6512 H   0  0  0  0  0  0  0  0  0  0  0  0
    1.5606   -8.8045    4.2964 H   0  0  0  0  0  0  0  0  0  0  0  0
    2.7646   -7.1210    1.5339 H   0  0  0  0  0  0  0  0  0  0  0  0
  1  2  1  0
  1 39  1  0
  1 40  1  0
  1 41  1  0
  2  3  1  0
  3  4  1  0
  3 42  1  0
  3 43  1  0
  4  5  1  0
  5 37  1  0
  5  6  1  0
  5 44  1  1
  6 17  1  0
  6  7  1  1
  6  8  1  0
  7 45  1  0
  7 46  1  0
  7 47  1  0
  8  9  1  0
  8 10  1  0
  8 48  1  1
  9 49  1  0
 10 12  1  0
 10 11  1  0
 10 50  1  6
 11 12  1  0
 12 13  1  0
 12 51  1  6
 13 14  1  0
 13 15  1  0
 13 52  1  6
 14 53  1  0
 15 37  1  0
 15 16  1  1
 15 17  1  0
 16 54  1  0
 16 55  1  0
 16 56  1  0
 17 18  1  0
 17 57  1  6
 18 19  1  0
 18 58  1  0
 18 59  1  0
 19 20  1  0
 19 21  1  0
 19 60  1  1
 20 61  1  0
 21 36  1  0
 21 22  1  1
 21 23  1  0
 22 62  1  0
 22 63  1  0
 22 64  1  0
 23 33  1  0
 23 24  2  0
 24 25  1  0
 24 65  1  0
 26 25  1  6
 26 30  1  0
 26 31  1  0
 26 27  1  0
 27 28  1  0
 27 66  1  0
 27 67  1  0
 28 29  1  0
 28 68  1  0
 28 69  1  0
 29 30  1  0
 29 31  1  0
 29 70  1  6
 31 32  1  6
 31 33  1  0
 32 71  1  0
 32 72  1  0
 32 73  1  0
 33 34  1  0
 33 74  1  1
 34 35  2  0
 34 75  1  0
 35 36  1  0
 35 76  1  0
 36 37  1  0
 36 77  1  6
 37 38  1  6
 38 78  1  0
M  END
>  <i_m_ct_stereo_status>  (52) 
1

>  <s_m_source_file>  (52) 
/var/tmp/pbs.5076255.sched01/tmpc_kifbv4/0gx9_4qhc.sdf

>  <i_m_source_file_index>  (52) 
25

>  <i_lp_mmshare_version>  (52) 
48012

>  <i_f3d_flags>  (52) 
1

>  <s_epik_input>  (52) 
W0NIM11PW0NIMl1PW0NAQEhdMVtDQF0oW0NIM10pKFtDQEBIXShbT0hdKVtDQEhdMltDQEhdKE8yKVtDQEhdM1tPSF0pW0NAQEhdKFtDSDJdW0NASF00W09IXSlbQ0BAXTMoW0NIM10pW0NAQF0xKFtPSF0pW0NASF0oW0NIXT1bQ0hdNSlbQ0BdNChbQ0gzXSlDKD1bQ0hdTzYpW0NASF01W0NAQF0oW0NAQF02NzgpKFtDSDNdKVtDQEBIXShPOClbQ0gyXVtDSDJdNw==

>  <s_epik_cmdline>  (52) 
J2VwaWtfcHl0aG9uJywgJy1waHQnLCAnMi4wJywgJy1waCcsICc3LjAnLCAnLXRuJywgJzgnLCAnLW1hJywgJzIwMCcsICctaW1hZScsICc8aW5maWxlLm1hZT4nLCAnLW9tYWUnLCAnPG91dGZpbGUubWFlPic=

>  <r_lp_tautomer_probability>  (52) 
1

>  <r_epik_Ionization_Penalty>  (52) 
3.16831e-07

>  <r_epik_Ionization_Penalty_Charging>  (52) 
0

>  <r_epik_Ionization_Penalty_Neutral>  (52) 
3.16831e-07

>  <r_epik_State_Penalty>  (52) 
-0

>  <r_epik_Charging_Adjusted_Penalty>  (52) 
0

>  <i_epik_Tot_Q>  (52) 
0

>  <i_epik_Tot_abs_Q>  (52) 
0

>  <s_epik_Chemistry_Notes>  (52) 
This compound contains an acetal/aminal-like group ( X-CH(R)-Y where X, Y are N, S, or O) that may be acid/base labile, releasing an aldehyde.

>  <s_lp_Force_Field>  (52) 
OPLS3e

>  <r_lp_Energy>  (52) 
144.412

>  <b_lp_Chiralities_Consistent>  (52) 
1

>  <s_lp_Variant>  (52) 
19:0-1

>  <s_i_glide_gridfile>  (52) 
pfpi4k_grid

>  <i_i_glide_lignum>  (52) 
25

>  <i_i_glide_rotatable_bonds>  (52) 
7

>  <r_i_docking_score>  (52) 
-2.95751

>  <r_i_glide_ligand_efficiency>  (52) 
-0.0778291

>  <r_i_glide_ligand_efficiency_sa>  (52) 
-0.26166

>  <r_i_glide_ligand_efficiency_ln>  (52) 
-0.637725

>  <r_i_glide_gscore>  (52) 
-2.95751

>  <r_i_glide_lipo>  (52) 
-0.154621

>  <r_i_glide_hbond>  (52) 
-0.456

>  <r_i_glide_metal>  (52) 
-0

>  <r_i_glide_rewards>  (52) 
-0.504044

>  <r_i_glide_evdw>  (52) 
-18.4161

>  <r_i_glide_ecoul>  (52) 
-7.11358

>  <r_i_glide_erotb>  (52) 
0.145423

>  <r_i_glide_esite>  (52) 
-0.000423665

>  <r_i_glide_emodel>  (52) 
-35.1447

>  <r_i_glide_energy>  (52) 
-25.5296

>  <r_i_glide_einternal>  (52) 
2.04571

>  <r_i_glide_intrahb_reward>  (52) 
-0.5

>  <i_i_glide_confnum>  (52) 
4

>  <i_i_glide_posenum>  (52) 
24

>  <r_i_glide_eff_state_penalty>  (52) 
0

>  <ligand_id>  (52) 
19

>  <original_smiles>  (52) 
COCOC1C2(C)C(O)C3OC3C(O)C3(C)C2CC(O)C2(C)C4=COC56CCC(O5)C6(C)C4C=CC2C13O

>  <smiles>  (52) 
[H]OC1([H])C([H])([H])C2([H])C3(C([H])([H])[H])C([H])(O[H])C4([H])OC4([H])C([H])(O[H])C2(C([H])([H])[H])C(O[H])(C3([H])OC([H])([H])OC([H])([H])[H])C2([H])C([H])=C([H])C3([H])C(=C([H])OC45OC([H])(C([H])([H])C4([H])[H])C35C([H])([H])[H])C12C([H])([H])[H]

$$$$
20:0:0
     RDKit          3D

 48 52  0  0  1  0  0  0  0  0999 V2000
    2.1450   -0.4713    5.1520 C   0  0  0  0  0  0  0  0  0  0  0  0
    2.0658   -1.3686    4.0573 O   0  0  0  0  0  0  0  0  0  0  0  0
    2.3444   -2.7180    4.4028 C   0  0  0  0  0  0  0  0  0  0  0  0
    2.3781   -3.5886    3.1306 C   0  0  0  0  0  0  0  0  0  0  0  0
    3.6330   -3.4247    2.3363 N   0  0  2  0  0  0  0  0  0  0  0  0
    3.7372   -2.0900    1.6787 C   0  0  0  0  0  0  0  0  0  0  0  0
    5.0540   -1.9387    0.9201 C   0  0  0  0  0  0  0  0  0  0  0  0
    5.2913   -3.1460   -0.0291 C   0  0  1  0  0  0  0  0  0  0  0  0
    4.2472   -3.1219   -1.0580 C   0  0  0  0  0  0  0  0  0  0  0  0
    2.9972   -3.7221   -0.9367 C   0  0  0  0  0  0  0  0  0  0  0  0
    2.1068   -3.4530   -1.9991 C   0  0  0  0  0  0  0  0  0  0  0  0
    2.5324   -2.6284   -3.0721 C   0  0  0  0  0  0  0  0  0  0  0  0
    3.8459   -2.0827   -3.1305 C   0  0  0  0  0  0  0  0  0  0  0  0
    4.2119   -1.3024   -4.1824 O   0  0  0  0  0  0  0  0  0  0  0  0
    4.7616   -2.3576   -2.0934 C   0  0  0  0  0  0  0  0  0  0  0  0
    6.0925   -2.0349   -1.9176 O   0  0  0  0  0  0  0  0  0  0  0  0
    6.4884   -3.0196   -0.9469 C   0  0  1  0  0  0  0  0  0  0  0  0
    7.7353   -2.8381   -0.1044 C   0  0  0  0  0  0  0  0  0  0  0  0
    8.4876   -1.8775   -0.2137 O   0  0  0  0  0  0  0  0  0  0  0  0
    7.9379   -3.9759    0.9197 C   0  0  0  0  0  0  0  0  0  0  0  0
    6.6162   -4.4061    1.6557 C   0  0  0  0  0  0  0  0  0  0  0  0
    5.3359   -4.4348    0.7620 C   0  0  1  0  0  0  0  0  0  0  0  0
    3.9221   -4.5675    1.4020 C   0  0  2  0  0  0  0  0  0  0  0  0
    2.8492   -4.6774    0.2587 C   0  0  0  0  0  0  0  0  0  0  0  0
    2.0147    0.5484    4.7904 H   0  0  0  0  0  0  0  0  0  0  0  0
    3.1095   -0.5187    5.6597 H   0  0  0  0  0  0  0  0  0  0  0  0
    1.3576   -0.6750    5.8766 H   0  0  0  0  0  0  0  0  0  0  0  0
    3.2847   -2.8137    4.9583 H   0  0  0  0  0  0  0  0  0  0  0  0
    1.5436   -3.0612    5.0580 H   0  0  0  0  0  0  0  0  0  0  0  0
    2.2999   -4.6297    3.4432 H   0  0  0  0  0  0  0  0  0  0  0  0
    1.4933   -3.3900    2.5251 H   0  0  0  0  0  0  0  0  0  0  0  0
    2.8790   -1.9206    1.0255 H   0  0  0  0  0  0  0  0  0  0  0  0
    3.7252   -1.2900    2.4087 H   0  0  0  0  0  0  0  0  0  0  0  0
    5.0345   -0.9986    0.3706 H   0  0  0  0  0  0  0  0  0  0  0  0
    5.8567   -1.8154    1.6452 H   0  0  0  0  0  0  0  0  0  0  0  0
    1.1127   -3.8795   -1.9963 H   0  0  0  0  0  0  0  0  0  0  0  0
    1.8339   -2.4009   -3.8592 H   0  0  0  0  0  0  0  0  0  0  0  0
    5.0262   -0.8485   -4.0071 H   0  0  0  0  0  0  0  0  0  0  0  0
    6.6149   -3.9481   -1.4932 H   0  0  0  0  0  0  0  0  0  0  0  0
    8.3489   -4.8248    0.3723 H   0  0  0  0  0  0  0  0  0  0  0  0
    8.7080   -3.6874    1.6354 H   0  0  0  0  0  0  0  0  0  0  0  0
    6.7744   -5.3841    2.1070 H   0  0  0  0  0  0  0  0  0  0  0  0
    6.4531   -3.7230    2.4807 H   0  0  0  0  0  0  0  0  0  0  0  0
    5.4607   -5.2679    0.0709 H   0  0  0  0  0  0  0  0  0  0  0  0
    3.8977   -5.4833    1.9896 H   0  0  0  0  0  0  0  0  0  0  0  0
    1.8414   -4.5902    0.6569 H   0  0  0  0  0  0  0  0  0  0  0  0
    2.9002   -5.6885   -0.1428 H   0  0  0  0  0  0  0  0  0  0  0  0
    4.3816   -3.4577    3.0191 H   0  0  0  0  0  0  0  0  0  0  0  0
  1  2  1  0
  1 25  1  0
  1 26  1  0
  1 27  1  0
  2  3  1  0
  3  4  1  0
  3 28  1  0
  3 29  1  0
  4  5  1  0
  4 30  1  0
  4 31  1  0
  5 23  1  0
  5  6  1  0
  5 48  1  1
  6  7  1  0
  6 32  1  0
  6 33  1  0
  8  7  1  1
  7 34  1  0
  7 35  1  0
  8 17  1  0
  8 22  1  0
  8  9  1  0
  9 15  2  0
  9 10  1  0
 10 24  1  0
 10 11  2  0
 11 12  1  0
 11 36  1  0
 12 13  2  0
 12 37  1  0
 13 14  1  0
 13 15  1  0
 14 38  1  0
 15 16  1  0
 16 17  1  0
 17 18  1  0
 17 39  1  6
 18 19  2  0
 18 20  1  0
 20 21  1  0
 20 40  1  0
 20 41  1  0
 21 22  1  0
 21 42  1  0
 21 43  1  0
 22 23  1  0
 22 44  1  6
 23 24  1  0
 23 45  1  1
 24 46  1  0
 24 47  1  0
M  CHG  1   5   1
M  END
>  <i_m_ct_stereo_status>  (53) 
1

>  <s_m_source_file>  (53) 
/var/tmp/pbs.5076255.sched01/tmpc_kifbv4/0gx9_4qhc.sdf

>  <i_m_source_file_index>  (53) 
26

>  <i_lp_mmshare_version>  (53) 
48012

>  <i_f3d_flags>  (53) 
0

>  <s_epik_input>  (53) 
W0NIM11PW0NIMl1bQ0gyXU4oW0NIMl1bQ0gyXTEpW0NAQEhdKFtDSDJdMilbQ0BASF0zW0NIMl1bQ0gyXUMoPU8pW0NAQEhdNE9jNWMoW09IXSlbY0hdW2NIXWMyYzVbQ0BAXTEzNA==

>  <s_epik_cmdline>  (53) 
J2VwaWtfcHl0aG9uJywgJy1waHQnLCAnMi4wJywgJy1waCcsICc3LjAnLCAnLXRuJywgJzgnLCAnLW1hJywgJzIwMCcsICctaW1hZScsICc8aW5maWxlLm1hZT4nLCAnLW9tYWUnLCAnPG91dGZpbGUubWFlPic=

>  <r_lp_tautomer_probability>  (53) 
1

>  <r_epik_Ionization_Penalty>  (53) 
0.276185

>  <r_epik_Ionization_Penalty_Charging>  (53) 
0.240157

>  <r_epik_Ionization_Penalty_Neutral>  (53) 
0.0360276

>  <r_epik_State_Penalty>  (53) 
0.368525

>  <r_epik_Charging_Adjusted_Penalty>  (53) 
0.608682

>  <i_epik_Tot_Q>  (53) 
1

>  <i_epik_Tot_abs_Q>  (53) 
1

>  <s_lp_Force_Field>  (53) 
OPLS3e

>  <r_lp_Energy>  (53) 
64.3716

>  <b_lp_Chiralities_Consistent>  (53) 
1

>  <s_lp_Variant>  (53) 
20:0-1

>  <s_i_glide_gridfile>  (53) 
pfpi4k_grid

>  <i_i_glide_lignum>  (53) 
26

>  <i_i_glide_rotatable_bonds>  (53) 
4

>  <r_i_docking_score>  (53) 
-3.54561

>  <r_i_glide_ligand_efficiency>  (53) 
-0.147734

>  <r_i_glide_ligand_efficiency_sa>  (53) 
-0.426138

>  <r_i_glide_ligand_efficiency_ln>  (53) 
-0.848627

>  <r_i_glide_gscore>  (53) 
-3.54561

>  <r_i_glide_lipo>  (53) 
-0.80999

>  <r_i_glide_hbond>  (53) 
-0.176184

>  <r_i_glide_metal>  (53) 
-0

>  <r_i_glide_rewards>  (53) 
-1.30147

>  <r_i_glide_evdw>  (53) 
-22.9538

>  <r_i_glide_ecoul>  (53) 
-3.03234

>  <r_i_glide_erotb>  (53) 
0.344578

>  <r_i_glide_esite>  (53) 
0

>  <r_i_glide_emodel>  (53) 
-33.2536

>  <r_i_glide_energy>  (53) 
-25.9862

>  <r_i_glide_einternal>  (53) 
1.87029

>  <r_i_glide_intrahb_reward>  (53) 
-0

>  <i_i_glide_confnum>  (53) 
4

>  <i_i_glide_posenum>  (53) 
13

>  <r_i_glide_eff_state_penalty>  (53) 
0

>  <ligand_id>  (53) 
20

>  <original_smiles>  (53) 
COCCN1CCC23c4c5ccc(O)c4OC2C(=O)CCC3C1C5

>  <smiles>  (53) 
[H]Oc1c([H])c([H])c2c3c1OC1([H])C(=O)C([H])([H])C([H])([H])C4([H])C31C([H])([H])C([H])([H])[N+]([H])(C([H])([H])C([H])([H])OC([H])([H])[H])C4([H])C2([H])[H]

$$$$
20:0:1
     RDKit          3D

 48 52  0  0  1  0  0  0  0  0999 V2000
    3.5866   -1.9213   -4.3242 C   0  0  0  0  0  0  0  0  0  0  0  0
    3.5311   -3.3470   -4.3162 O   0  0  0  0  0  0  0  0  0  0  0  0
    4.7502   -4.0458   -4.0865 C   0  0  0  0  0  0  0  0  0  0  0  0
    5.4171   -3.6369   -2.7611 C   0  0  0  0  0  0  0  0  0  0  0  0
    4.6194   -4.0782   -1.5752 N   0  0  2  0  0  0  0  0  0  0  0  0
    3.2769   -3.4345   -1.4642 C   0  0  0  0  0  0  0  0  0  0  0  0
    2.5077   -3.9450   -0.2607 C   0  0  0  0  0  0  0  0  0  0  0  0
    3.3707   -3.8555    1.0332 C   0  0  1  0  0  0  0  0  0  0  0  0
    3.6373   -2.4393    1.3142 C   0  0  0  0  0  0  0  0  0  0  0  0
    4.7046   -1.7037    0.8030 C   0  0  0  0  0  0  0  0  0  0  0  0
    4.6591   -0.3241    1.0795 C   0  0  0  0  0  0  0  0  0  0  0  0
    3.5690    0.2021    1.8318 C   0  0  0  0  0  0  0  0  0  0  0  0
    2.5497   -0.6325    2.3631 C   0  0  0  0  0  0  0  0  0  0  0  0
    1.5441   -0.0996    3.1143 O   0  0  0  0  0  0  0  0  0  0  0  0
    2.5970   -2.0162    2.1230 C   0  0  0  0  0  0  0  0  0  0  0  0
    1.8050   -3.0590    2.5631 O   0  0  0  0  0  0  0  0  0  0  0  0
    2.6509   -4.1957    2.3275 C   0  0  1  0  0  0  0  0  0  0  0  0
    2.0765   -5.5969    2.2128 C   0  0  0  0  0  0  0  0  0  0  0  0
    0.8805   -5.8578    2.3429 O   0  0  0  0  0  0  0  0  0  0  0  0
    3.1576   -6.6485    1.8776 C   0  0  0  0  0  0  0  0  0  0  0  0
    4.1914   -6.1930    0.7773 C   0  0  0  0  0  0  0  0  0  0  0  0
    4.6200   -4.6928    0.8683 C   0  0  1  0  0  0  0  0  0  0  0  0
    5.4030   -4.0215   -0.2986 C   0  0  2  0  0  0  0  0  0  0  0  0
    5.7852   -2.5492    0.0980 C   0  0  0  0  0  0  0  0  0  0  0  0
    2.5825   -1.5354   -4.4884 H   0  0  0  0  0  0  0  0  0  0  0  0
    4.2453   -1.5161   -5.0968 H   0  0  0  0  0  0  0  0  0  0  0  0
    3.9079   -1.5182   -3.3721 H   0  0  0  0  0  0  0  0  0  0  0  0
    4.5764   -5.1241   -4.1147 H   0  0  0  0  0  0  0  0  0  0  0  0
    5.4207   -3.8697   -4.9187 H   0  0  0  0  0  0  0  0  0  0  0  0
    6.4021   -4.0942   -2.7177 H   0  0  0  0  0  0  0  0  0  0  0  0
    5.6274   -2.5690   -2.7452 H   0  0  0  0  0  0  0  0  0  0  0  0
    3.3624   -2.3483   -1.4052 H   0  0  0  0  0  0  0  0  0  0  0  0
    2.6286   -3.6754   -2.3026 H   0  0  0  0  0  0  0  0  0  0  0  0
    1.6228   -3.3215   -0.2013 H   0  0  0  0  0  0  0  0  0  0  0  0
    2.1609   -4.9607   -0.4707 H   0  0  0  0  0  0  0  0  0  0  0  0
    5.4466    0.3241    0.7249 H   0  0  0  0  0  0  0  0  0  0  0  0
    3.5359    1.2613    2.0206 H   0  0  0  0  0  0  0  0  0  0  0  0
    1.5457    0.8447    3.1080 H   0  0  0  0  0  0  0  0  0  0  0  0
    3.3722   -4.2196    3.1442 H   0  0  0  0  0  0  0  0  0  0  0  0
    3.6903   -6.8447    2.8089 H   0  0  0  0  0  0  0  0  0  0  0  0
    2.6817   -7.5886    1.5956 H   0  0  0  0  0  0  0  0  0  0  0  0
    5.0799   -6.8170    0.8537 H   0  0  0  0  0  0  0  0  0  0  0  0
    3.7744   -6.4178   -0.2053 H   0  0  0  0  0  0  0  0  0  0  0  0
    5.2258   -4.5827    1.7673 H   0  0  0  0  0  0  0  0  0  0  0  0
    6.3218   -4.5852   -0.4562 H   0  0  0  0  0  0  0  0  0  0  0  0
    6.1571   -1.9800   -0.7547 H   0  0  0  0  0  0  0  0  0  0  0  0
    6.6246   -2.5964    0.7893 H   0  0  0  0  0  0  0  0  0  0  0  0
    4.4073   -5.0595   -1.7455 H   0  0  0  0  0  0  0  0  0  0  0  0
  1  2  1  0
  1 25  1  0
  1 26  1  0
  1 27  1  0
  2  3  1  0
  3  4  1  0
  3 28  1  0
  3 29  1  0
  4  5  1  0
  4 30  1  0
  4 31  1  0
  5 23  1  0
  5  6  1  0
  5 48  1  6
  6  7  1  0
  6 32  1  0
  6 33  1  0
  8  7  1  6
  7 34  1  0
  7 35  1  0
  8 17  1  0
  8 22  1  0
  8  9  1  0
  9 15  2  0
  9 10  1  0
 10 24  1  0
 10 11  2  0
 11 12  1  0
 11 36  1  0
 12 13  2  0
 12 37  1  0
 13 14  1  0
 13 15  1  0
 14 38  1  0
 15 16  1  0
 16 17  1  0
 17 18  1  0
 17 39  1  1
 18 19  2  0
 18 20  1  0
 20 21  1  0
 20 40  1  0
 20 41  1  0
 21 22  1  0
 21 42  1  0
 21 43  1  0
 22 23  1  0
 22 44  1  1
 23 24  1  0
 23 45  1  6
 24 46  1  0
 24 47  1  0
M  CHG  1   5   1
M  END
>  <i_m_ct_stereo_status>  (54) 
1

>  <s_m_source_file>  (54) 
/var/tmp/pbs.5076255.sched01/tmpc_kifbv4/0gx9_4qhc.sdf

>  <i_m_source_file_index>  (54) 
26

>  <i_lp_mmshare_version>  (54) 
48012

>  <i_f3d_flags>  (54) 
0

>  <s_epik_input>  (54) 
W0NIM11PW0NIMl1bQ0gyXU4oW0NIMl1bQ0gyXTEpW0NAQEhdKFtDSDJdMilbQ0BASF0zW0NIMl1bQ0gyXUMoPU8pW0NAQEhdNE9jNWMoW09IXSlbY0hdW2NIXWMyYzVbQ0BAXTEzNA==

>  <s_epik_cmdline>  (54) 
J2VwaWtfcHl0aG9uJywgJy1waHQnLCAnMi4wJywgJy1waCcsICc3LjAnLCAnLXRuJywgJzgnLCAnLW1hJywgJzIwMCcsICctaW1hZScsICc8aW5maWxlLm1hZT4nLCAnLW9tYWUnLCAnPG91dGZpbGUubWFlPic=

>  <r_lp_tautomer_probability>  (54) 
1

>  <r_epik_Ionization_Penalty>  (54) 
0.276185

>  <r_epik_Ionization_Penalty_Charging>  (54) 
0.240157

>  <r_epik_Ionization_Penalty_Neutral>  (54) 
0.0360276

>  <r_epik_State_Penalty>  (54) 
0.368525

>  <r_epik_Charging_Adjusted_Penalty>  (54) 
0.608682

>  <i_epik_Tot_Q>  (54) 
1

>  <i_epik_Tot_abs_Q>  (54) 
1

>  <s_lp_Force_Field>  (54) 
OPLS3e

>  <r_lp_Energy>  (54) 
64.3716

>  <b_lp_Chiralities_Consistent>  (54) 
1

>  <s_lp_Variant>  (54) 
20:0-1

>  <s_i_glide_gridfile>  (54) 
pfpi4k_grid

>  <i_i_glide_lignum>  (54) 
26

>  <i_i_glide_rotatable_bonds>  (54) 
4

>  <r_i_docking_score>  (54) 
-3.326

>  <r_i_glide_ligand_efficiency>  (54) 
-0.138583

>  <r_i_glide_ligand_efficiency_sa>  (54) 
-0.399743

>  <r_i_glide_ligand_efficiency_ln>  (54) 
-0.796064

>  <r_i_glide_gscore>  (54) 
-3.326

>  <r_i_glide_lipo>  (54) 
-0.682234

>  <r_i_glide_hbond>  (54) 
-0.203175

>  <r_i_glide_metal>  (54) 
-0

>  <r_i_glide_rewards>  (54) 
-1.15638

>  <r_i_glide_evdw>  (54) 
-22.2425

>  <r_i_glide_ecoul>  (54) 
-3.06627

>  <r_i_glide_erotb>  (54) 
0.344578

>  <r_i_glide_esite>  (54) 
-0.0567235

>  <r_i_glide_emodel>  (54) 
-30.7253

>  <r_i_glide_energy>  (54) 
-25.3088

>  <r_i_glide_einternal>  (54) 
2.95598

>  <r_i_glide_intrahb_reward>  (54) 
-0

>  <i_i_glide_confnum>  (54) 
2

>  <i_i_glide_posenum>  (54) 
9

>  <r_i_glide_eff_state_penalty>  (54) 
0

>  <ligand_id>  (54) 
20

>  <original_smiles>  (54) 
COCCN1CCC23c4c5ccc(O)c4OC2C(=O)CCC3C1C5

>  <smiles>  (54) 
[H]Oc1c([H])c([H])c2c3c1OC1([H])C(=O)C([H])([H])C([H])([H])C4([H])C31C([H])([H])C([H])([H])[N+]([H])(C([H])([H])C([H])([H])OC([H])([H])[H])C4([H])C2([H])[H]

$$$$
20:0:2
     RDKit          3D

 48 52  0  0  1  0  0  0  0  0999 V2000
    2.4592   -3.3617   -2.0269 C   0  0  0  0  0  0  0  0  0  0  0  0
    2.2608   -3.8488   -0.7072 O   0  0  0  0  0  0  0  0  0  0  0  0
    3.1133   -3.2250    0.2454 C   0  0  0  0  0  0  0  0  0  0  0  0
    2.9636   -3.9218    1.6126 C   0  0  0  0  0  0  0  0  0  0  0  0
    3.7389   -5.1963    1.7017 N   0  0  2  0  0  0  0  0  0  0  0  0
    3.1329   -6.3041    0.9087 C   0  0  0  0  0  0  0  0  0  0  0  0
    3.9782   -7.5824    0.9938 C   0  0  0  0  0  0  0  0  0  0  0  0
    4.3098   -7.9386    2.4754 C   0  0  1  0  0  0  0  0  0  0  0  0
    3.0537   -8.2677    3.1655 C   0  0  0  0  0  0  0  0  0  0  0  0
    2.2169   -7.3464    3.7989 C   0  0  0  0  0  0  0  0  0  0  0  0
    0.9918   -7.8752    4.2550 C   0  0  0  0  0  0  0  0  0  0  0  0
    0.7006   -9.2545    4.0438 C   0  0  0  0  0  0  0  0  0  0  0  0
    1.6404  -10.1326    3.4348 C   0  0  0  0  0  0  0  0  0  0  0  0
    1.3509  -11.4565    3.2807 O   0  0  0  0  0  0  0  0  0  0  0  0
    2.8865   -9.6311    3.0038 C   0  0  0  0  0  0  0  0  0  0  0  0
    3.9941  -10.2529    2.4658 O   0  0  0  0  0  0  0  0  0  0  0  0
    5.0199   -9.2687    2.6836 C   0  0  1  0  0  0  0  0  0  0  0  0
    6.3153   -9.2708    1.8878 C   0  0  0  0  0  0  0  0  0  0  0  0
    6.6107  -10.1221    1.0552 O   0  0  0  0  0  0  0  0  0  0  0  0
    7.2291   -8.0831    2.2561 C   0  0  0  0  0  0  0  0  0  0  0  0
    6.4767   -6.7085    2.4225 C   0  0  0  0  0  0  0  0  0  0  0  0
    5.0785   -6.8057    3.1168 C   0  0  1  0  0  0  0  0  0  0  0  0
    4.0957   -5.5962    3.1067 C   0  0  2  0  0  0  0  0  0  0  0  0
    2.8258   -5.9410    3.9674 C   0  0  0  0  0  0  0  0  0  0  0  0
    1.8121   -3.9018   -2.7147 H   0  0  0  0  0  0  0  0  0  0  0  0
    3.4861   -3.5147   -2.3576 H   0  0  0  0  0  0  0  0  0  0  0  0
    2.2192   -2.3033   -2.1110 H   0  0  0  0  0  0  0  0  0  0  0  0
    4.1590   -3.2427   -0.0805 H   0  0  0  0  0  0  0  0  0  0  0  0
    2.8199   -2.1783    0.3318 H   0  0  0  0  0  0  0  0  0  0  0  0
    3.3315   -3.2352    2.3739 H   0  0  0  0  0  0  0  0  0  0  0  0
    1.9095   -4.0836    1.8404 H   0  0  0  0  0  0  0  0  0  0  0  0
    2.1132   -6.4924    1.2477 H   0  0  0  0  0  0  0  0  0  0  0  0
    3.0599   -6.0220   -0.1380 H   0  0  0  0  0  0  0  0  0  0  0  0
    3.4524   -8.4053    0.5157 H   0  0  0  0  0  0  0  0  0  0  0  0
    4.8756   -7.4385    0.3905 H   0  0  0  0  0  0  0  0  0  0  0  0
    0.2815   -7.2375    4.7649 H   0  0  0  0  0  0  0  0  0  0  0  0
   -0.2436   -9.6503    4.3766 H   0  0  0  0  0  0  0  0  0  0  0  0
    2.0711  -11.9628    2.9312 H   0  0  0  0  0  0  0  0  0  0  0  0
    5.3077   -9.3644    3.7306 H   0  0  0  0  0  0  0  0  0  0  0  0
    7.7119   -8.3518    3.1966 H   0  0  0  0  0  0  0  0  0  0  0  0
    8.0304   -8.0005    1.5207 H   0  0  0  0  0  0  0  0  0  0  0  0
    7.1134   -6.0368    2.9956 H   0  0  0  0  0  0  0  0  0  0  0  0
    6.3889   -6.2484    1.4383 H   0  0  0  0  0  0  0  0  0  0  0  0
    5.2630   -7.0639    4.1586 H   0  0  0  0  0  0  0  0  0  0  0  0
    4.6025   -4.7477    3.5657 H   0  0  0  0  0  0  0  0  0  0  0  0
    2.0386   -5.2007    3.8249 H   0  0  0  0  0  0  0  0  0  0  0  0
    3.1051   -5.8587    5.0173 H   0  0  0  0  0  0  0  0  0  0  0  0
    4.6307   -4.9975    1.2579 H   0  0  0  0  0  0  0  0  0  0  0  0
  1  2  1  0
  1 25  1  0
  1 26  1  0
  1 27  1  0
  2  3  1  0
  3  4  1  0
  3 28  1  0
  3 29  1  0
  4  5  1  0
  4 30  1  0
  4 31  1  0
  5 23  1  0
  5  6  1  0
  5 48  1  6
  6  7  1  0
  6 32  1  0
  6 33  1  0
  8  7  1  6
  7 34  1  0
  7 35  1  0
  8 17  1  0
  8 22  1  0
  8  9  1  0
  9 15  2  0
  9 10  1  0
 10 24  1  0
 10 11  2  0
 11 12  1  0
 11 36  1  0
 12 13  2  0
 12 37  1  0
 13 14  1  0
 13 15  1  0
 14 38  1  0
 15 16  1  0
 16 17  1  0
 17 18  1  0
 17 39  1  1
 18 19  2  0
 18 20  1  0
 20 21  1  0
 20 40  1  0
 20 41  1  0
 21 22  1  0
 21 42  1  0
 21 43  1  0
 22 23  1  0
 22 44  1  1
 23 24  1  0
 23 45  1  1
 24 46  1  0
 24 47  1  0
M  CHG  1   5   1
M  END
>  <i_m_ct_stereo_status>  (55) 
1

>  <s_m_source_file>  (55) 
/var/tmp/pbs.5076255.sched01/tmpc_kifbv4/0gx9_4qhc.sdf

>  <i_m_source_file_index>  (55) 
26

>  <i_lp_mmshare_version>  (55) 
48012

>  <i_f3d_flags>  (55) 
0

>  <s_epik_input>  (55) 
W0NIM11PW0NIMl1bQ0gyXU4oW0NIMl1bQ0gyXTEpW0NAQEhdKFtDSDJdMilbQ0BASF0zW0NIMl1bQ0gyXUMoPU8pW0NAQEhdNE9jNWMoW09IXSlbY0hdW2NIXWMyYzVbQ0BAXTEzNA==

>  <s_epik_cmdline>  (55) 
J2VwaWtfcHl0aG9uJywgJy1waHQnLCAnMi4wJywgJy1waCcsICc3LjAnLCAnLXRuJywgJzgnLCAnLW1hJywgJzIwMCcsICctaW1hZScsICc8aW5maWxlLm1hZT4nLCAnLW9tYWUnLCAnPG91dGZpbGUubWFlPic=

>  <r_lp_tautomer_probability>  (55) 
1

>  <r_epik_Ionization_Penalty>  (55) 
0.276185

>  <r_epik_Ionization_Penalty_Charging>  (55) 
0.240157

>  <r_epik_Ionization_Penalty_Neutral>  (55) 
0.0360276

>  <r_epik_State_Penalty>  (55) 
0.368525

>  <r_epik_Charging_Adjusted_Penalty>  (55) 
0.608682

>  <i_epik_Tot_Q>  (55) 
1

>  <i_epik_Tot_abs_Q>  (55) 
1

>  <s_lp_Force_Field>  (55) 
OPLS3e

>  <r_lp_Energy>  (55) 
64.3716

>  <b_lp_Chiralities_Consistent>  (55) 
1

>  <s_lp_Variant>  (55) 
20:0-1

>  <s_i_glide_gridfile>  (55) 
pfpi4k_grid

>  <i_i_glide_lignum>  (55) 
26

>  <i_i_glide_rotatable_bonds>  (55) 
4

>  <r_i_docking_score>  (55) 
-2.97687

>  <r_i_glide_ligand_efficiency>  (55) 
-0.124036

>  <r_i_glide_ligand_efficiency_sa>  (55) 
-0.357782

>  <r_i_glide_ligand_efficiency_ln>  (55) 
-0.712501

>  <r_i_glide_gscore>  (55) 
-2.97687

>  <r_i_glide_lipo>  (55) 
-0.364382

>  <r_i_glide_hbond>  (55) 
-0.00427377

>  <r_i_glide_metal>  (55) 
-0

>  <r_i_glide_rewards>  (55) 
-1.22416

>  <r_i_glide_evdw>  (55) 
-21.3649

>  <r_i_glide_ecoul>  (55) 
-4.40258

>  <r_i_glide_erotb>  (55) 
0.344578

>  <r_i_glide_esite>  (55) 
0

>  <r_i_glide_emodel>  (55) 
-31.7976

>  <r_i_glide_energy>  (55) 
-25.7675

>  <r_i_glide_einternal>  (55) 
1.85792

>  <r_i_glide_intrahb_reward>  (55) 
-0

>  <i_i_glide_confnum>  (55) 
2

>  <i_i_glide_posenum>  (55) 
6

>  <r_i_glide_eff_state_penalty>  (55) 
0

>  <ligand_id>  (55) 
20

>  <original_smiles>  (55) 
COCCN1CCC23c4c5ccc(O)c4OC2C(=O)CCC3C1C5

>  <smiles>  (55) 
[H]Oc1c([H])c([H])c2c3c1OC1([H])C(=O)C([H])([H])C([H])([H])C4([H])C31C([H])([H])C([H])([H])[N+]([H])(C([H])([H])C([H])([H])OC([H])([H])[H])C4([H])C2([H])[H]

$$$$
20:1:0
     RDKit          3D

 47 51  0  0  1  0  0  0  0  0999 V2000
    3.2016   -1.2042   -3.6286 C   0  0  0  0  0  0  0  0  0  0  0  0
    4.2004   -1.9650   -4.3422 O   0  0  0  0  0  0  0  0  0  0  0  0
    4.3576   -3.3427   -3.9717 C   0  0  0  0  0  0  0  0  0  0  0  0
    5.1182   -3.4898   -2.6446 C   0  0  0  0  0  0  0  0  0  0  0  0
    4.5801   -2.6866   -1.5711 N   0  0  0  0  0  0  0  0  0  0  0  0
    3.1181   -2.9672   -1.2743 C   0  0  0  0  0  0  0  0  0  0  0  0
    2.9062   -3.9684   -0.1779 C   0  0  0  0  0  0  0  0  0  0  0  0
    3.7762   -3.6074    1.0737 C   0  0  1  0  0  0  0  0  0  0  0  0
    3.3273   -2.3060    1.6156 C   0  0  0  0  0  0  0  0  0  0  0  0
    3.8069   -1.0612    1.2213 C   0  0  0  0  0  0  0  0  0  0  0  0
    3.1522    0.0497    1.8042 C   0  0  0  0  0  0  0  0  0  0  0  0
    2.0845   -0.1694    2.7175 C   0  0  0  0  0  0  0  0  0  0  0  0
    1.6847   -1.4698    3.0977 C   0  0  0  0  0  0  0  0  0  0  0  0
    0.6940   -1.6782    4.0133 O   0  0  0  0  0  0  0  0  0  0  0  0
    2.3544   -2.6021    2.5496 C   0  0  0  0  0  0  0  0  0  0  0  0
    2.2477   -3.9373    2.8014 O   0  0  0  0  0  0  0  0  0  0  0  0
    3.5184   -4.4293    2.3140 C   0  0  1  0  0  0  0  0  0  0  0  0
    3.7512   -5.8898    1.9800 C   0  0  0  0  0  0  0  0  0  0  0  0
    2.9050   -6.7717    2.1300 O   0  0  0  0  0  0  0  0  0  0  0  0
    5.1725   -6.1429    1.4196 C   0  0  0  0  0  0  0  0  0  0  0  0
    5.6542   -5.0743    0.3720 C   0  0  0  0  0  0  0  0  0  0  0  0
    5.2365   -3.5989    0.6920 C   0  0  1  0  0  0  0  0  0  0  0  0
    5.3618   -2.4548   -0.3881 C   0  0  2  0  0  0  0  0  0  0  0  0
    5.0111   -1.0788    0.2749 C   0  0  0  0  0  0  0  0  0  0  0  0
    3.1038   -0.2184   -4.1111 H   0  0  0  0  0  0  0  0  0  0  0  0
    3.4612   -1.0823   -2.6133 H   0  0  0  0  0  0  0  0  0  0  0  0
    2.2371   -1.7097   -3.7187 H   0  0  0  0  0  0  0  0  0  0  0  0
    3.4010   -3.8694   -3.9343 H   0  0  0  0  0  0  0  0  0  0  0  0
    4.9422   -3.8705   -4.7289 H   0  0  0  0  0  0  0  0  0  0  0  0
    5.1958   -4.5584   -2.3971 H   0  0  0  0  0  0  0  0  0  0  0  0
    6.1491   -3.1711   -2.7970 H   0  0  0  0  0  0  0  0  0  0  0  0
    2.6560   -2.0158   -0.9672 H   0  0  0  0  0  0  0  0  0  0  0  0
    2.5709   -3.2966   -2.1669 H   0  0  0  0  0  0  0  0  0  0  0  0
    1.8394   -3.9941    0.0805 H   0  0  0  0  0  0  0  0  0  0  0  0
    3.1035   -4.9758   -0.5524 H   0  0  0  0  0  0  0  0  0  0  0  0
    3.4541    1.0639    1.5620 H   0  0  0  0  0  0  0  0  0  0  0  0
    1.5710    0.6756    3.1392 H   0  0  0  0  0  0  0  0  0  0  0  0
    0.5597   -2.5956    4.1910 H   0  0  0  0  0  0  0  0  0  0  0  0
    4.2703   -4.1683    3.0656 H   0  0  0  0  0  0  0  0  0  0  0  0
    5.8516   -6.1254    2.2736 H   0  0  0  0  0  0  0  0  0  0  0  0
    5.2221   -7.1472    0.9887 H   0  0  0  0  0  0  0  0  0  0  0  0
    6.7332   -5.1297    0.2495 H   0  0  0  0  0  0  0  0  0  0  0  0
    5.2443   -5.4075   -0.5781 H   0  0  0  0  0  0  0  0  0  0  0  0
    5.8271   -3.3004    1.5705 H   0  0  0  0  0  0  0  0  0  0  0  0
    6.4130   -2.4208   -0.6907 H   0  0  0  0  0  0  0  0  0  0  0  0
    4.8394   -0.3543   -0.5234 H   0  0  0  0  0  0  0  0  0  0  0  0
    5.8796   -0.7125    0.8136 H   0  0  0  0  0  0  0  0  0  0  0  0
  1  2  1  0
  1 25  1  0
  1 26  1  0
  1 27  1  0
  2  3  1  0
  3  4  1  0
  3 28  1  0
  3 29  1  0
  4  5  1  0
  4 30  1  0
  4 31  1  0
  5 23  1  0
  5  6  1  0
  6  7  1  0
  6 32  1  0
  6 33  1  0
  8  7  1  6
  7 34  1  0
  7 35  1  0
  8 17  1  0
  8 22  1  0
  8  9  1  0
  9 15  2  0
  9 10  1  0
 10 24  1  0
 10 11  2  0
 11 12  1  0
 11 36  1  0
 12 13  2  0
 12 37  1  0
 13 14  1  0
 13 15  1  0
 14 38  1  0
 15 16  1  0
 16 17  1  0
 17 18  1  0
 17 39  1  1
 18 19  2  0
 18 20  1  0
 20 21  1  0
 20 40  1  0
 20 41  1  0
 21 22  1  0
 21 42  1  0
 21 43  1  0
 22 23  1  0
 22 44  1  1
 23 24  1  0
 23 45  1  6
 24 46  1  0
 24 47  1  0
M  END
>  <i_m_ct_stereo_status>  (56) 
1

>  <s_m_source_file>  (56) 
/var/tmp/pbs.5076255.sched01/tmpc_kifbv4/0gx9_4qhc.sdf

>  <i_m_source_file_index>  (56) 
27

>  <i_lp_mmshare_version>  (56) 
48012

>  <i_f3d_flags>  (56) 
0

>  <s_epik_input>  (56) 
W0NIM11PW0NIMl1bQ0gyXU4oW0NIMl1bQ0gyXTEpW0NAQEhdKFtDSDJdMilbQ0BASF0zW0NIMl1bQ0gyXUMoPU8pW0NAQEhdNE9jNWMoW09IXSlbY0hdW2NIXWMyYzVbQ0BAXTEzNA==

>  <s_epik_cmdline>  (56) 
J2VwaWtfcHl0aG9uJywgJy1waHQnLCAnMi4wJywgJy1waCcsICc3LjAnLCAnLXRuJywgJzgnLCAnLW1hJywgJzIwMCcsICctaW1hZScsICc8aW5maWxlLm1hZT4nLCAnLW9tYWUnLCAnPG91dGZpbGUubWFlPic=

>  <r_lp_tautomer_probability>  (56) 
1

>  <r_epik_Ionization_Penalty>  (56) 
0.655306

>  <r_epik_Ionization_Penalty_Charging>  (56) 
0

>  <r_epik_Ionization_Penalty_Neutral>  (56) 
0.655306

>  <r_epik_State_Penalty>  (56) 
0.482375

>  <r_epik_Charging_Adjusted_Penalty>  (56) 
0.482375

>  <i_epik_Tot_Q>  (56) 
0

>  <i_epik_Tot_abs_Q>  (56) 
0

>  <s_lp_Force_Field>  (56) 
OPLS3e

>  <r_lp_Energy>  (56) 
68.776

>  <b_lp_Chiralities_Consistent>  (56) 
1

>  <s_lp_Variant>  (56) 
20:0-2

>  <s_i_glide_gridfile>  (56) 
pfpi4k_grid

>  <i_i_glide_lignum>  (56) 
27

>  <i_i_glide_rotatable_bonds>  (56) 
4

>  <r_i_docking_score>  (56) 
-3.77022

>  <r_i_glide_ligand_efficiency>  (56) 
-0.157093

>  <r_i_glide_ligand_efficiency_sa>  (56) 
-0.453134

>  <r_i_glide_ligand_efficiency_ln>  (56) 
-0.902388

>  <r_i_glide_gscore>  (56) 
-3.77022

>  <r_i_glide_lipo>  (56) 
-0.798129

>  <r_i_glide_hbond>  (56) 
-0.32

>  <r_i_glide_metal>  (56) 
-0

>  <r_i_glide_rewards>  (56) 
-1.18556

>  <r_i_glide_evdw>  (56) 
-25.7036

>  <r_i_glide_ecoul>  (56) 
-3.51869

>  <r_i_glide_erotb>  (56) 
0.346444

>  <r_i_glide_esite>  (56) 
0

>  <r_i_glide_emodel>  (56) 
-33.1513

>  <r_i_glide_energy>  (56) 
-29.2223

>  <r_i_glide_einternal>  (56) 
3.00055

>  <r_i_glide_intrahb_reward>  (56) 
-0

>  <i_i_glide_confnum>  (56) 
4

>  <i_i_glide_posenum>  (56) 
27

>  <r_i_glide_eff_state_penalty>  (56) 
0

>  <ligand_id>  (56) 
20

>  <original_smiles>  (56) 
COCCN1CCC23c4c5ccc(O)c4OC2C(=O)CCC3C1C5

>  <smiles>  (56) 
[H]Oc1c([H])c([H])c2c3c1OC1([H])C(=O)C([H])([H])C([H])([H])C4([H])C([H])(N(C([H])([H])C([H])([H])OC([H])([H])[H])C([H])([H])C([H])([H])C314)C2([H])[H]

$$$$
20:1:1
     RDKit          3D

 47 51  0  0  1  0  0  0  0  0999 V2000
    2.6284   -2.8953   -3.8951 C   0  0  0  0  0  0  0  0  0  0  0  0
    3.8131   -2.1830   -4.2414 O   0  0  0  0  0  0  0  0  0  0  0  0
    4.2671   -1.3543   -3.1797 C   0  0  0  0  0  0  0  0  0  0  0  0
    4.9066   -2.2160   -2.0577 C   0  0  0  0  0  0  0  0  0  0  0  0
    4.8103   -1.6686   -0.7086 N   0  0  0  0  0  0  0  0  0  0  0  0
    3.4419   -1.4024   -0.2178 C   0  0  0  0  0  0  0  0  0  0  0  0
    2.7720   -2.5787    0.5033 C   0  0  0  0  0  0  0  0  0  0  0  0
    3.7266   -3.1434    1.5895 C   0  0  1  0  0  0  0  0  0  0  0  0
    3.9663   -2.1128    2.6094 C   0  0  0  0  0  0  0  0  0  0  0  0
    4.9858   -1.1528    2.5639 C   0  0  0  0  0  0  0  0  0  0  0  0
    4.9539   -0.2037    3.5997 C   0  0  0  0  0  0  0  0  0  0  0  0
    3.9255   -0.2653    4.5813 C   0  0  0  0  0  0  0  0  0  0  0  0
    2.9510   -1.3106    4.5789 C   0  0  0  0  0  0  0  0  0  0  0  0
    2.0075   -1.3671    5.5643 O   0  0  0  0  0  0  0  0  0  0  0  0
    2.9859   -2.2914    3.5699 C   0  0  0  0  0  0  0  0  0  0  0  0
    2.2481   -3.4468    3.3729 O   0  0  0  0  0  0  0  0  0  0  0  0
    3.1233   -4.1930    2.5085 C   0  0  1  0  0  0  0  0  0  0  0  0
    2.6208   -5.3671    1.6834 C   0  0  0  0  0  0  0  0  0  0  0  0
    1.4618   -5.7883    1.7064 O   0  0  0  0  0  0  0  0  0  0  0  0
    3.7383   -5.9801    0.8141 C   0  0  0  0  0  0  0  0  0  0  0  0
    4.6409   -4.9191    0.0901 C   0  0  0  0  0  0  0  0  0  0  0  0
    4.9933   -3.6417    0.9338 C   0  0  1  0  0  0  0  0  0  0  0  0
    5.6401   -2.3599    0.2974 C   0  0  2  0  0  0  0  0  0  0  0  0
    6.0020   -1.3420    1.4225 C   0  0  0  0  0  0  0  0  0  0  0  0
    2.2937   -3.4813   -4.7400 H   0  0  0  0  0  0  0  0  0  0  0  0
    1.8166   -2.2284   -3.6112 H   0  0  0  0  0  0  0  0  0  0  0  0
    2.7668   -3.6052   -3.0841 H   0  0  0  0  0  0  0  0  0  0  0  0
    5.0090   -0.6569   -3.5471 H   0  0  0  0  0  0  0  0  0  0  0  0
    3.4487   -0.6969   -2.8721 H   0  0  0  0  0  0  0  0  0  0  0  0
    4.4953   -3.2111   -2.0720 H   0  0  0  0  0  0  0  0  0  0  0  0
    5.9559   -2.3736   -2.3143 H   0  0  0  0  0  0  0  0  0  0  0  0
    3.4691   -0.5459    0.4603 H   0  0  0  0  0  0  0  0  0  0  0  0
    2.7799   -1.1092   -1.0237 H   0  0  0  0  0  0  0  0  0  0  0  0
    1.8330   -2.2411    0.9398 H   0  0  0  0  0  0  0  0  0  0  0  0
    2.4842   -3.3273   -0.2327 H   0  0  0  0  0  0  0  0  0  0  0  0
    5.7054    0.5746    3.6449 H   0  0  0  0  0  0  0  0  0  0  0  0
    3.8988    0.4900    5.3442 H   0  0  0  0  0  0  0  0  0  0  0  0
    2.0905   -0.6575    6.1780 H   0  0  0  0  0  0  0  0  0  0  0  0
    3.9148   -4.5950    3.1467 H   0  0  0  0  0  0  0  0  0  0  0  0
    4.3541   -6.5920    1.4723 H   0  0  0  0  0  0  0  0  0  0  0  0
    3.2947   -6.6559    0.0838 H   0  0  0  0  0  0  0  0  0  0  0  0
    5.5604   -5.3989   -0.2379 H   0  0  0  0  0  0  0  0  0  0  0  0
    4.1008   -4.6753   -0.8170 H   0  0  0  0  0  0  0  0  0  0  0  0
    5.6744   -3.9831    1.7178 H   0  0  0  0  0  0  0  0  0  0  0  0
    6.5779   -2.6528   -0.1783 H   0  0  0  0  0  0  0  0  0  0  0  0
    6.2054   -0.3673    0.9722 H   0  0  0  0  0  0  0  0  0  0  0  0
    6.9404   -1.6551    1.8713 H   0  0  0  0  0  0  0  0  0  0  0  0
  1  2  1  0
  1 25  1  0
  1 26  1  0
  1 27  1  0
  2  3  1  0
  3  4  1  0
  3 28  1  0
  3 29  1  0
  4  5  1  0
  4 30  1  0
  4 31  1  0
  5 23  1  0
  5  6  1  0
  6  7  1  0
  6 32  1  0
  6 33  1  0
  8  7  1  6
  7 34  1  0
  7 35  1  0
  8 17  1  0
  8 22  1  0
  8  9  1  0
  9 15  2  0
  9 10  1  0
 10 24  1  0
 10 11  2  0
 11 12  1  0
 11 36  1  0
 12 13  2  0
 12 37  1  0
 13 14  1  0
 13 15  1  0
 14 38  1  0
 15 16  1  0
 16 17  1  0
 17 18  1  0
 17 39  1  1
 18 19  2  0
 18 20  1  0
 20 21  1  0
 20 40  1  0
 20 41  1  0
 21 22  1  0
 21 42  1  0
 21 43  1  0
 22 23  1  0
 22 44  1  1
 23 24  1  0
 23 45  1  6
 24 46  1  0
 24 47  1  0
M  END
>  <i_m_ct_stereo_status>  (57) 
1

>  <s_m_source_file>  (57) 
/var/tmp/pbs.5076255.sched01/tmpc_kifbv4/0gx9_4qhc.sdf

>  <i_m_source_file_index>  (57) 
27

>  <i_lp_mmshare_version>  (57) 
48012

>  <i_f3d_flags>  (57) 
0

>  <s_epik_input>  (57) 
W0NIM11PW0NIMl1bQ0gyXU4oW0NIMl1bQ0gyXTEpW0NAQEhdKFtDSDJdMilbQ0BASF0zW0NIMl1bQ0gyXUMoPU8pW0NAQEhdNE9jNWMoW09IXSlbY0hdW2NIXWMyYzVbQ0BAXTEzNA==

>  <s_epik_cmdline>  (57) 
J2VwaWtfcHl0aG9uJywgJy1waHQnLCAnMi4wJywgJy1waCcsICc3LjAnLCAnLXRuJywgJzgnLCAnLW1hJywgJzIwMCcsICctaW1hZScsICc8aW5maWxlLm1hZT4nLCAnLW9tYWUnLCAnPG91dGZpbGUubWFlPic=

>  <r_lp_tautomer_probability>  (57) 
1

>  <r_epik_Ionization_Penalty>  (57) 
0.655306

>  <r_epik_Ionization_Penalty_Charging>  (57) 
0

>  <r_epik_Ionization_Penalty_Neutral>  (57) 
0.655306

>  <r_epik_State_Penalty>  (57) 
0.482375

>  <r_epik_Charging_Adjusted_Penalty>  (57) 
0.482375

>  <i_epik_Tot_Q>  (57) 
0

>  <i_epik_Tot_abs_Q>  (57) 
0

>  <s_lp_Force_Field>  (57) 
OPLS3e

>  <r_lp_Energy>  (57) 
68.776

>  <b_lp_Chiralities_Consistent>  (57) 
1

>  <s_lp_Variant>  (57) 
20:0-2

>  <s_i_glide_gridfile>  (57) 
pfpi4k_grid

>  <i_i_glide_lignum>  (57) 
27

>  <i_i_glide_rotatable_bonds>  (57) 
4

>  <r_i_docking_score>  (57) 
-3.74254

>  <r_i_glide_ligand_efficiency>  (57) 
-0.155939

>  <r_i_glide_ligand_efficiency_sa>  (57) 
-0.449806

>  <r_i_glide_ligand_efficiency_ln>  (57) 
-0.895761

>  <r_i_glide_gscore>  (57) 
-3.74254

>  <r_i_glide_lipo>  (57) 
-0.732442

>  <r_i_glide_hbond>  (57) 
-0.405198

>  <r_i_glide_metal>  (57) 
-0

>  <r_i_glide_rewards>  (57) 
-1.16325

>  <r_i_glide_evdw>  (57) 
-22.0251

>  <r_i_glide_ecoul>  (57) 
-4.47012

>  <r_i_glide_erotb>  (57) 
0.346444

>  <r_i_glide_esite>  (57) 
-0.0163225

>  <r_i_glide_emodel>  (57) 
-32.3809

>  <r_i_glide_energy>  (57) 
-26.4952

>  <r_i_glide_einternal>  (57) 
2.84825

>  <r_i_glide_intrahb_reward>  (57) 
-0

>  <i_i_glide_confnum>  (57) 
1

>  <i_i_glide_posenum>  (57) 
34

>  <r_i_glide_eff_state_penalty>  (57) 
0

>  <ligand_id>  (57) 
20

>  <original_smiles>  (57) 
COCCN1CCC23c4c5ccc(O)c4OC2C(=O)CCC3C1C5

>  <smiles>  (57) 
[H]Oc1c([H])c([H])c2c3c1OC1([H])C(=O)C([H])([H])C([H])([H])C4([H])C([H])(N(C([H])([H])C([H])([H])OC([H])([H])[H])C([H])([H])C([H])([H])C314)C2([H])[H]

$$$$
20:1:2
     RDKit          3D

 47 51  0  0  1  0  0  0  0  0999 V2000
    3.4151   -0.2408   -5.4797 C   0  0  0  0  0  0  0  0  0  0  0  0
    4.0538   -1.1383   -4.5895 O   0  0  0  0  0  0  0  0  0  0  0  0
    3.9764   -0.6933   -3.2463 C   0  0  0  0  0  0  0  0  0  0  0  0
    4.5923   -1.7601   -2.3281 C   0  0  0  0  0  0  0  0  0  0  0  0
    4.7315   -1.3392   -0.9352 N   0  0  0  0  0  0  0  0  0  0  0  0
    3.4654   -1.0783   -0.2307 C   0  0  0  0  0  0  0  0  0  0  0  0
    2.8875   -2.3025    0.4997 C   0  0  0  0  0  0  0  0  0  0  0  0
    3.9872   -2.9722    1.3785 C   0  0  1  0  0  0  0  0  0  0  0  0
    4.4027   -2.0354    2.4352 C   0  0  0  0  0  0  0  0  0  0  0  0
    5.4209   -1.0892    2.3092 C   0  0  0  0  0  0  0  0  0  0  0  0
    5.5660   -0.2358    3.4189 C   0  0  0  0  0  0  0  0  0  0  0  0
    4.7030   -0.3744    4.5412 C   0  0  0  0  0  0  0  0  0  0  0  0
    3.7242   -1.4054    4.6051 C   0  0  0  0  0  0  0  0  0  0  0  0
    2.9419   -1.5443    5.7136 O   0  0  0  0  0  0  0  0  0  0  0  0
    3.5823   -2.2970    3.5198 C   0  0  0  0  0  0  0  0  0  0  0  0
    2.8014   -3.4260    3.3466 O   0  0  0  0  0  0  0  0  0  0  0  0
    3.5171   -4.0923    2.2921 C   0  0  1  0  0  0  0  0  0  0  0  0
    2.8716   -5.1872    1.4628 C   0  0  0  0  0  0  0  0  0  0  0  0
    1.7239   -5.6000    1.6306 O   0  0  0  0  0  0  0  0  0  0  0  0
    3.8289   -5.7248    0.3813 C   0  0  0  0  0  0  0  0  0  0  0  0
    4.6266   -4.6129   -0.3878 C   0  0  0  0  0  0  0  0  0  0  0  0
    5.1297   -3.4253    0.4981 C   0  0  1  0  0  0  0  0  0  0  0  0
    5.6948   -2.1076   -0.1228 C   0  0  2  0  0  0  0  0  0  0  0  0
    6.2491   -1.1887    1.0134 C   0  0  0  0  0  0  0  0  0  0  0  0
    3.4911   -0.6267   -6.4940 H   0  0  0  0  0  0  0  0  0  0  0  0
    3.8882    0.7413   -5.4548 H   0  0  0  0  0  0  0  0  0  0  0  0
    2.3553   -0.1273   -5.2425 H   0  0  0  0  0  0  0  0  0  0  0  0
    4.5074    0.2533   -3.1340 H   0  0  0  0  0  0  0  0  0  0  0  0
    2.9304   -0.5128   -2.9945 H   0  0  0  0  0  0  0  0  0  0  0  0
    3.9928   -2.6623   -2.4139 H   0  0  0  0  0  0  0  0  0  0  0  0
    5.5796   -2.0041   -2.7218 H   0  0  0  0  0  0  0  0  0  0  0  0
    3.6159   -0.2792    0.4967 H   0  0  0  0  0  0  0  0  0  0  0  0
    2.7223   -0.6846   -0.9155 H   0  0  0  0  0  0  0  0  0  0  0  0
    2.0357   -1.9906    1.1062 H   0  0  0  0  0  0  0  0  0  0  0  0
    2.4700   -2.9882   -0.2380 H   0  0  0  0  0  0  0  0  0  0  0  0
    6.3251    0.5290    3.4131 H   0  0  0  0  0  0  0  0  0  0  0  0
    4.8131    0.3138    5.3617 H   0  0  0  0  0  0  0  0  0  0  0  0
    3.1291   -0.8938    6.3719 H   0  0  0  0  0  0  0  0  0  0  0  0
    4.3888   -4.5565    2.7591 H   0  0  0  0  0  0  0  0  0  0  0  0
    4.5254   -6.4015    0.8754 H   0  0  0  0  0  0  0  0  0  0  0  0
    3.2573   -6.3272   -0.3200 H   0  0  0  0  0  0  0  0  0  0  0  0
    5.4721   -5.0692   -0.8943 H   0  0  0  0  0  0  0  0  0  0  0  0
    3.9723   -4.2682   -1.1808 H   0  0  0  0  0  0  0  0  0  0  0  0
    5.9133   -3.8363    1.1361 H   0  0  0  0  0  0  0  0  0  0  0  0
    6.5423   -2.3615   -0.7576 H   0  0  0  0  0  0  0  0  0  0  0  0
    6.3876   -0.1807    0.6217 H   0  0  0  0  0  0  0  0  0  0  0  0
    7.2389   -1.5409    1.2888 H   0  0  0  0  0  0  0  0  0  0  0  0
  1  2  1  0
  1 25  1  0
  1 26  1  0
  1 27  1  0
  2  3  1  0
  3  4  1  0
  3 28  1  0
  3 29  1  0
  4  5  1  0
  4 30  1  0
  4 31  1  0
  5 23  1  0
  5  6  1  0
  6  7  1  0
  6 32  1  0
  6 33  1  0
  8  7  1  6
  7 34  1  0
  7 35  1  0
  8 17  1  0
  8 22  1  0
  8  9  1  0
  9 15  2  0
  9 10  1  0
 10 24  1  0
 10 11  2  0
 11 12  1  0
 11 36  1  0
 12 13  2  0
 12 37  1  0
 13 14  1  0
 13 15  1  0
 14 38  1  0
 15 16  1  0
 16 17  1  0
 17 18  1  0
 17 39  1  1
 18 19  2  0
 18 20  1  0
 20 21  1  0
 20 40  1  0
 20 41  1  0
 21 22  1  0
 21 42  1  0
 21 43  1  0
 22 23  1  0
 22 44  1  1
 23 24  1  0
 23 45  1  6
 24 46  1  0
 24 47  1  0
M  END
>  <i_m_ct_stereo_status>  (58) 
1

>  <s_m_source_file>  (58) 
/var/tmp/pbs.5076255.sched01/tmpc_kifbv4/0gx9_4qhc.sdf

>  <i_m_source_file_index>  (58) 
27

>  <i_lp_mmshare_version>  (58) 
48012

>  <i_f3d_flags>  (58) 
0

>  <s_epik_input>  (58) 
W0NIM11PW0NIMl1bQ0gyXU4oW0NIMl1bQ0gyXTEpW0NAQEhdKFtDSDJdMilbQ0BASF0zW0NIMl1bQ0gyXUMoPU8pW0NAQEhdNE9jNWMoW09IXSlbY0hdW2NIXWMyYzVbQ0BAXTEzNA==

>  <s_epik_cmdline>  (58) 
J2VwaWtfcHl0aG9uJywgJy1waHQnLCAnMi4wJywgJy1waCcsICc3LjAnLCAnLXRuJywgJzgnLCAnLW1hJywgJzIwMCcsICctaW1hZScsICc8aW5maWxlLm1hZT4nLCAnLW9tYWUnLCAnPG91dGZpbGUubWFlPic=

>  <r_lp_tautomer_probability>  (58) 
1

>  <r_epik_Ionization_Penalty>  (58) 
0.655306

>  <r_epik_Ionization_Penalty_Charging>  (58) 
0

>  <r_epik_Ionization_Penalty_Neutral>  (58) 
0.655306

>  <r_epik_State_Penalty>  (58) 
0.482375

>  <r_epik_Charging_Adjusted_Penalty>  (58) 
0.482375

>  <i_epik_Tot_Q>  (58) 
0

>  <i_epik_Tot_abs_Q>  (58) 
0

>  <s_lp_Force_Field>  (58) 
OPLS3e

>  <r_lp_Energy>  (58) 
68.776

>  <b_lp_Chiralities_Consistent>  (58) 
1

>  <s_lp_Variant>  (58) 
20:0-2

>  <s_i_glide_gridfile>  (58) 
pfpi4k_grid

>  <i_i_glide_lignum>  (58) 
27

>  <i_i_glide_rotatable_bonds>  (58) 
4

>  <r_i_docking_score>  (58) 
-3.58894

>  <r_i_glide_ligand_efficiency>  (58) 
-0.149539

>  <r_i_glide_ligand_efficiency_sa>  (58) 
-0.431346

>  <r_i_glide_ligand_efficiency_ln>  (58) 
-0.858998

>  <r_i_glide_gscore>  (58) 
-3.58894

>  <r_i_glide_lipo>  (58) 
-0.697265

>  <r_i_glide_hbond>  (58) 
-0.37461

>  <r_i_glide_metal>  (58) 
-0

>  <r_i_glide_rewards>  (58) 
-1.16325

>  <r_i_glide_evdw>  (58) 
-23.4148

>  <r_i_glide_ecoul>  (58) 
-3.47132

>  <r_i_glide_erotb>  (58) 
0.346444

>  <r_i_glide_esite>  (58) 
-0.00882114

>  <r_i_glide_emodel>  (58) 
-34.0846

>  <r_i_glide_energy>  (58) 
-26.8862

>  <r_i_glide_einternal>  (58) 
0.131967

>  <r_i_glide_intrahb_reward>  (58) 
-0

>  <i_i_glide_confnum>  (58) 
1

>  <i_i_glide_posenum>  (58) 
32

>  <r_i_glide_eff_state_penalty>  (58) 
0

>  <ligand_id>  (58) 
20

>  <original_smiles>  (58) 
COCCN1CCC23c4c5ccc(O)c4OC2C(=O)CCC3C1C5

>  <smiles>  (58) 
[H]Oc1c([H])c([H])c2c3c1OC1([H])C(=O)C([H])([H])C([H])([H])C4([H])C([H])(N(C([H])([H])C([H])([H])OC([H])([H])[H])C([H])([H])C([H])([H])C314)C2([H])[H]

$$$$
20:2:0
     RDKit          3D

 47 51  0  0  1  0  0  0  0  0999 V2000
   -6.8907   -4.7536   -5.9126 C   0  0  0  0  0  0  0  0  0  0  0  0
   -6.0841   -5.8546   -5.5088 O   0  0  0  0  0  0  0  0  0  0  0  0
   -6.8080   -7.0690   -5.3396 C   0  0  0  0  0  0  0  0  0  0  0  0
   -7.1654   -7.6997   -6.7030 C   0  0  0  0  0  0  0  0  0  0  0  0
   -6.6059   -9.0653   -6.9094 N   0  0  2  0  0  0  0  0  0  0  0  0
   -6.4412   -9.3645   -8.3511 C   0  0  0  0  0  0  0  0  0  0  0  0
   -5.8159  -10.7536   -8.5531 C   0  0  0  0  0  0  0  0  0  0  0  0
   -6.5702  -11.8520   -7.7651 C   0  0  1  0  0  0  0  0  0  0  0  0
   -7.9360  -11.9612   -8.3044 C   0  0  0  0  0  0  0  0  0  0  0  0
   -9.0271  -11.2070   -7.8734 C   0  0  0  0  0  0  0  0  0  0  0  0
  -10.1960  -11.3622   -8.6412 C   0  0  0  0  0  0  0  0  0  0  0  0
  -10.1856  -12.2489   -9.7511 C   0  0  0  0  0  0  0  0  0  0  0  0
   -9.0405  -13.0302  -10.0834 C   0  0  0  0  0  0  0  0  0  0  0  0
   -9.0867  -13.9072  -11.1283 O   0  0  0  0  0  0  0  0  0  0  0  0
   -7.8607  -12.9016   -9.3141 C   0  0  0  0  0  0  0  0  0  0  0  0
   -6.6422  -13.5587   -9.3601 O   0  0  0  0  0  0  0  0  0  0  0  0
   -6.1218  -13.2784   -8.0515 C   0  0  1  0  0  0  0  0  0  0  0  0
   -4.6369  -13.3948   -7.7627 C   0  0  0  0  0  0  0  0  0  0  0  0
   -3.7960  -13.7814   -8.5760 O   0  0  0  0  0  0  0  0  0  0  0  0
   -4.2917  -12.9678   -6.3273 C   0  0  0  0  0  0  0  0  0  0  0  0
   -5.0183  -11.6588   -5.8388 C   0  0  0  0  0  0  0  0  0  0  0  0
   -6.5104  -11.5229   -6.3006 C   0  0  1  0  0  0  0  0  0  0  0  0
   -7.2850  -10.1701   -6.1580 C   0  0  2  0  0  0  0  0  0  0  0  0
   -8.7776  -10.3932   -6.6032 C   0  0  0  0  0  0  0  0  0  0  0  0
   -6.2634   -3.8718   -6.0369 H   0  0  0  0  0  0  0  0  0  0  0  0
   -7.6517   -4.5211   -5.1669 H   0  0  0  0  0  0  0  0  0  0  0  0
   -7.3884   -4.9372   -6.8652 H   0  0  0  0  0  0  0  0  0  0  0  0
   -6.1833   -7.7409   -4.7440 H   0  0  0  0  0  0  0  0  0  0  0  0
   -7.7108   -6.8778   -4.7511 H   0  0  0  0  0  0  0  0  0  0  0  0
   -8.2414   -7.6616   -6.8546 H   0  0  0  0  0  0  0  0  0  0  0  0
   -6.7678   -7.0552   -7.4841 H   0  0  0  0  0  0  0  0  0  0  0  0
   -7.4017   -9.2952   -8.8667 H   0  0  0  0  0  0  0  0  0  0  0  0
   -5.8035   -8.6084   -8.8101 H   0  0  0  0  0  0  0  0  0  0  0  0
   -5.8319  -11.0417   -9.5953 H   0  0  0  0  0  0  0  0  0  0  0  0
   -4.7599  -10.6941   -8.2926 H   0  0  0  0  0  0  0  0  0  0  0  0
  -11.0849  -10.8063   -8.3796 H   0  0  0  0  0  0  0  0  0  0  0  0
  -11.0792  -12.3437  -10.3445 H   0  0  0  0  0  0  0  0  0  0  0  0
   -6.6266  -13.9539   -7.3613 H   0  0  0  0  0  0  0  0  0  0  0  0
   -4.5848  -13.7963   -5.6818 H   0  0  0  0  0  0  0  0  0  0  0  0
   -3.2108  -12.8685   -6.2150 H   0  0  0  0  0  0  0  0  0  0  0  0
   -4.9693  -11.6414   -4.7506 H   0  0  0  0  0  0  0  0  0  0  0  0
   -4.4293  -10.7960   -6.1546 H   0  0  0  0  0  0  0  0  0  0  0  0
   -7.0746  -12.2913   -5.7705 H   0  0  0  0  0  0  0  0  0  0  0  0
   -7.2913   -9.8580   -5.1192 H   0  0  0  0  0  0  0  0  0  0  0  0
   -9.3144   -9.4587   -6.7204 H   0  0  0  0  0  0  0  0  0  0  0  0
   -9.2950  -10.9205   -5.7995 H   0  0  0  0  0  0  0  0  0  0  0  0
   -5.6648   -9.0314   -6.5417 H   0  0  0  0  0  0  0  0  0  0  0  0
  1  2  1  0
  1 25  1  0
  1 26  1  0
  1 27  1  0
  2  3  1  0
  3  4  1  0
  3 28  1  0
  3 29  1  0
  4  5  1  0
  4 30  1  0
  4 31  1  0
  5 23  1  0
  5  6  1  0
  5 47  1  1
  6  7  1  0
  6 32  1  0
  6 33  1  0
  8  7  1  6
  7 34  1  0
  7 35  1  0
  8 17  1  0
  8 22  1  0
  8  9  1  0
  9 15  2  0
  9 10  1  0
 10 24  1  0
 10 11  2  0
 11 12  1  0
 11 36  1  0
 12 13  2  0
 12 37  1  0
 13 14  1  0
 13 15  1  0
 15 16  1  0
 16 17  1  0
 17 18  1  0
 17 38  1  1
 18 19  2  0
 18 20  1  0
 20 21  1  0
 20 39  1  0
 20 40  1  0
 21 22  1  0
 21 41  1  0
 21 42  1  0
 22 23  1  0
 22 43  1  1
 23 24  1  0
 23 44  1  1
 24 45  1  0
 24 46  1  0
M  CHG  2   5   1  14  -1
M  END
>  <i_m_ct_stereo_status>  (59) 
1

>  <s_m_source_file>  (59) 
/var/tmp/pbs.5076255.sched01/tmpc_kifbv4/0gx9_4qhc.sdf

>  <i_m_source_file_index>  (59) 
28

>  <i_lp_mmshare_version>  (59) 
48012

>  <i_f3d_flags>  (59) 
0

>  <s_epik_input>  (59) 
W0NIM11PW0NIMl1bQ0gyXU4oW0NIMl1bQ0gyXTEpW0NAQEhdKFtDSDJdMilbQ0BASF0zW0NIMl1bQ0gyXUMoPU8pW0NAQEhdNE9jNWMoW09IXSlbY0hdW2NIXWMyYzVbQ0BAXTEzNA==

>  <s_epik_cmdline>  (59) 
J2VwaWtfcHl0aG9uJywgJy1waHQnLCAnMi4wJywgJy1waCcsICc3LjAnLCAnLXRuJywgJzgnLCAnLW1hJywgJzIwMCcsICctaW1hZScsICc8aW5maWxlLm1hZT4nLCAnLW9tYWUnLCAnPG91dGZpbGUubWFlPic=

>  <r_epik_Ionization_Penalty>  (59) 
1.89572

>  <r_epik_Ionization_Penalty_Charging>  (59) 
1.89572

>  <r_epik_Ionization_Penalty_Neutral>  (59) 
1.58071e-10

>  <r_epik_State_Penalty>  (59) 
2.4441

>  <r_epik_Charging_Adjusted_Penalty>  (59) 
4.33982

>  <i_epik_Tot_Q>  (59) 
0

>  <i_epik_Tot_abs_Q>  (59) 
2

>  <s_lp_Force_Field>  (59) 
OPLS3e

>  <r_lp_Energy>  (59) 
61.4234

>  <b_lp_Chiralities_Consistent>  (59) 
1

>  <s_lp_Variant>  (59) 
20:0-3

>  <s_i_glide_gridfile>  (59) 
pfpi4k_grid

>  <i_i_glide_lignum>  (59) 
28

>  <i_i_glide_rotatable_bonds>  (59) 
3

>  <r_i_docking_score>  (59) 
-3.90594

>  <r_i_glide_ligand_efficiency>  (59) 
-0.162748

>  <r_i_glide_ligand_efficiency_sa>  (59) 
-0.469445

>  <r_i_glide_ligand_efficiency_ln>  (59) 
-0.934871

>  <r_i_glide_gscore>  (59) 
-3.90594

>  <r_i_glide_lipo>  (59) 
-1.35367

>  <r_i_glide_hbond>  (59) 
0

>  <r_i_glide_metal>  (59) 
-0

>  <r_i_glide_rewards>  (59) 
-1.32815

>  <r_i_glide_evdw>  (59) 
-20.4629

>  <r_i_glide_ecoul>  (59) 
-2.40959

>  <r_i_glide_erotb>  (59) 
0.173222

>  <r_i_glide_esite>  (59) 
-0.0127556

>  <r_i_glide_emodel>  (59) 
-26.2356

>  <r_i_glide_energy>  (59) 
-22.8725

>  <r_i_glide_einternal>  (59) 
4.89474

>  <r_i_glide_intrahb_reward>  (59) 
-0

>  <i_i_glide_confnum>  (59) 
2

>  <i_i_glide_posenum>  (59) 
38

>  <r_i_glide_eff_state_penalty>  (59) 
0

>  <ligand_id>  (59) 
20

>  <original_smiles>  (59) 
COCCN1CCC23c4c5ccc(O)c4OC2C(=O)CCC3C1C5

>  <smiles>  (59) 
[H]c1c([H])c2c3c(c1[O-])OC1([H])C(=O)C([H])([H])C([H])([H])C4([H])C31C([H])([H])C([H])([H])[N+]([H])(C([H])([H])C([H])([H])OC([H])([H])[H])C4([H])C2([H])[H]

$$$$
20:2:1
     RDKit          3D

 47 51  0  0  1  0  0  0  0  0999 V2000
   -6.1221   -4.1018   -4.4705 C   0  0  0  0  0  0  0  0  0  0  0  0
   -6.2002   -5.5114   -4.3137 O   0  0  0  0  0  0  0  0  0  0  0  0
   -6.6470   -6.1551   -5.4988 C   0  0  0  0  0  0  0  0  0  0  0  0
   -6.7507   -7.6668   -5.2547 C   0  0  0  0  0  0  0  0  0  0  0  0
   -7.3858   -8.4367   -6.3611 N   0  0  2  0  0  0  0  0  0  0  0  0
   -7.6554   -9.8529   -5.9593 C   0  0  0  0  0  0  0  0  0  0  0  0
   -8.3929  -10.6192   -7.0686 C   0  0  0  0  0  0  0  0  0  0  0  0
   -7.6424  -10.4698   -8.4222 C   0  0  1  0  0  0  0  0  0  0  0  0
   -6.3303  -11.1166   -8.2863 C   0  0  0  0  0  0  0  0  0  0  0  0
   -5.1854  -10.4956   -7.7882 C   0  0  0  0  0  0  0  0  0  0  0  0
   -4.0915  -11.3539   -7.5834 C   0  0  0  0  0  0  0  0  0  0  0  0
   -4.2080  -12.7268   -7.9157 C   0  0  0  0  0  0  0  0  0  0  0  0
   -5.3986  -13.2701   -8.4700 C   0  0  0  0  0  0  0  0  0  0  0  0
   -5.4501  -14.5910   -8.7937 O   0  0  0  0  0  0  0  0  0  0  0  0
   -6.5124  -12.4252   -8.6836 C   0  0  0  0  0  0  0  0  0  0  0  0
   -7.7602  -12.6500   -9.2381 O   0  0  0  0  0  0  0  0  0  0  0  0
   -8.1736  -11.3115   -9.5629 C   0  0  1  0  0  0  0  0  0  0  0  0
   -9.6321  -10.9722   -9.7991 C   0  0  0  0  0  0  0  0  0  0  0  0
  -10.5375  -11.8021   -9.7975 O   0  0  0  0  0  0  0  0  0  0  0  0
   -9.8521   -9.4684  -10.0640 C   0  0  0  0  0  0  0  0  0  0  0  0
   -9.0265   -8.5172   -9.1188 C   0  0  0  0  0  0  0  0  0  0  0  0
   -7.5747   -9.0087   -8.8050 C   0  0  1  0  0  0  0  0  0  0  0  0
   -6.7291   -8.3316   -7.6902 C   0  0  2  0  0  0  0  0  0  0  0  0
   -5.2918   -8.9567   -7.6678 C   0  0  0  0  0  0  0  0  0  0  0  0
   -5.7887   -3.6273   -3.5503 H   0  0  0  0  0  0  0  0  0  0  0  0
   -7.0899   -3.6672   -4.7140 H   0  0  0  0  0  0  0  0  0  0  0  0
   -5.4143   -3.8386   -5.2546 H   0  0  0  0  0  0  0  0  0  0  0  0
   -7.6235   -5.7547   -5.7891 H   0  0  0  0  0  0  0  0  0  0  0  0
   -5.9280   -5.9679   -6.2899 H   0  0  0  0  0  0  0  0  0  0  0  0
   -5.7835   -8.0843   -4.9648 H   0  0  0  0  0  0  0  0  0  0  0  0
   -7.3792   -7.7569   -4.3840 H   0  0  0  0  0  0  0  0  0  0  0  0
   -6.7275  -10.3578   -5.6905 H   0  0  0  0  0  0  0  0  0  0  0  0
   -8.2430   -9.8875   -5.0516 H   0  0  0  0  0  0  0  0  0  0  0  0
   -8.4704  -11.6681   -6.7813 H   0  0  0  0  0  0  0  0  0  0  0  0
   -9.4251  -10.2730   -7.1263 H   0  0  0  0  0  0  0  0  0  0  0  0
   -3.1576  -10.9675   -7.2111 H   0  0  0  0  0  0  0  0  0  0  0  0
   -3.3620  -13.3642   -7.7501 H   0  0  0  0  0  0  0  0  0  0  0  0
   -7.6580  -11.0473  -10.4835 H   0  0  0  0  0  0  0  0  0  0  0  0
   -9.5615   -9.2962  -11.1019 H   0  0  0  0  0  0  0  0  0  0  0  0
  -10.9175   -9.2424  -10.0089 H   0  0  0  0  0  0  0  0  0  0  0  0
   -8.9744   -7.5377   -9.5919 H   0  0  0  0  0  0  0  0  0  0  0  0
   -9.5940   -8.3658   -8.1987 H   0  0  0  0  0  0  0  0  0  0  0  0
   -7.0055   -8.9146   -9.7306 H   0  0  0  0  0  0  0  0  0  0  0  0
   -6.6512   -7.2707   -7.9366 H   0  0  0  0  0  0  0  0  0  0  0  0
   -4.7293   -8.6257   -6.7953 H   0  0  0  0  0  0  0  0  0  0  0  0
   -4.7694   -8.5163   -8.5175 H   0  0  0  0  0  0  0  0  0  0  0  0
   -8.3082   -8.0179   -6.4779 H   0  0  0  0  0  0  0  0  0  0  0  0
  1  2  1  0
  1 25  1  0
  1 26  1  0
  1 27  1  0
  2  3  1  0
  3  4  1  0
  3 28  1  0
  3 29  1  0
  4  5  1  0
  4 30  1  0
  4 31  1  0
  5 23  1  0
  5  6  1  0
  5 47  1  6
  6  7  1  0
  6 32  1  0
  6 33  1  0
  8  7  1  1
  7 34  1  0
  7 35  1  0
  8 17  1  0
  8 22  1  0
  8  9  1  0
  9 15  2  0
  9 10  1  0
 10 24  1  0
 10 11  2  0
 11 12  1  0
 11 36  1  0
 12 13  2  0
 12 37  1  0
 13 14  1  0
 13 15  1  0
 15 16  1  0
 16 17  1  0
 17 18  1  0
 17 38  1  6
 18 19  2  0
 18 20  1  0
 20 21  1  0
 20 39  1  0
 20 40  1  0
 21 22  1  0
 21 41  1  0
 21 42  1  0
 22 23  1  0
 22 43  1  6
 23 24  1  0
 23 44  1  6
 24 45  1  0
 24 46  1  0
M  CHG  2   5   1  14  -1
M  END
>  <i_m_ct_stereo_status>  (60) 
1

>  <s_m_source_file>  (60) 
/var/tmp/pbs.5076255.sched01/tmpc_kifbv4/0gx9_4qhc.sdf

>  <i_m_source_file_index>  (60) 
28

>  <i_lp_mmshare_version>  (60) 
48012

>  <i_f3d_flags>  (60) 
0

>  <s_epik_input>  (60) 
W0NIM11PW0NIMl1bQ0gyXU4oW0NIMl1bQ0gyXTEpW0NAQEhdKFtDSDJdMilbQ0BASF0zW0NIMl1bQ0gyXUMoPU8pW0NAQEhdNE9jNWMoW09IXSlbY0hdW2NIXWMyYzVbQ0BAXTEzNA==

>  <s_epik_cmdline>  (60) 
J2VwaWtfcHl0aG9uJywgJy1waHQnLCAnMi4wJywgJy1waCcsICc3LjAnLCAnLXRuJywgJzgnLCAnLW1hJywgJzIwMCcsICctaW1hZScsICc8aW5maWxlLm1hZT4nLCAnLW9tYWUnLCAnPG91dGZpbGUubWFlPic=

>  <r_epik_Ionization_Penalty>  (60) 
1.89572

>  <r_epik_Ionization_Penalty_Charging>  (60) 
1.89572

>  <r_epik_Ionization_Penalty_Neutral>  (60) 
1.58071e-10

>  <r_epik_State_Penalty>  (60) 
2.4441

>  <r_epik_Charging_Adjusted_Penalty>  (60) 
4.33982

>  <i_epik_Tot_Q>  (60) 
0

>  <i_epik_Tot_abs_Q>  (60) 
2

>  <s_lp_Force_Field>  (60) 
OPLS3e

>  <r_lp_Energy>  (60) 
61.4234

>  <b_lp_Chiralities_Consistent>  (60) 
1

>  <s_lp_Variant>  (60) 
20:0-3

>  <s_i_glide_gridfile>  (60) 
pfpi4k_grid

>  <i_i_glide_lignum>  (60) 
28

>  <i_i_glide_rotatable_bonds>  (60) 
3

>  <r_i_docking_score>  (60) 
-3.89277

>  <r_i_glide_ligand_efficiency>  (60) 
-0.162199

>  <r_i_glide_ligand_efficiency_sa>  (60) 
-0.467862

>  <r_i_glide_ligand_efficiency_ln>  (60) 
-0.931718

>  <r_i_glide_gscore>  (60) 
-3.89277

>  <r_i_glide_lipo>  (60) 
-1.74056

>  <r_i_glide_hbond>  (60) 
0

>  <r_i_glide_metal>  (60) 
-0

>  <r_i_glide_rewards>  (60) 
-1.49727

>  <r_i_glide_evdw>  (60) 
-17.1499

>  <r_i_glide_ecoul>  (60) 
0.195522

>  <r_i_glide_erotb>  (60) 
0.173222

>  <r_i_glide_esite>  (60) 
0

>  <r_i_glide_emodel>  (60) 
-22.8433

>  <r_i_glide_energy>  (60) 
-16.9544

>  <r_i_glide_einternal>  (60) 
0.113795

>  <r_i_glide_intrahb_reward>  (60) 
-0

>  <i_i_glide_confnum>  (60) 
3

>  <i_i_glide_posenum>  (60) 
18

>  <r_i_glide_eff_state_penalty>  (60) 
0

>  <ligand_id>  (60) 
20

>  <original_smiles>  (60) 
COCCN1CCC23c4c5ccc(O)c4OC2C(=O)CCC3C1C5

>  <smiles>  (60) 
[H]c1c([H])c2c3c(c1[O-])OC1([H])C(=O)C([H])([H])C([H])([H])C4([H])C31C([H])([H])C([H])([H])[N+]([H])(C([H])([H])C([H])([H])OC([H])([H])[H])C4([H])C2([H])[H]

$$$$
21:0:0
     RDKit          3D

 86 92  0  0  1  0  0  0  0  0999 V2000
    1.3004    1.4797    1.7586 C   0  0  0  0  0  0  0  0  0  0  0  0
    2.1329    1.1752    2.8754 O   0  0  0  0  0  0  0  0  0  0  0  0
    2.0793   -0.1848    3.2864 C   0  0  2  0  0  0  0  0  0  0  0  0
    0.7916   -0.4169    4.0921 C   0  0  0  0  0  0  0  0  0  0  0  0
    0.7069   -1.8546    4.6131 C   0  0  0  0  0  0  0  0  0  0  0  0
    1.9027   -2.3067    5.4949 C   0  0  2  0  0  0  0  0  0  0  0  0
    1.8697   -1.4812    6.8079 C   0  0  0  0  0  0  0  0  0  0  0  0
    3.2509   -1.9880    4.7217 C   0  0  2  0  0  0  0  0  0  0  0  0
    3.3021   -0.5144    4.1771 C   0  0  1  0  0  0  0  0  0  0  0  0
    4.6364   -0.1469    3.4976 C   0  0  0  0  0  0  0  0  0  0  0  0
    3.6296   -3.0522    3.6241 C   0  0  1  0  0  0  0  0  0  0  0  0
    5.0334   -3.2094    3.5353 O   0  0  0  0  0  0  0  0  0  0  0  0
    3.0203   -4.4313    3.8329 C   0  0  1  0  0  0  0  0  0  0  0  0
    1.8149   -4.5418    3.0736 O   0  0  0  0  0  0  0  0  0  0  0  0
    2.8287   -5.4480    2.6852 C   0  0  2  0  0  0  0  0  0  0  0  0
    2.3927   -6.9450    2.5838 C   0  0  1  0  0  0  0  0  0  0  0  0
    3.6418   -7.9618    2.5112 C   0  0  1  0  0  0  0  0  0  0  0  0
    3.5005   -9.1517    1.5034 C   0  0  0  0  0  0  0  0  0  0  0  0
    4.7265   -7.2410    1.9625 O   0  0  0  0  0  0  0  0  0  0  0  0
    4.0317   -8.3184    3.8113 O   0  0  0  0  0  0  0  0  0  0  0  0
    3.6595   -9.4432    4.4327 C   0  0  0  0  0  0  0  0  0  0  0  0
    3.6461  -10.5821    3.9809 O   0  0  0  0  0  0  0  0  0  0  0  0
    3.1839   -9.1419    5.8622 C   0  0  0  0  0  0  0  0  0  0  0  0
    1.7726   -8.4692    5.9886 C   0  0  2  0  0  0  0  0  0  0  0  0
    0.6981   -9.1816    5.1170 C   0  0  1  0  0  0  0  0  0  0  0  0
   -0.5844   -9.0508    5.7024 O   0  0  0  0  0  0  0  0  0  0  0  0
    0.6728   -8.9053    3.5868 C   0  0  1  0  0  0  0  0  0  0  0  0
   -0.5236   -9.6577    2.9496 C   0  0  0  0  0  0  0  0  0  0  0  0
    0.9106   -7.4138    3.1296 C   0  0  2  0  0  0  0  0  0  0  0  0
    0.1568   -7.2924    1.9162 O   0  0  0  0  0  0  0  0  0  0  0  0
    0.0704   -6.4425    4.0469 C   0  0  1  0  0  0  0  0  0  0  0  0
   -1.2967   -6.8342    4.0727 O   0  0  0  0  0  0  0  0  0  0  0  0
    0.4580   -6.1339    5.5477 C   0  0  2  0  0  0  0  0  0  0  0  0
    0.4207   -4.5723    5.8148 C   0  0  1  0  0  0  0  0  0  0  0  0
   -0.3560   -4.2635    6.9614 O   0  0  0  0  0  0  0  0  0  0  0  0
    1.8037   -3.8360    5.9438 C   0  0  1  0  0  0  0  0  0  0  0  0
    2.9161   -4.6804    5.3309 C   0  0  1  0  0  0  0  0  0  0  0  0
    2.9897   -6.1306    5.8091 C   0  0  0  0  0  0  0  0  0  0  0  0
    1.6867   -6.8761    6.1971 C   0  0  2  0  0  0  0  0  0  0  0  0
    1.5525   -6.7016    7.7466 C   0  0  0  0  0  0  0  0  0  0  0  0
    1.4349    2.5273    1.4879 H   0  0  0  0  0  0  0  0  0  0  0  0
    0.2397    1.3389    1.9713 H   0  0  0  0  0  0  0  0  0  0  0  0
    1.5575    0.8707    0.8900 H   0  0  0  0  0  0  0  0  0  0  0  0
    2.1025   -0.8235    2.4016 H   0  0  0  0  0  0  0  0  0  0  0  0
    0.7317    0.3037    4.9095 H   0  0  0  0  0  0  0  0  0  0  0  0
   -0.0900   -0.2359    3.4793 H   0  0  0  0  0  0  0  0  0  0  0  0
   -0.2258   -1.9495    5.1664 H   0  0  0  0  0  0  0  0  0  0  0  0
    0.6211   -2.4984    3.7417 H   0  0  0  0  0  0  0  0  0  0  0  0
    2.7182   -1.7216    7.4529 H   0  0  0  0  0  0  0  0  0  0  0  0
    0.9622   -1.6882    7.3771 H   0  0  0  0  0  0  0  0  0  0  0  0
    1.9005   -0.4041    6.6510 H   0  0  0  0  0  0  0  0  0  0  0  0
    4.0442   -2.0509    5.4733 H   0  0  0  0  0  0  0  0  0  0  0  0
    3.2566    0.1521    5.0369 H   0  0  0  0  0  0  0  0  0  0  0  0
    4.7636   -0.6487    2.5354 H   0  0  0  0  0  0  0  0  0  0  0  0
    5.4899   -0.4024    4.1309 H   0  0  0  0  0  0  0  0  0  0  0  0
    4.6797    0.9280    3.3146 H   0  0  0  0  0  0  0  0  0  0  0  0
    3.2988   -2.7037    2.6450 H   0  0  0  0  0  0  0  0  0  0  0  0
    5.2253   -3.7894    2.8119 H   0  0  0  0  0  0  0  0  0  0  0  0
    3.3380   -5.1331    1.7767 H   0  0  0  0  0  0  0  0  0  0  0  0
    2.2405   -6.9330    1.5014 H   0  0  0  0  0  0  0  0  0  0  0  0
    4.4097   -9.7591    1.5231 H   0  0  0  0  0  0  0  0  0  0  0  0
    3.4077   -8.7532    0.4930 H   0  0  0  0  0  0  0  0  0  0  0  0
    2.6597   -9.8183    1.6590 H   0  0  0  0  0  0  0  0  0  0  0  0
    5.4401   -7.8477    1.8321 H   0  0  0  0  0  0  0  0  0  0  0  0
    3.1526  -10.1047    6.3793 H   0  0  0  0  0  0  0  0  0  0  0  0
    3.9462   -8.5616    6.3819 H   0  0  0  0  0  0  0  0  0  0  0  0
    1.4920   -8.8742    6.9669 H   0  0  0  0  0  0  0  0  0  0  0  0
    0.8968  -10.2507    5.2302 H   0  0  0  0  0  0  0  0  0  0  0  0
   -1.1243   -9.8006    5.4322 H   0  0  0  0  0  0  0  0  0  0  0  0
    1.4709   -9.4898    3.1967 H   0  0  0  0  0  0  0  0  0  0  0  0
   -1.4941   -9.2105    3.1530 H   0  0  0  0  0  0  0  0  0  0  0  0
   -0.5480  -10.6597    3.3542 H   0  0  0  0  0  0  0  0  0  0  0  0
   -0.4197   -9.7694    1.8737 H   0  0  0  0  0  0  0  0  0  0  0  0
    0.2901   -8.0830    1.4095 H   0  0  0  0  0  0  0  0  0  0  0  0
   -0.0667   -5.5216    3.5019 H   0  0  0  0  0  0  0  0  0  0  0  0
   -1.3391   -7.6794    4.5089 H   0  0  0  0  0  0  0  0  0  0  0  0
   -0.3878   -6.5121    6.1252 H   0  0  0  0  0  0  0  0  0  0  0  0
   -0.1636   -4.1404    5.0140 H   0  0  0  0  0  0  0  0  0  0  0  0
    0.0709   -4.6378    7.7179 H   0  0  0  0  0  0  0  0  0  0  0  0
    2.0673   -3.8593    7.0031 H   0  0  0  0  0  0  0  0  0  0  0  0
    3.8527   -4.2864    5.7354 H   0  0  0  0  0  0  0  0  0  0  0  0
    3.5310   -6.6046    5.0346 H   0  0  0  0  0  0  0  0  0  0  0  0
    3.6838   -6.1692    6.6468 H   0  0  0  0  0  0  0  0  0  0  0  0
    1.6060   -5.6663    8.0755 H   0  0  0  0  0  0  0  0  0  0  0  0
    2.3505   -7.2260    8.2809 H   0  0  0  0  0  0  0  0  0  0  0  0
    0.6064   -7.1089    8.1088 H   0  0  0  0  0  0  0  0  0  0  0  0
  1  2  1  0
  1 41  1  0
  1 42  1  0
  1 43  1  0
  2  3  1  0
  3  9  1  0
  3  4  1  0
  3 44  1  6
  4  5  1  0
  4 45  1  0
  4 46  1  0
  5  6  1  0
  5 47  1  0
  5 48  1  0
  6 36  1  0
  6  7  1  1
  6  8  1  0
  7 49  1  0
  7 50  1  0
  7 51  1  0
  8  9  1  0
  8 11  1  0
  8 52  1  1
  9 10  1  0
  9 53  1  1
 10 54  1  0
 10 55  1  0
 10 56  1  0
 11 12  1  0
 11 13  1  0
 11 57  1  6
 12 58  1  0
 13 15  1  0
 13 37  1  0
 13 14  1  6
 14 15  1  0
 15 16  1  0
 15 59  1  6
 16 29  1  0
 16 17  1  0
 16 60  1  6
 17 18  1  0
 17 19  1  6
 17 20  1  0
 18 61  1  0
 18 62  1  0
 18 63  1  0
 19 64  1  0
 20 21  1  0
 21 22  2  0
 21 23  1  0
 23 24  1  0
 23 65  1  0
 23 66  1  0
 24 39  1  0
 24 25  1  0
 24 67  1  1
 25 26  1  0
 25 27  1  0
 25 68  1  6
 26 69  1  0
 27 28  1  0
 27 29  1  0
 27 70  1  6
 28 71  1  0
 28 72  1  0
 28 73  1  0
 29 30  1  6
 29 31  1  0
 30 74  1  0
 31 32  1  0
 31 33  1  0
 31 75  1  6
 32 76  1  0
 33 39  1  0
 33 34  1  0
 33 77  1  1
 34 35  1  0
 34 36  1  0
 34 78  1  6
 35 79  1  0
 36 37  1  0
 36 80  1  1
 37 38  1  0
 37 81  1  1
 38 39  1  0
 38 82  1  0
 38 83  1  0
 39 40  1  1
 40 84  1  0
 40 85  1  0
 40 86  1  0
M  END
>  <i_m_ct_stereo_status>  (61) 
1

>  <s_m_source_file>  (61) 
/var/tmp/pbs.5076255.sched01/tmpc_kifbv4/0gx9_4qhc.sdf

>  <i_m_source_file_index>  (61) 
29

>  <i_lp_mmshare_version>  (61) 
48012

>  <i_f3d_flags>  (61) 
0

>  <s_epik_input>  (61) 
W0NIM11PW0NASF0oW0NIMl1bQ0gyXTEpW0NASF0oW0NIM10pW0NASF0oW0NASF0yW09IXSlbQ0BdMShbQ0gzXSlbQ0BIXShbQ0BIXTNbQ0gyXTQpW0NASF0oW09IXSlbQ0BASF0oW0NAQEhdNVtPSF0pW0NAQF00KFtDSDNdKVtDQEhdKFtDSDJdQyg9TylPW0NAXTYoW0NIM10pW09IXSlbQ0BASF0oW09IXSlbQ0BASF0oW0NIM10pW0NAXTUoW09IXSlbQ0BIXTZbQ0BIXShbQ0BdMjM3KU83

>  <s_epik_cmdline>  (61) 
J2VwaWtfcHl0aG9uJywgJy1waHQnLCAnMi4wJywgJy1waCcsICc3LjAnLCAnLXRuJywgJzgnLCAnLW1hJywgJzIwMCcsICctaW1hZScsICc8aW5maWxlLm1hZT4nLCAnLW9tYWUnLCAnPG91dGZpbGUubWFlPic=

>  <r_lp_tautomer_probability>  (61) 
1

>  <r_epik_Ionization_Penalty>  (61) 
1.71309e-06

>  <r_epik_Ionization_Penalty_Charging>  (61) 
0

>  <r_epik_Ionization_Penalty_Neutral>  (61) 
1.71309e-06

>  <r_epik_State_Penalty>  (61) 
-0

>  <r_epik_Charging_Adjusted_Penalty>  (61) 
0

>  <i_epik_Tot_Q>  (61) 
0

>  <i_epik_Tot_abs_Q>  (61) 
0

>  <s_epik_Chemistry_Notes>  (61) 
This compound has an ester and may undergo hydrolysis at high or low pH.

>  <s_lp_Force_Field>  (61) 
OPLS3e

>  <r_lp_Energy>  (61) 
181.612

>  <b_lp_Chiralities_Consistent>  (61) 
1

>  <s_lp_Variant>  (61) 
21:0-1

>  <s_i_glide_gridfile>  (61) 
pfpi4k_grid

>  <i_i_glide_lignum>  (61) 
29

>  <i_i_glide_rotatable_bonds>  (61) 
7

>  <r_i_docking_score>  (61) 
-3.15771

>  <r_i_glide_ligand_efficiency>  (61) 
-0.0789427

>  <r_i_glide_ligand_efficiency_sa>  (61) 
-0.26998

>  <r_i_glide_ligand_efficiency_ln>  (61) 
-0.673446

>  <r_i_glide_gscore>  (61) 
-3.15771

>  <r_i_glide_lipo>  (61) 
-0.0721585

>  <r_i_glide_hbond>  (61) 
0

>  <r_i_glide_metal>  (61) 
-0

>  <r_i_glide_rewards>  (61) 
-0.5

>  <r_i_glide_evdw>  (61) 
-24.4549

>  <r_i_glide_ecoul>  (61) 
-9.04062

>  <r_i_glide_erotb>  (61) 
0

>  <r_i_glide_esite>  (61) 
-0.00671245

>  <r_i_glide_emodel>  (61) 
-45.8152

>  <r_i_glide_energy>  (61) 
-33.4955

>  <r_i_glide_einternal>  (61) 
1.23986

>  <r_i_glide_intrahb_reward>  (61) 
-0.5

>  <i_i_glide_confnum>  (61) 
2

>  <i_i_glide_posenum>  (61) 
28

>  <r_i_glide_eff_state_penalty>  (61) 
0

>  <ligand_id>  (61) 
21

>  <original_smiles>  (61) 
COC1CCC2(C)C(C1C)C(O)C13OC1C1C(C)(O)OC(=O)CC4C(O)C(C)C1(O)C(O)C1C(O)C2C3CC41C

>  <smiles>  (61) 
[H]OC1([H])C([H])(C([H])([H])[H])C2(O[H])C([H])(O[H])C3([H])C([H])(O[H])C4([H])C5([H])C([H])([H])C3(C([H])([H])[H])C1([H])C([H])([H])C(=O)OC(O[H])(C([H])([H])[H])C2([H])C1([H])OC15C([H])(O[H])C1([H])C([H])(C([H])([H])[H])C([H])(OC([H])([H])[H])C([H])([H])C([H])([H])C14C([H])([H])[H]

$$$$
21:0:1
     RDKit          3D

 86 92  0  0  1  0  0  0  0  0999 V2000
    0.5794    1.3923    4.0843 C   0  0  0  0  0  0  0  0  0  0  0  0
    0.4664    0.3399    3.1319 O   0  0  0  0  0  0  0  0  0  0  0  0
    0.8335   -0.9854    3.5311 C   0  0  2  0  0  0  0  0  0  0  0  0
   -0.1993   -1.5535    4.5275 C   0  0  0  0  0  0  0  0  0  0  0  0
    0.1555   -2.9777    4.9659 C   0  0  0  0  0  0  0  0  0  0  0  0
    1.5771   -3.1301    5.5739 C   0  0  2  0  0  0  0  0  0  0  0  0
    1.6318   -2.3220    6.8997 C   0  0  0  0  0  0  0  0  0  0  0  0
    2.6400   -2.5284    4.5584 C   0  0  2  0  0  0  0  0  0  0  0  0
    2.2766   -1.0819    4.0935 C   0  0  1  0  0  0  0  0  0  0  0  0
    3.3108   -0.4304    3.1450 C   0  0  0  0  0  0  0  0  0  0  0  0
    3.0088   -3.4736    3.3599 C   0  0  1  0  0  0  0  0  0  0  0  0
    4.3694   -3.3060    2.9951 O   0  0  0  0  0  0  0  0  0  0  0  0
    2.7692   -4.9444    3.6370 C   0  0  1  0  0  0  0  0  0  0  0  0
    1.4961   -5.3306    3.1315 O   0  0  0  0  0  0  0  0  0  0  0  0
    2.5713   -5.9881    2.5030 C   0  0  2  0  0  0  0  0  0  0  0  0
    2.4819   -7.5412    2.4405 C   0  0  1  0  0  0  0  0  0  0  0  0
    3.8924   -8.2335    2.0726 C   0  0  1  0  0  0  0  0  0  0  0  0
    3.8178   -9.4261    1.0756 C   0  0  0  0  0  0  0  0  0  0  0  0
    4.6459   -7.2844    1.3470 O   0  0  0  0  0  0  0  0  0  0  0  0
    4.6124   -8.4882    3.2522 O   0  0  0  0  0  0  0  0  0  0  0  0
    4.6370   -9.6693    3.8874 C   0  0  0  0  0  0  0  0  0  0  0  0
    4.7958  -10.7815    3.4032 O   0  0  0  0  0  0  0  0  0  0  0  0
    4.4147   -9.4753    5.3921 C   0  0  0  0  0  0  0  0  0  0  0  0
    2.9456   -9.1437    5.8338 C   0  0  2  0  0  0  0  0  0  0  0  0
    1.8947  -10.0853    5.1848 C   0  0  1  0  0  0  0  0  0  0  0  0
    0.7873  -10.2468    6.0550 O   0  0  0  0  0  0  0  0  0  0  0  0
    1.4981   -9.8346    3.6976 C   0  0  1  0  0  0  0  0  0  0  0  0
    0.4100  -10.8567    3.2709 C   0  0  0  0  0  0  0  0  0  0  0  0
    1.2910   -8.3400    3.2540 C   0  0  2  0  0  0  0  0  0  0  0  0
    0.2973   -8.3848    2.2236 O   0  0  0  0  0  0  0  0  0  0  0  0
    0.4573   -7.5816    4.3607 C   0  0  1  0  0  0  0  0  0  0  0  0
   -0.7656   -8.2532    4.6467 O   0  0  0  0  0  0  0  0  0  0  0  0
    1.0737   -7.1814    5.7538 C   0  0  2  0  0  0  0  0  0  0  0  0
    0.7471   -5.6711    6.0883 C   0  0  1  0  0  0  0  0  0  0  0  0
    0.1902   -5.5584    7.3826 O   0  0  0  0  0  0  0  0  0  0  0  0
    1.9154   -4.6316    5.9723 C   0  0  1  0  0  0  0  0  0  0  0  0
    3.0399   -5.2053    5.1057 C   0  0  1  0  0  0  0  0  0  0  0  0
    3.5373   -6.5867    5.5019 C   0  0  0  0  0  0  0  0  0  0  0  0
    2.5479   -7.6142    6.1129 C   0  0  2  0  0  0  0  0  0  0  0  0
    2.7010   -7.4629    7.6635 C   0  0  0  0  0  0  0  0  0  0  0  0
    0.2156    2.3186    3.6341 H   0  0  0  0  0  0  0  0  0  0  0  0
    1.6102    1.5753    4.3839 H   0  0  0  0  0  0  0  0  0  0  0  0
   -0.0099    1.2084    4.9817 H   0  0  0  0  0  0  0  0  0  0  0  0
    0.7741   -1.5801    2.6161 H   0  0  0  0  0  0  0  0  0  0  0  0
   -0.2774   -0.9331    5.4160 H   0  0  0  0  0  0  0  0  0  0  0  0
   -1.1912   -1.5397    4.0774 H   0  0  0  0  0  0  0  0  0  0  0  0
   -0.5939   -3.2772    5.6962 H   0  0  0  0  0  0  0  0  0  0  0  0
    0.0410   -3.6241    4.1022 H   0  0  0  0  0  0  0  0  0  0  0  0
    2.6281   -2.3539    7.3473 H   0  0  0  0  0  0  0  0  0  0  0  0
    0.9356   -2.7271    7.6346 H   0  0  0  0  0  0  0  0  0  0  0  0
    1.3863   -1.2682    6.7921 H   0  0  0  0  0  0  0  0  0  0  0  0
    3.5631   -2.4121    5.1317 H   0  0  0  0  0  0  0  0  0  0  0  0
    2.3198   -0.4939    5.0038 H   0  0  0  0  0  0  0  0  0  0  0  0
    3.3333   -0.9025    2.1614 H   0  0  0  0  0  0  0  0  0  0  0  0
    4.3122   -0.4729    3.5733 H   0  0  0  0  0  0  0  0  0  0  0  0
    3.0935    0.6228    2.9679 H   0  0  0  0  0  0  0  0  0  0  0  0
    2.4097   -3.2120    2.4934 H   0  0  0  0  0  0  0  0  0  0  0  0
    4.5475   -3.8429    2.2322 H   0  0  0  0  0  0  0  0  0  0  0  0
    2.8029   -5.5650    1.5384 H   0  0  0  0  0  0  0  0  0  0  0  0
    2.1136   -7.5718    1.4060 H   0  0  0  0  0  0  0  0  0  0  0  0
    4.8194   -9.8193    0.8892 H   0  0  0  0  0  0  0  0  0  0  0  0
    3.4210   -9.0950    0.1186 H   0  0  0  0  0  0  0  0  0  0  0  0
    3.1848  -10.2554    1.3827 H   0  0  0  0  0  0  0  0  0  0  0  0
    4.1985   -7.0908    0.5421 H   0  0  0  0  0  0  0  0  0  0  0  0
    4.7091  -10.4158    5.8627 H   0  0  0  0  0  0  0  0  0  0  0  0
    5.1152   -8.7324    5.7691 H   0  0  0  0  0  0  0  0  0  0  0  0
    2.9775   -9.5930    6.8365 H   0  0  0  0  0  0  0  0  0  0  0  0
    2.3421  -11.0821    5.1961 H   0  0  0  0  0  0  0  0  0  0  0  0
    1.0125  -10.9484    6.6826 H   0  0  0  0  0  0  0  0  0  0  0  0
    2.3133  -10.2309    3.1358 H   0  0  0  0  0  0  0  0  0  0  0  0
   -0.5682  -10.6127    3.6787 H   0  0  0  0  0  0  0  0  0  0  0  0
    0.6674  -11.8577    3.6153 H   0  0  0  0  0  0  0  0  0  0  0  0
    0.3046  -10.9269    2.1875 H   0  0  0  0  0  0  0  0  0  0  0  0
    0.5351   -9.0484    1.5835 H   0  0  0  0  0  0  0  0  0  0  0  0
    0.0046   -6.7244    3.8900 H   0  0  0  0  0  0  0  0  0  0  0  0
   -0.5695   -9.1495    4.9089 H   0  0  0  0  0  0  0  0  0  0  0  0
    0.4775   -7.7428    6.4781 H   0  0  0  0  0  0  0  0  0  0  0  0
   -0.0793   -5.3894    5.4499 H   0  0  0  0  0  0  0  0  0  0  0  0
   -0.5483   -6.1520    7.4333 H   0  0  0  0  0  0  0  0  0  0  0  0
    2.3889   -4.5924    6.9591 H   0  0  0  0  0  0  0  0  0  0  0  0
    3.9220   -4.6051    5.3349 H   0  0  0  0  0  0  0  0  0  0  0  0
    3.9989   -6.9353    4.6111 H   0  0  0  0  0  0  0  0  0  0  0  0
    4.3768   -6.4587    6.1827 H   0  0  0  0  0  0  0  0  0  0  0  0
    2.5753   -6.4446    8.0204 H   0  0  0  0  0  0  0  0  0  0  0  0
    3.6922   -7.7845    8.0071 H   0  0  0  0  0  0  0  0  0  0  0  0
    1.9667   -8.0763    8.1955 H   0  0  0  0  0  0  0  0  0  0  0  0
  1  2  1  0
  1 41  1  0
  1 42  1  0
  1 43  1  0
  2  3  1  0
  3  9  1  0
  3  4  1  0
  3 44  1  6
  4  5  1  0
  4 45  1  0
  4 46  1  0
  5  6  1  0
  5 47  1  0
  5 48  1  0
  6 36  1  0
  6  7  1  1
  6  8  1  0
  7 49  1  0
  7 50  1  0
  7 51  1  0
  8  9  1  0
  8 11  1  0
  8 52  1  1
  9 10  1  0
  9 53  1  1
 10 54  1  0
 10 55  1  0
 10 56  1  0
 11 12  1  0
 11 13  1  0
 11 57  1  6
 12 58  1  0
 13 15  1  0
 13 37  1  0
 13 14  1  1
 14 15  1  0
 15 16  1  0
 15 59  1  6
 16 29  1  0
 16 17  1  0
 16 60  1  6
 17 18  1  0
 17 19  1  6
 17 20  1  0
 18 61  1  0
 18 62  1  0
 18 63  1  0
 19 64  1  0
 20 21  1  0
 21 22  2  0
 21 23  1  0
 23 24  1  0
 23 65  1  0
 23 66  1  0
 24 39  1  0
 24 25  1  0
 24 67  1  1
 25 26  1  0
 25 27  1  0
 25 68  1  6
 26 69  1  0
 27 28  1  0
 27 29  1  0
 27 70  1  6
 28 71  1  0
 28 72  1  0
 28 73  1  0
 29 30  1  6
 29 31  1  0
 30 74  1  0
 31 32  1  0
 31 33  1  0
 31 75  1  6
 32 76  1  0
 33 39  1  0
 33 34  1  0
 33 77  1  1
 34 35  1  0
 34 36  1  0
 34 78  1  6
 35 79  1  0
 36 37  1  0
 36 80  1  1
 37 38  1  0
 37 81  1  1
 38 39  1  0
 38 82  1  0
 38 83  1  0
 39 40  1  1
 40 84  1  0
 40 85  1  0
 40 86  1  0
M  END
>  <i_m_ct_stereo_status>  (62) 
1

>  <s_m_source_file>  (62) 
/var/tmp/pbs.5076255.sched01/tmpc_kifbv4/0gx9_4qhc.sdf

>  <i_m_source_file_index>  (62) 
29

>  <i_lp_mmshare_version>  (62) 
48012

>  <i_f3d_flags>  (62) 
0

>  <s_epik_input>  (62) 
W0NIM11PW0NASF0oW0NIMl1bQ0gyXTEpW0NASF0oW0NIM10pW0NASF0oW0NASF0yW09IXSlbQ0BdMShbQ0gzXSlbQ0BIXShbQ0BIXTNbQ0gyXTQpW0NASF0oW09IXSlbQ0BASF0oW0NAQEhdNVtPSF0pW0NAQF00KFtDSDNdKVtDQEhdKFtDSDJdQyg9TylPW0NAXTYoW0NIM10pW09IXSlbQ0BASF0oW09IXSlbQ0BASF0oW0NIM10pW0NAXTUoW09IXSlbQ0BIXTZbQ0BIXShbQ0BdMjM3KU83

>  <s_epik_cmdline>  (62) 
J2VwaWtfcHl0aG9uJywgJy1waHQnLCAnMi4wJywgJy1waCcsICc3LjAnLCAnLXRuJywgJzgnLCAnLW1hJywgJzIwMCcsICctaW1hZScsICc8aW5maWxlLm1hZT4nLCAnLW9tYWUnLCAnPG91dGZpbGUubWFlPic=

>  <r_lp_tautomer_probability>  (62) 
1

>  <r_epik_Ionization_Penalty>  (62) 
1.71309e-06

>  <r_epik_Ionization_Penalty_Charging>  (62) 
0

>  <r_epik_Ionization_Penalty_Neutral>  (62) 
1.71309e-06

>  <r_epik_State_Penalty>  (62) 
-0

>  <r_epik_Charging_Adjusted_Penalty>  (62) 
0

>  <i_epik_Tot_Q>  (62) 
0

>  <i_epik_Tot_abs_Q>  (62) 
0

>  <s_epik_Chemistry_Notes>  (62) 
This compound has an ester and may undergo hydrolysis at high or low pH.

>  <s_lp_Force_Field>  (62) 
OPLS3e

>  <r_lp_Energy>  (62) 
181.612

>  <b_lp_Chiralities_Consistent>  (62) 
1

>  <s_lp_Variant>  (62) 
21:0-1

>  <s_i_glide_gridfile>  (62) 
pfpi4k_grid

>  <i_i_glide_lignum>  (62) 
29

>  <i_i_glide_rotatable_bonds>  (62) 
7

>  <r_i_docking_score>  (62) 
-2.79215

>  <r_i_glide_ligand_efficiency>  (62) 
-0.0698038

>  <r_i_glide_ligand_efficiency_sa>  (62) 
-0.238726

>  <r_i_glide_ligand_efficiency_ln>  (62) 
-0.595484

>  <r_i_glide_gscore>  (62) 
-2.79215

>  <r_i_glide_lipo>  (62) 
-0.0219018

>  <r_i_glide_hbond>  (62) 
0

>  <r_i_glide_metal>  (62) 
-0

>  <r_i_glide_rewards>  (62) 
-0.5

>  <r_i_glide_evdw>  (62) 
-24.3082

>  <r_i_glide_ecoul>  (62) 
-6.94912

>  <r_i_glide_erotb>  (62) 
0

>  <r_i_glide_esite>  (62) 
-0.0124711

>  <r_i_glide_emodel>  (62) 
-40.0391

>  <r_i_glide_energy>  (62) 
-31.2574

>  <r_i_glide_einternal>  (62) 
6.29884

>  <r_i_glide_intrahb_reward>  (62) 
-0.5

>  <i_i_glide_confnum>  (62) 
1

>  <i_i_glide_posenum>  (62) 
6

>  <r_i_glide_eff_state_penalty>  (62) 
0

>  <ligand_id>  (62) 
21

>  <original_smiles>  (62) 
COC1CCC2(C)C(C1C)C(O)C13OC1C1C(C)(O)OC(=O)CC4C(O)C(C)C1(O)C(O)C1C(O)C2C3CC41C

>  <smiles>  (62) 
[H]OC1([H])C([H])(C([H])([H])[H])C2(O[H])C([H])(O[H])C3([H])C([H])(O[H])C4([H])C5([H])C([H])([H])C3(C([H])([H])[H])C1([H])C([H])([H])C(=O)OC(O[H])(C([H])([H])[H])C2([H])C1([H])OC15C([H])(O[H])C1([H])C([H])(C([H])([H])[H])C([H])(OC([H])([H])[H])C([H])([H])C([H])([H])C14C([H])([H])[H]

$$$$
21:0:2
     RDKit          3D

 86 92  0  0  1  0  0  0  0  0999 V2000
    3.3223   -0.7875   -2.9097 C   0  0  0  0  0  0  0  0  0  0  0  0
    4.4945   -0.9637   -2.1204 O   0  0  0  0  0  0  0  0  0  0  0  0
    4.2979   -1.8075   -0.9875 C   0  0  2  0  0  0  0  0  0  0  0  0
    3.6238   -1.0110    0.1485 C   0  0  0  0  0  0  0  0  0  0  0  0
    3.4385   -1.8693    1.4005 C   0  0  0  0  0  0  0  0  0  0  0  0
    4.7503   -2.4671    1.9773 C   0  0  2  0  0  0  0  0  0  0  0  0
    5.6135   -1.2812    2.4828 C   0  0  0  0  0  0  0  0  0  0  0  0
    5.5178   -3.1998    0.8059 C   0  0  2  0  0  0  0  0  0  0  0  0
    5.6656   -2.3224   -0.4863 C   0  0  1  0  0  0  0  0  0  0  0  0
    6.4869   -2.9863   -1.6114 C   0  0  0  0  0  0  0  0  0  0  0  0
    4.9611   -4.6313    0.4855 C   0  0  1  0  0  0  0  0  0  0  0  0
    6.0270   -5.4531    0.0916 O   0  0  0  0  0  0  0  0  0  0  0  0
    4.2257   -5.3146    1.6333 C   0  0  1  0  0  0  0  0  0  0  0  0
    2.8246   -5.1128    1.4942 O   0  0  0  0  0  0  0  0  0  0  0  0
    3.2214   -6.4635    1.4195 C   0  0  2  0  0  0  0  0  0  0  0  0
    2.4132   -7.4428    2.3461 C   0  0  1  0  0  0  0  0  0  0  0  0
    3.1300   -8.8801    2.4886 C   0  0  1  0  0  0  0  0  0  0  0  0
    2.1724  -10.1130    2.4911 C   0  0  0  0  0  0  0  0  0  0  0  0
    3.8946   -9.0910    1.3224 O   0  0  0  0  0  0  0  0  0  0  0  0
    4.0469   -8.8428    3.5618 O   0  0  0  0  0  0  0  0  0  0  0  0
    3.7717   -9.2593    4.8031 C   0  0  0  0  0  0  0  0  0  0  0  0
    3.2172  -10.3026    5.1422 O   0  0  0  0  0  0  0  0  0  0  0  0
    4.2121   -8.2266    5.8542 C   0  0  0  0  0  0  0  0  0  0  0  0
    3.3019   -6.9484    5.9801 C   0  0  2  0  0  0  0  0  0  0  0  0
    1.7857   -7.2947    6.0634 C   0  0  1  0  0  0  0  0  0  0  0  0
    1.0941   -6.3106    6.8033 O   0  0  0  0  0  0  0  0  0  0  0  0
    1.0436   -7.6868    4.7580 C   0  0  1  0  0  0  0  0  0  0  0  0
   -0.4557   -7.9394    5.0757 C   0  0  0  0  0  0  0  0  0  0  0  0
    1.3772   -6.8372    3.4704 C   0  0  2  0  0  0  0  0  0  0  0  0
    0.1590   -6.8383    2.7254 O   0  0  0  0  0  0  0  0  0  0  0  0
    1.4146   -5.3000    3.8543 C   0  0  1  0  0  0  0  0  0  0  0  0
    0.2103   -4.8702    4.4841 O   0  0  0  0  0  0  0  0  0  0  0  0
    2.6092   -4.6715    4.6690 C   0  0  2  0  0  0  0  0  0  0  0  0
    3.1345   -3.3591    3.9719 C   0  0  1  0  0  0  0  0  0  0  0  0
    3.2057   -2.3070    4.9121 O   0  0  0  0  0  0  0  0  0  0  0  0
    4.5137   -3.4210    3.2317 C   0  0  1  0  0  0  0  0  0  0  0  0
    4.8762   -4.8714    2.9318 C   0  0  1  0  0  0  0  0  0  0  0  0
    4.7989   -5.8338    4.1108 C   0  0  0  0  0  0  0  0  0  0  0  0
    3.7555   -5.6100    5.2327 C   0  0  2  0  0  0  0  0  0  0  0  0
    4.5070   -4.7967    6.3373 C   0  0  0  0  0  0  0  0  0  0  0  0
    3.5437   -0.1357   -3.7562 H   0  0  0  0  0  0  0  0  0  0  0  0
    2.5126   -0.3247   -2.3475 H   0  0  0  0  0  0  0  0  0  0  0  0
    2.9588   -1.7410   -3.3007 H   0  0  0  0  0  0  0  0  0  0  0  0
    3.6843   -2.6600   -1.2907 H   0  0  0  0  0  0  0  0  0  0  0  0
    4.2032   -0.1087    0.3626 H   0  0  0  0  0  0  0  0  0  0  0  0
    2.6339   -0.6589   -0.1297 H   0  0  0  0  0  0  0  0  0  0  0  0
    2.9455   -1.2562    2.1532 H   0  0  0  0  0  0  0  0  0  0  0  0
    2.7451   -2.6673    1.1458 H   0  0  0  0  0  0  0  0  0  0  0  0
    6.5807   -1.6363    2.8259 H   0  0  0  0  0  0  0  0  0  0  0  0
    5.1271   -0.7698    3.3159 H   0  0  0  0  0  0  0  0  0  0  0  0
    5.8240   -0.5359    1.7205 H   0  0  0  0  0  0  0  0  0  0  0  0
    6.5329   -3.3545    1.1803 H   0  0  0  0  0  0  0  0  0  0  0  0
    6.2505   -1.4442   -0.2117 H   0  0  0  0  0  0  0  0  0  0  0  0
    5.9447   -3.8157   -2.0711 H   0  0  0  0  0  0  0  0  0  0  0  0
    7.4397   -3.3633   -1.2362 H   0  0  0  0  0  0  0  0  0  0  0  0
    6.7081   -2.2631   -2.3939 H   0  0  0  0  0  0  0  0  0  0  0  0
    4.2596   -4.5912   -0.3419 H   0  0  0  0  0  0  0  0  0  0  0  0
    5.6651   -6.2250   -0.3345 H   0  0  0  0  0  0  0  0  0  0  0  0
    3.2697   -6.8465    0.4054 H   0  0  0  0  0  0  0  0  0  0  0  0
    1.7314   -7.7786    1.5628 H   0  0  0  0  0  0  0  0  0  0  0  0
    2.7605  -11.0326    2.5596 H   0  0  0  0  0  0  0  0  0  0  0  0
    1.6449  -10.1226    1.5314 H   0  0  0  0  0  0  0  0  0  0  0  0
    1.4137  -10.1453    3.2573 H   0  0  0  0  0  0  0  0  0  0  0  0
    4.1201  -10.0209    1.2650 H   0  0  0  0  0  0  0  0  0  0  0  0
    4.2028   -8.7465    6.8121 H   0  0  0  0  0  0  0  0  0  0  0  0
    5.2518   -7.9543    5.6822 H   0  0  0  0  0  0  0  0  0  0  0  0
    3.4796   -6.7272    7.0362 H   0  0  0  0  0  0  0  0  0  0  0  0
    1.7309   -8.1771    6.7019 H   0  0  0  0  0  0  0  0  0  0  0  0
    1.4041   -5.4450    6.5241 H   0  0  0  0  0  0  0  0  0  0  0  0
    1.3415   -8.6924    4.5677 H   0  0  0  0  0  0  0  0  0  0  0  0
   -1.0131   -7.0199    5.2532 H   0  0  0  0  0  0  0  0  0  0  0  0
   -0.5441   -8.5581    5.9673 H   0  0  0  0  0  0  0  0  0  0  0  0
   -0.9575   -8.4940    4.2800 H   0  0  0  0  0  0  0  0  0  0  0  0
   -0.0535   -7.7518    2.5484 H   0  0  0  0  0  0  0  0  0  0  0  0
    1.2587   -4.7509    2.9353 H   0  0  0  0  0  0  0  0  0  0  0  0
    0.0638   -5.4237    5.2514 H   0  0  0  0  0  0  0  0  0  0  0  0
    2.1485   -4.2868    5.5730 H   0  0  0  0  0  0  0  0  0  0  0  0
    2.3493   -3.0437    3.2926 H   0  0  0  0  0  0  0  0  0  0  0  0
    3.2940   -1.4855    4.4352 H   0  0  0  0  0  0  0  0  0  0  0  0
    5.2775   -3.1580    3.9633 H   0  0  0  0  0  0  0  0  0  0  0  0
    5.9486   -4.8787    2.7157 H   0  0  0  0  0  0  0  0  0  0  0  0
    4.7184   -6.7789    3.6398 H   0  0  0  0  0  0  0  0  0  0  0  0
    5.8007   -5.8530    4.5471 H   0  0  0  0  0  0  0  0  0  0  0  0
    4.9819   -3.8900    5.9663 H   0  0  0  0  0  0  0  0  0  0  0  0
    5.2969   -5.3961    6.8030 H   0  0  0  0  0  0  0  0  0  0  0  0
    3.8170   -4.4995    7.1311 H   0  0  0  0  0  0  0  0  0  0  0  0
  1  2  1  0
  1 41  1  0
  1 42  1  0
  1 43  1  0
  2  3  1  0
  3  9  1  0
  3  4  1  0
  3 44  1  6
  4  5  1  0
  4 45  1  0
  4 46  1  0
  5  6  1  0
  5 47  1  0
  5 48  1  0
  6 36  1  0
  6  7  1  1
  6  8  1  0
  7 49  1  0
  7 50  1  0
  7 51  1  0
  8  9  1  0
  8 11  1  0
  8 52  1  1
  9 10  1  0
  9 53  1  1
 10 54  1  0
 10 55  1  0
 10 56  1  0
 11 12  1  0
 11 13  1  0
 11 57  1  6
 12 58  1  0
 13 15  1  0
 13 37  1  0
 13 14  1  1
 14 15  1  0
 15 16  1  0
 15 59  1  6
 16 29  1  0
 16 17  1  0
 16 60  1  6
 17 18  1  0
 17 19  1  6
 17 20  1  0
 18 61  1  0
 18 62  1  0
 18 63  1  0
 19 64  1  0
 20 21  1  0
 21 22  2  0
 21 23  1  0
 23 24  1  0
 23 65  1  0
 23 66  1  0
 24 39  1  0
 24 25  1  0
 24 67  1  1
 25 26  1  0
 25 27  1  0
 25 68  1  1
 26 69  1  0
 27 28  1  0
 27 29  1  0
 27 70  1  6
 28 71  1  0
 28 72  1  0
 28 73  1  0
 29 30  1  6
 29 31  1  0
 30 74  1  0
 31 32  1  0
 31 33  1  0
 31 75  1  6
 32 76  1  0
 33 39  1  0
 33 34  1  0
 33 77  1  1
 34 35  1  0
 34 36  1  0
 34 78  1  6
 35 79  1  0
 36 37  1  0
 36 80  1  1
 37 38  1  0
 37 81  1  6
 38 39  1  0
 38 82  1  0
 38 83  1  0
 39 40  1  1
 40 84  1  0
 40 85  1  0
 40 86  1  0
M  END
>  <i_m_ct_stereo_status>  (63) 
1

>  <s_m_source_file>  (63) 
/var/tmp/pbs.5076255.sched01/tmpc_kifbv4/0gx9_4qhc.sdf

>  <i_m_source_file_index>  (63) 
29

>  <i_lp_mmshare_version>  (63) 
48012

>  <i_f3d_flags>  (63) 
0

>  <s_epik_input>  (63) 
W0NIM11PW0NASF0oW0NIMl1bQ0gyXTEpW0NASF0oW0NIM10pW0NASF0oW0NASF0yW09IXSlbQ0BdMShbQ0gzXSlbQ0BIXShbQ0BIXTNbQ0gyXTQpW0NASF0oW09IXSlbQ0BASF0oW0NAQEhdNVtPSF0pW0NAQF00KFtDSDNdKVtDQEhdKFtDSDJdQyg9TylPW0NAXTYoW0NIM10pW09IXSlbQ0BASF0oW09IXSlbQ0BASF0oW0NIM10pW0NAXTUoW09IXSlbQ0BIXTZbQ0BIXShbQ0BdMjM3KU83

>  <s_epik_cmdline>  (63) 
J2VwaWtfcHl0aG9uJywgJy1waHQnLCAnMi4wJywgJy1waCcsICc3LjAnLCAnLXRuJywgJzgnLCAnLW1hJywgJzIwMCcsICctaW1hZScsICc8aW5maWxlLm1hZT4nLCAnLW9tYWUnLCAnPG91dGZpbGUubWFlPic=

>  <r_lp_tautomer_probability>  (63) 
1

>  <r_epik_Ionization_Penalty>  (63) 
1.71309e-06

>  <r_epik_Ionization_Penalty_Charging>  (63) 
0

>  <r_epik_Ionization_Penalty_Neutral>  (63) 
1.71309e-06

>  <r_epik_State_Penalty>  (63) 
-0

>  <r_epik_Charging_Adjusted_Penalty>  (63) 
0

>  <i_epik_Tot_Q>  (63) 
0

>  <i_epik_Tot_abs_Q>  (63) 
0

>  <s_epik_Chemistry_Notes>  (63) 
This compound has an ester and may undergo hydrolysis at high or low pH.

>  <s_lp_Force_Field>  (63) 
OPLS3e

>  <r_lp_Energy>  (63) 
181.612

>  <b_lp_Chiralities_Consistent>  (63) 
1

>  <s_lp_Variant>  (63) 
21:0-1

>  <s_i_glide_gridfile>  (63) 
pfpi4k_grid

>  <i_i_glide_lignum>  (63) 
29

>  <i_i_glide_rotatable_bonds>  (63) 
7

>  <r_i_docking_score>  (63) 
-2.37703

>  <r_i_glide_ligand_efficiency>  (63) 
-0.0594257

>  <r_i_glide_ligand_efficiency_sa>  (63) 
-0.203233

>  <r_i_glide_ligand_efficiency_ln>  (63) 
-0.50695

>  <r_i_glide_gscore>  (63) 
-2.37703

>  <r_i_glide_lipo>  (63) 
-0.447445

>  <r_i_glide_hbond>  (63) 
0

>  <r_i_glide_metal>  (63) 
-0

>  <r_i_glide_rewards>  (63) 
0

>  <r_i_glide_evdw>  (63) 
-25.345

>  <r_i_glide_ecoul>  (63) 
-4.28444

>  <r_i_glide_erotb>  (63) 
0

>  <r_i_glide_esite>  (63) 
-0.0196646

>  <r_i_glide_emodel>  (63) 
-34.7604

>  <r_i_glide_energy>  (63) 
-29.6294

>  <r_i_glide_einternal>  (63) 
1.20872

>  <r_i_glide_intrahb_reward>  (63) 
-0

>  <i_i_glide_confnum>  (63) 
1

>  <i_i_glide_posenum>  (63) 
36

>  <r_i_glide_eff_state_penalty>  (63) 
0

>  <ligand_id>  (63) 
21

>  <original_smiles>  (63) 
COC1CCC2(C)C(C1C)C(O)C13OC1C1C(C)(O)OC(=O)CC4C(O)C(C)C1(O)C(O)C1C(O)C2C3CC41C

>  <smiles>  (63) 
[H]OC1([H])C([H])(C([H])([H])[H])C2(O[H])C([H])(O[H])C3([H])C([H])(O[H])C4([H])C5([H])C([H])([H])C3(C([H])([H])[H])C1([H])C([H])([H])C(=O)OC(O[H])(C([H])([H])[H])C2([H])C1([H])OC15C([H])(O[H])C1([H])C([H])(C([H])([H])[H])C([H])(OC([H])([H])[H])C([H])([H])C([H])([H])C14C([H])([H])[H]

$$$$
22:0:0
     RDKit          3D

 66 69  0  0  1  0  0  0  0  0999 V2000
    2.7848   -2.5647    7.6456 C   0  0  0  0  0  0  0  0  0  0  0  0
    3.7354   -2.5068    6.6977 C   0  0  0  0  0  0  0  0  0  0  0  0
    4.1200   -3.7160    5.8612 C   0  0  0  0  0  0  0  0  0  0  0  0
    3.9875   -3.4289    4.3438 C   0  0  2  0  0  0  0  0  0  0  0  0
    4.4705   -4.6139    3.4834 C   0  0  0  0  0  0  0  0  0  0  0  0
    4.5951   -5.7164    4.0156 O   0  0  0  0  0  0  0  0  0  0  0  0
    4.6915   -4.4147    1.9397 C   0  0  1  0  0  0  0  0  0  0  0  0
    5.6888   -5.5394    1.4907 C   0  0  0  0  0  0  0  0  0  0  0  0
    3.3373   -4.6465    1.2022 C   0  0  1  0  0  0  0  0  0  0  0  0
    2.2473   -3.9435    1.7694 O   0  0  0  0  0  0  0  0  0  0  0  0
    3.3816   -4.2715   -0.2927 C   0  0  0  0  0  0  0  0  0  0  0  0
    3.8702   -2.8308   -0.6327 C   0  0  2  0  0  0  0  0  0  0  0  0
    3.7930   -2.5420   -2.1964 C   0  0  0  0  0  0  0  0  0  0  0  0
    2.4407   -3.0184   -2.8016 C   0  0  0  0  0  0  0  0  0  0  0  0
    3.8692   -1.0386   -2.5268 C   0  0  0  0  0  0  0  0  0  0  0  0
    4.9653   -3.2386   -2.9113 C   0  0  0  0  0  0  0  0  0  0  0  0
    4.8170   -3.8446   -3.9726 O   0  0  0  0  0  0  0  0  0  0  0  0
    6.3520   -3.0757   -2.2883 C   0  0  0  0  0  0  0  0  0  0  0  0
    6.3550   -3.3757   -0.7779 C   0  0  0  0  0  0  0  0  0  0  0  0
    5.2856   -2.5843    0.0354 C   0  0  1  0  0  0  0  0  0  0  0  0
    5.7374   -1.0966   -0.0360 C   0  0  0  0  0  0  0  0  0  0  0  0
    5.2611   -2.9790    1.5815 C   0  0  1  0  0  0  0  0  0  0  0  0
    4.5794   -1.8717    2.4524 C   0  0  0  0  0  0  0  0  0  0  0  0
    4.7201   -2.1354    3.9557 C   0  0  1  0  0  0  0  0  0  0  0  0
    4.2855   -0.9220    4.8274 C   0  0  1  0  0  0  0  0  0  0  0  0
    2.8412   -0.4497    4.5428 C   0  0  0  0  0  0  0  0  0  0  0  0
    4.5178   -1.2503    6.3242 C   0  0  1  0  0  0  0  0  0  0  0  0
    4.3099   -0.0456    7.2666 C   0  0  0  0  0  0  0  0  0  0  0  0
    2.5013   -1.7006    8.2295 H   0  0  0  0  0  0  0  0  0  0  0  0
    2.2631   -3.4896    7.8486 H   0  0  0  0  0  0  0  0  0  0  0  0
    5.1464   -3.9855    6.1142 H   0  0  0  0  0  0  0  0  0  0  0  0
    3.4971   -4.5651    6.1442 H   0  0  0  0  0  0  0  0  0  0  0  0
    2.9268   -3.3091    4.1314 H   0  0  0  0  0  0  0  0  0  0  0  0
    5.4845   -5.9239    0.4955 H   0  0  0  0  0  0  0  0  0  0  0  0
    5.6584   -6.4509    2.0851 H   0  0  0  0  0  0  0  0  0  0  0  0
    6.7246   -5.2003    1.5168 H   0  0  0  0  0  0  0  0  0  0  0  0
    3.0802   -5.7052    1.2791 H   0  0  0  0  0  0  0  0  0  0  0  0
    2.4222   -3.0168    1.6868 H   0  0  0  0  0  0  0  0  0  0  0  0
    4.0048   -4.9962   -0.8110 H   0  0  0  0  0  0  0  0  0  0  0  0
    2.3797   -4.4457   -0.6819 H   0  0  0  0  0  0  0  0  0  0  0  0
    3.1613   -2.1484   -0.1600 H   0  0  0  0  0  0  0  0  0  0  0  0
    1.6005   -2.6614   -2.2041 H   0  0  0  0  0  0  0  0  0  0  0  0
    2.3592   -4.0962   -2.8693 H   0  0  0  0  0  0  0  0  0  0  0  0
    2.2974   -2.6568   -3.8215 H   0  0  0  0  0  0  0  0  0  0  0  0
    3.3678   -0.4955   -1.7399 H   0  0  0  0  0  0  0  0  0  0  0  0
    3.3656   -0.7837   -3.4605 H   0  0  0  0  0  0  0  0  0  0  0  0
    4.8766   -0.6391   -2.6212 H   0  0  0  0  0  0  0  0  0  0  0  0
    7.0291   -3.7542   -2.8016 H   0  0  0  0  0  0  0  0  0  0  0  0
    6.7271   -2.0808   -2.4762 H   0  0  0  0  0  0  0  0  0  0  0  0
    6.1936   -4.4399   -0.7174 H   0  0  0  0  0  0  0  0  0  0  0  0
    7.3564   -3.2075   -0.3729 H   0  0  0  0  0  0  0  0  0  0  0  0
    6.5262   -0.8894    0.6923 H   0  0  0  0  0  0  0  0  0  0  0  0
    4.9116   -0.4056    0.1402 H   0  0  0  0  0  0  0  0  0  0  0  0
    6.1740   -0.8135   -0.9839 H   0  0  0  0  0  0  0  0  0  0  0  0
    6.3061   -2.9753    1.8978 H   0  0  0  0  0  0  0  0  0  0  0  0
    5.0087   -0.8825    2.2938 H   0  0  0  0  0  0  0  0  0  0  0  0
    3.5276   -1.7823    2.1802 H   0  0  0  0  0  0  0  0  0  0  0  0
    5.7813   -2.2839    4.1494 H   0  0  0  0  0  0  0  0  0  0  0  0
    4.9448   -0.0890    4.5752 H   0  0  0  0  0  0  0  0  0  0  0  0
    2.1103   -1.2347    4.7421 H   0  0  0  0  0  0  0  0  0  0  0  0
    2.7202   -0.1327    3.5068 H   0  0  0  0  0  0  0  0  0  0  0  0
    2.5753    0.4118    5.1571 H   0  0  0  0  0  0  0  0  0  0  0  0
    5.5684   -1.5251    6.4324 H   0  0  0  0  0  0  0  0  0  0  0  0
    4.6190   -0.2936    8.2823 H   0  0  0  0  0  0  0  0  0  0  0  0
    3.2727    0.2833    7.3078 H   0  0  0  0  0  0  0  0  0  0  0  0
    4.9121    0.8034    6.9448 H   0  0  0  0  0  0  0  0  0  0  0  0
  1  2  2  0
  1 29  1  0
  1 30  1  0
  2 27  1  0
  2  3  1  0
  3  4  1  0
  3 31  1  0
  3 32  1  0
  4 24  1  0
  4  5  1  0
  4 33  1  1
  5  6  2  0
  5  7  1  0
  7 22  1  0
  7  8  1  6
  7  9  1  0
  8 34  1  0
  8 35  1  0
  8 36  1  0
  9 10  1  0
  9 11  1  0
  9 37  1  6
 10 38  1  0
 11 12  1  0
 11 39  1  0
 11 40  1  0
 12 20  1  0
 12 13  1  0
 12 41  1  1
 13 14  1  0
 13 15  1  0
 13 16  1  0
 14 42  1  0
 14 43  1  0
 14 44  1  0
 15 45  1  0
 15 46  1  0
 15 47  1  0
 16 17  2  0
 16 18  1  0
 18 19  1  0
 18 48  1  0
 18 49  1  0
 19 20  1  0
 19 50  1  0
 19 51  1  0
 20 21  1  1
 20 22  1  0
 21 52  1  0
 21 53  1  0
 21 54  1  0
 22 23  1  0
 22 55  1  1
 23 24  1  0
 23 56  1  0
 23 57  1  0
 24 25  1  0
 24 58  1  6
 25 26  1  0
 25 27  1  0
 25 59  1  6
 26 60  1  0
 26 61  1  0
 26 62  1  0
 27 28  1  0
 27 63  1  6
 28 64  1  0
 28 65  1  0
 28 66  1  0
M  END
>  <i_m_ct_stereo_status>  (64) 
1

>  <s_m_source_file>  (64) 
/var/tmp/pbs.5076255.sched01/tmpc_kifbv4/0gx9_4qhc.sdf

>  <i_m_source_file_index>  (64) 
30

>  <i_lp_mmshare_version>  (64) 
48012

>  <i_f3d_flags>  (64) 
0

>  <s_epik_input>  (64) 
W0NIM11bQ0BIXTFbQ0BASF0oW0NIM10pQyg9W0NIMl0pW0NIMl1bQ0BIXShDMj1PKVtDQEhdMVtDSDJdW0NAQEhdKFtDQEBdMjNbQ0gzXSlbQ0BdNChbQ0gzXSlbQ0BIXShbQ0gyXVtDQEBIXTNbT0hdKUMoW0NIM10pKFtDSDNdKUMoPU8pW0NIMl1bQ0gyXTQ=

>  <s_epik_cmdline>  (64) 
J2VwaWtfcHl0aG9uJywgJy1waHQnLCAnMi4wJywgJy1waCcsICc3LjAnLCAnLXRuJywgJzgnLCAnLW1hJywgJzIwMCcsICctaW1hZScsICc8aW5maWxlLm1hZT4nLCAnLW9tYWUnLCAnPG91dGZpbGUubWFlPic=

>  <r_lp_tautomer_probability>  (64) 
1

>  <r_epik_Ionization_Penalty>  (64) 
9.99626e-08

>  <r_epik_Ionization_Penalty_Charging>  (64) 
0

>  <r_epik_Ionization_Penalty_Neutral>  (64) 
9.99626e-08

>  <r_epik_State_Penalty>  (64) 
-0

>  <r_epik_Charging_Adjusted_Penalty>  (64) 
0

>  <i_epik_Tot_Q>  (64) 
0

>  <i_epik_Tot_abs_Q>  (64) 
0

>  <s_lp_Force_Field>  (64) 
OPLS3e

>  <r_lp_Energy>  (64) 
50.7625

>  <b_lp_Chiralities_Consistent>  (64) 
1

>  <s_lp_Variant>  (64) 
22:0-1

>  <s_i_glide_gridfile>  (64) 
pfpi4k_grid

>  <i_i_glide_lignum>  (64) 
30

>  <i_i_glide_rotatable_bonds>  (64) 
1

>  <r_i_docking_score>  (64) 
-3.09672

>  <r_i_glide_ligand_efficiency>  (64) 
-0.110597

>  <r_i_glide_ligand_efficiency_sa>  (64) 
-0.335838

>  <r_i_glide_ligand_efficiency_ln>  (64) 
-0.714814

>  <r_i_glide_gscore>  (64) 
-3.09672

>  <r_i_glide_lipo>  (64) 
-0.52492

>  <r_i_glide_hbond>  (64) 
0

>  <r_i_glide_metal>  (64) 
-0

>  <r_i_glide_rewards>  (64) 
-1.03423

>  <r_i_glide_evdw>  (64) 
-26.611

>  <r_i_glide_ecoul>  (64) 
-1.38017

>  <r_i_glide_erotb>  (64) 
0

>  <r_i_glide_esite>  (64) 
0

>  <r_i_glide_emodel>  (64) 
-33.7458

>  <r_i_glide_energy>  (64) 
-27.9912

>  <r_i_glide_einternal>  (64) 
0.00908926

>  <r_i_glide_intrahb_reward>  (64) 
-0

>  <i_i_glide_confnum>  (64) 
2

>  <i_i_glide_posenum>  (64) 
4

>  <r_i_glide_eff_state_penalty>  (64) 
0

>  <ligand_id>  (64) 
22

>  <original_smiles>  (64) 
C=C1CC2C(=O)C3(C)C(O)CC4C(C)(C)C(=O)CCC4(C)C3CC2C(C)C1C

>  <smiles>  (64) 
[H]OC1([H])C([H])([H])C2([H])C(C([H])([H])[H])(C([H])([H])[H])C(=O)C([H])([H])C([H])([H])C2(C([H])([H])[H])C2([H])C([H])([H])C3([H])C([H])(C(=O)C12C([H])([H])[H])C([H])([H])C(=C([H])[H])C([H])(C([H])([H])[H])C3([H])C([H])([H])[H]

$$$$
22:0:1
     RDKit          3D

 66 69  0  0  1  0  0  0  0  0999 V2000
   -1.7806    2.2167    6.0126 C   0  0  0  0  0  0  0  0  0  0  0  0
   -0.5567    2.1792    5.4533 C   0  0  0  0  0  0  0  0  0  0  0  0
    0.5538    1.2925    5.9928 C   0  0  0  0  0  0  0  0  0  0  0  0
    1.1163    0.3467    4.8989 C   0  0  2  0  0  0  0  0  0  0  0  0
    2.3086   -0.4892    5.4047 C   0  0  0  0  0  0  0  0  0  0  0  0
    2.4903   -0.5793    6.6193 O   0  0  0  0  0  0  0  0  0  0  0  0
    3.1944   -1.2852    4.3781 C   0  0  1  0  0  0  0  0  0  0  0  0
    4.5796   -1.5115    5.0792 C   0  0  0  0  0  0  0  0  0  0  0  0
    2.5432   -2.6802    4.1223 C   0  0  1  0  0  0  0  0  0  0  0  0
    1.1588   -2.6336    3.8134 O   0  0  0  0  0  0  0  0  0  0  0  0
    3.2194   -3.4711    2.9833 C   0  0  0  0  0  0  0  0  0  0  0  0
    3.3261   -2.7276    1.6129 C   0  0  2  0  0  0  0  0  0  0  0  0
    3.9383   -3.6569    0.4822 C   0  0  0  0  0  0  0  0  0  0  0  0
    3.3118   -5.0789    0.5357 C   0  0  0  0  0  0  0  0  0  0  0  0
    3.6461   -3.1247   -0.9467 C   0  0  0  0  0  0  0  0  0  0  0  0
    5.4704   -3.7605    0.6655 C   0  0  0  0  0  0  0  0  0  0  0  0
    6.0717   -4.8316    0.5732 O   0  0  0  0  0  0  0  0  0  0  0  0
    6.2417   -2.4667    0.9190 C   0  0  0  0  0  0  0  0  0  0  0  0
    5.5834   -1.6148    2.0251 C   0  0  0  0  0  0  0  0  0  0  0  0
    4.0608   -1.3427    1.8141 C   0  0  1  0  0  0  0  0  0  0  0  0
    3.9926   -0.4367    0.5546 C   0  0  0  0  0  0  0  0  0  0  0  0
    3.3832   -0.5187    3.0030 C   0  0  1  0  0  0  0  0  0  0  0  0
    2.0466    0.1681    2.5589 C   0  0  0  0  0  0  0  0  0  0  0  0
    1.4915    1.1228    3.6259 C   0  0  1  0  0  0  0  0  0  0  0  0
    0.3188    2.0030    3.1069 C   0  0  1  0  0  0  0  0  0  0  0  0
   -0.8534    1.1843    2.5230 C   0  0  0  0  0  0  0  0  0  0  0  0
   -0.1385    2.9769    4.2222 C   0  0  1  0  0  0  0  0  0  0  0  0
   -1.1585    4.0358    3.7530 C   0  0  0  0  0  0  0  0  0  0  0  0
   -2.5741    2.8323    5.6145 H   0  0  0  0  0  0  0  0  0  0  0  0
   -2.0092    1.6169    6.8812 H   0  0  0  0  0  0  0  0  0  0  0  0
    1.3412    1.9414    6.3803 H   0  0  0  0  0  0  0  0  0  0  0  0
    0.1819    0.7167    6.8405 H   0  0  0  0  0  0  0  0  0  0  0  0
    0.3299   -0.3636    4.6528 H   0  0  0  0  0  0  0  0  0  0  0  0
    5.0352   -2.4651    4.8313 H   0  0  0  0  0  0  0  0  0  0  0  0
    4.5481   -1.5592    6.1669 H   0  0  0  0  0  0  0  0  0  0  0  0
    5.2938   -0.7238    4.8370 H   0  0  0  0  0  0  0  0  0  0  0  0
    2.6232   -3.2692    5.0384 H   0  0  0  0  0  0  0  0  0  0  0  0
    1.0487   -2.1351    3.0181 H   0  0  0  0  0  0  0  0  0  0  0  0
    4.2082   -3.7953    3.3027 H   0  0  0  0  0  0  0  0  0  0  0  0
    2.6487   -4.3932    2.8884 H   0  0  0  0  0  0  0  0  0  0  0  0
    2.3032   -2.5102    1.3023 H   0  0  0  0  0  0  0  0  0  0  0  0
    2.2216   -5.0317    0.5583 H   0  0  0  0  0  0  0  0  0  0  0  0
    3.6494   -5.6475    1.4018 H   0  0  0  0  0  0  0  0  0  0  0  0
    3.5962   -5.6852   -0.3214 H   0  0  0  0  0  0  0  0  0  0  0  0
    2.6668   -2.6510   -1.0104 H   0  0  0  0  0  0  0  0  0  0  0  0
    3.6592   -3.9212   -1.6899 H   0  0  0  0  0  0  0  0  0  0  0  0
    4.3872   -2.4131   -1.3023 H   0  0  0  0  0  0  0  0  0  0  0  0
    7.2607   -2.7217    1.2071 H   0  0  0  0  0  0  0  0  0  0  0  0
    6.3267   -1.9254   -0.0200 H   0  0  0  0  0  0  0  0  0  0  0  0
    5.7663   -2.1740    2.9315 H   0  0  0  0  0  0  0  0  0  0  0  0
    6.1290   -0.6757    2.1439 H   0  0  0  0  0  0  0  0  0  0  0  0
    4.1886    0.6065    0.8102 H   0  0  0  0  0  0  0  0  0  0  0  0
    3.0124   -0.4976    0.0824 H   0  0  0  0  0  0  0  0  0  0  0  0
    4.7273   -0.6544   -0.2141 H   0  0  0  0  0  0  0  0  0  0  0  0
    4.0621    0.3129    3.2024 H   0  0  0  0  0  0  0  0  0  0  0  0
    2.1573    0.7744    1.6610 H   0  0  0  0  0  0  0  0  0  0  0  0
    1.3037   -0.5882    2.3081 H   0  0  0  0  0  0  0  0  0  0  0  0
    2.2987    1.8123    3.8770 H   0  0  0  0  0  0  0  0  0  0  0  0
    0.7145    2.6062    2.2882 H   0  0  0  0  0  0  0  0  0  0  0  0
   -1.2983    0.5210    3.2655 H   0  0  0  0  0  0  0  0  0  0  0  0
   -0.5296    0.5784    1.6774 H   0  0  0  0  0  0  0  0  0  0  0  0
   -1.6442    1.8324    2.1436 H   0  0  0  0  0  0  0  0  0  0  0  0
    0.7416    3.5432    4.5304 H   0  0  0  0  0  0  0  0  0  0  0  0
   -1.3369    4.7668    4.5414 H   0  0  0  0  0  0  0  0  0  0  0  0
   -2.1177    3.6029    3.4744 H   0  0  0  0  0  0  0  0  0  0  0  0
   -0.7793    4.5754    2.8841 H   0  0  0  0  0  0  0  0  0  0  0  0
  1  2  2  0
  1 29  1  0
  1 30  1  0
  2 27  1  0
  2  3  1  0
  3  4  1  0
  3 31  1  0
  3 32  1  0
  4 24  1  0
  4  5  1  0
  4 33  1  6
  5  6  2  0
  5  7  1  0
  7 22  1  0
  7  8  1  1
  7  9  1  0
  8 34  1  0
  8 35  1  0
  8 36  1  0
  9 10  1  0
  9 11  1  0
  9 37  1  1
 10 38  1  0
 11 12  1  0
 11 39  1  0
 11 40  1  0
 12 20  1  0
 12 13  1  0
 12 41  1  6
 13 14  1  0
 13 15  1  0
 13 16  1  0
 14 42  1  0
 14 43  1  0
 14 44  1  0
 15 45  1  0
 15 46  1  0
 15 47  1  0
 16 17  2  0
 16 18  1  0
 18 19  1  0
 18 48  1  0
 18 49  1  0
 19 20  1  0
 19 50  1  0
 19 51  1  0
 20 21  1  6
 20 22  1  0
 21 52  1  0
 21 53  1  0
 21 54  1  0
 22 23  1  0
 22 55  1  1
 23 24  1  0
 23 56  1  0
 23 57  1  0
 24 25  1  0
 24 58  1  1
 25 26  1  0
 25 27  1  0
 25 59  1  6
 26 60  1  0
 26 61  1  0
 26 62  1  0
 27 28  1  0
 27 63  1  1
 28 64  1  0
 28 65  1  0
 28 66  1  0
M  END
>  <i_m_ct_stereo_status>  (65) 
1

>  <s_m_source_file>  (65) 
/var/tmp/pbs.5076255.sched01/tmpc_kifbv4/0gx9_4qhc.sdf

>  <i_m_source_file_index>  (65) 
30

>  <i_lp_mmshare_version>  (65) 
48012

>  <i_f3d_flags>  (65) 
0

>  <s_epik_input>  (65) 
W0NIM11bQ0BIXTFbQ0BASF0oW0NIM10pQyg9W0NIMl0pW0NIMl1bQ0BIXShDMj1PKVtDQEhdMVtDSDJdW0NAQEhdKFtDQEBdMjNbQ0gzXSlbQ0BdNChbQ0gzXSlbQ0BIXShbQ0gyXVtDQEBIXTNbT0hdKUMoW0NIM10pKFtDSDNdKUMoPU8pW0NIMl1bQ0gyXTQ=

>  <s_epik_cmdline>  (65) 
J2VwaWtfcHl0aG9uJywgJy1waHQnLCAnMi4wJywgJy1waCcsICc3LjAnLCAnLXRuJywgJzgnLCAnLW1hJywgJzIwMCcsICctaW1hZScsICc8aW5maWxlLm1hZT4nLCAnLW9tYWUnLCAnPG91dGZpbGUubWFlPic=

>  <r_lp_tautomer_probability>  (65) 
1

>  <r_epik_Ionization_Penalty>  (65) 
9.99626e-08

>  <r_epik_Ionization_Penalty_Charging>  (65) 
0

>  <r_epik_Ionization_Penalty_Neutral>  (65) 
9.99626e-08

>  <r_epik_State_Penalty>  (65) 
-0

>  <r_epik_Charging_Adjusted_Penalty>  (65) 
0

>  <i_epik_Tot_Q>  (65) 
0

>  <i_epik_Tot_abs_Q>  (65) 
0

>  <s_lp_Force_Field>  (65) 
OPLS3e

>  <r_lp_Energy>  (65) 
50.7625

>  <b_lp_Chiralities_Consistent>  (65) 
1

>  <s_lp_Variant>  (65) 
22:0-1

>  <s_i_glide_gridfile>  (65) 
pfpi4k_grid

>  <i_i_glide_lignum>  (65) 
30

>  <i_i_glide_rotatable_bonds>  (65) 
1

>  <r_i_docking_score>  (65) 
-2.79845

>  <r_i_glide_ligand_efficiency>  (65) 
-0.0999445

>  <r_i_glide_ligand_efficiency_sa>  (65) 
-0.30349

>  <r_i_glide_ligand_efficiency_ln>  (65) 
-0.645963

>  <r_i_glide_gscore>  (65) 
-2.79845

>  <r_i_glide_lipo>  (65) 
-0.313103

>  <r_i_glide_hbond>  (65) 
0

>  <r_i_glide_metal>  (65) 
-0

>  <r_i_glide_rewards>  (65) 
-0.849092

>  <r_i_glide_evdw>  (65) 
-29.0917

>  <r_i_glide_ecoul>  (65) 
-1.2111

>  <r_i_glide_erotb>  (65) 
0

>  <r_i_glide_esite>  (65) 
0

>  <r_i_glide_emodel>  (65) 
-35.5342

>  <r_i_glide_energy>  (65) 
-30.3028

>  <r_i_glide_einternal>  (65) 
0.00443035

>  <r_i_glide_intrahb_reward>  (65) 
-0

>  <i_i_glide_confnum>  (65) 
2

>  <i_i_glide_posenum>  (65) 
33

>  <r_i_glide_eff_state_penalty>  (65) 
0

>  <ligand_id>  (65) 
22

>  <original_smiles>  (65) 
C=C1CC2C(=O)C3(C)C(O)CC4C(C)(C)C(=O)CCC4(C)C3CC2C(C)C1C

>  <smiles>  (65) 
[H]OC1([H])C([H])([H])C2([H])C(C([H])([H])[H])(C([H])([H])[H])C(=O)C([H])([H])C([H])([H])C2(C([H])([H])[H])C2([H])C([H])([H])C3([H])C([H])(C(=O)C12C([H])([H])[H])C([H])([H])C(=C([H])[H])C([H])(C([H])([H])[H])C3([H])C([H])([H])[H]

$$$$
22:0:2
     RDKit          3D

 66 69  0  0  1  0  0  0  0  0999 V2000
    6.5677   -3.0666   -1.5314 C   0  0  0  0  0  0  0  0  0  0  0  0
    5.3339   -3.1405   -1.0000 C   0  0  0  0  0  0  0  0  0  0  0  0
    4.9067   -4.2748   -0.0807 C   0  0  0  0  0  0  0  0  0  0  0  0
    4.3883   -3.7449    1.2821 C   0  0  2  0  0  0  0  0  0  0  0  0
    3.8563   -4.8721    2.1893 C   0  0  0  0  0  0  0  0  0  0  0  0
    4.1658   -6.0332    1.9241 O   0  0  0  0  0  0  0  0  0  0  0  0
    3.0367   -4.5129    3.4833 C   0  0  1  0  0  0  0  0  0  0  0  0
    2.1823   -5.7805    3.8256 C   0  0  0  0  0  0  0  0  0  0  0  0
    4.0253   -4.2635    4.6633 C   0  0  1  0  0  0  0  0  0  0  0  0
    5.0655   -3.3521    4.3579 O   0  0  0  0  0  0  0  0  0  0  0  0
    3.3468   -3.7082    5.9316 C   0  0  0  0  0  0  0  0  0  0  0  0
    2.4999   -2.4096    5.7323 C   0  0  2  0  0  0  0  0  0  0  0  0
    1.9235   -1.8634    7.1079 C   0  0  0  0  0  0  0  0  0  0  0  0
    3.0101   -1.8946    8.2186 C   0  0  0  0  0  0  0  0  0  0  0  0
    1.4708   -0.3824    7.0153 C   0  0  0  0  0  0  0  0  0  0  0  0
    0.7103   -2.7194    7.5448 C   0  0  0  0  0  0  0  0  0  0  0  0
    0.5394   -3.0784    8.7105 O   0  0  0  0  0  0  0  0  0  0  0  0
   -0.3425   -3.0438    6.4915 C   0  0  0  0  0  0  0  0  0  0  0  0
    0.2998   -3.5601    5.1937 C   0  0  0  0  0  0  0  0  0  0  0  0
    1.4203   -2.6469    4.6029 C   0  0  1  0  0  0  0  0  0  0  0  0
    0.6925   -1.3378    4.1700 C   0  0  0  0  0  0  0  0  0  0  0  0
    2.1074   -3.2433    3.2895 C   0  0  1  0  0  0  0  0  0  0  0  0
    2.8391   -2.1385    2.4549 C   0  0  0  0  0  0  0  0  0  0  0  0
    3.3280   -2.6495    1.0918 C   0  0  1  0  0  0  0  0  0  0  0  0
    3.8272   -1.5105    0.1575 C   0  0  1  0  0  0  0  0  0  0  0  0
    4.9399   -0.6448    0.7869 C   0  0  0  0  0  0  0  0  0  0  0  0
    4.2377   -2.1051   -1.2139 C   0  0  1  0  0  0  0  0  0  0  0  0
    4.5450   -1.0456   -2.2914 C   0  0  0  0  0  0  0  0  0  0  0  0
    6.8753   -2.2660   -2.1861 H   0  0  0  0  0  0  0  0  0  0  0  0
    7.2975   -3.8341   -1.3178 H   0  0  0  0  0  0  0  0  0  0  0  0
    4.1281   -4.8426   -0.5928 H   0  0  0  0  0  0  0  0  0  0  0  0
    5.7415   -4.9606    0.0662 H   0  0  0  0  0  0  0  0  0  0  0  0
    5.2425   -3.3114    1.7971 H   0  0  0  0  0  0  0  0  0  0  0  0
    2.0668   -5.9414    4.8929 H   0  0  0  0  0  0  0  0  0  0  0  0
    2.6122   -6.7293    3.5072 H   0  0  0  0  0  0  0  0  0  0  0  0
    1.1888   -5.7357    3.3797 H   0  0  0  0  0  0  0  0  0  0  0  0
    4.5107   -5.2089    4.9181 H   0  0  0  0  0  0  0  0  0  0  0  0
    5.6113   -3.7316    3.6864 H   0  0  0  0  0  0  0  0  0  0  0  0
    2.7364   -4.4850    6.3865 H   0  0  0  0  0  0  0  0  0  0  0  0
    4.1538   -3.5405    6.6437 H   0  0  0  0  0  0  0  0  0  0  0  0
    3.1923   -1.6495    5.3656 H   0  0  0  0  0  0  0  0  0  0  0  0
    3.9355   -1.4288    7.8749 H   0  0  0  0  0  0  0  0  0  0  0  0
    3.2396   -2.9097    8.5407 H   0  0  0  0  0  0  0  0  0  0  0  0
    2.6908   -1.3661    9.1178 H   0  0  0  0  0  0  0  0  0  0  0  0
    2.1102    0.1926    6.3472 H   0  0  0  0  0  0  0  0  0  0  0  0
    1.5009    0.1135    7.9851 H   0  0  0  0  0  0  0  0  0  0  0  0
    0.4440   -0.2640    6.6800 H   0  0  0  0  0  0  0  0  0  0  0  0
   -1.0194   -3.7965    6.8925 H   0  0  0  0  0  0  0  0  0  0  0  0
   -0.9472   -2.1570    6.3226 H   0  0  0  0  0  0  0  0  0  0  0  0
    0.6709   -4.5424    5.4488 H   0  0  0  0  0  0  0  0  0  0  0  0
   -0.4866   -3.7222    4.4618 H   0  0  0  0  0  0  0  0  0  0  0  0
    0.2225   -1.4583    3.1922 H   0  0  0  0  0  0  0  0  0  0  0  0
    1.3746   -0.4879    4.1156 H   0  0  0  0  0  0  0  0  0  0  0  0
   -0.1281   -1.0367    4.8130 H   0  0  0  0  0  0  0  0  0  0  0  0
    1.2837   -3.5621    2.6513 H   0  0  0  0  0  0  0  0  0  0  0  0
    2.2028   -1.2840    2.2278 H   0  0  0  0  0  0  0  0  0  0  0  0
    3.6755   -1.7388    3.0294 H   0  0  0  0  0  0  0  0  0  0  0  0
    2.4655   -3.0949    0.5949 H   0  0  0  0  0  0  0  0  0  0  0  0
    2.9841   -0.8441   -0.0240 H   0  0  0  0  0  0  0  0  0  0  0  0
    5.8242   -1.2292    1.0428 H   0  0  0  0  0  0  0  0  0  0  0  0
    4.5897   -0.1477    1.6905 H   0  0  0  0  0  0  0  0  0  0  0  0
    5.2440    0.1419    0.1060 H   0  0  0  0  0  0  0  0  0  0  0  0
    3.3787   -2.6622   -1.5937 H   0  0  0  0  0  0  0  0  0  0  0  0
    4.7008   -1.5140   -3.2633 H   0  0  0  0  0  0  0  0  0  0  0  0
    5.4273   -0.4546   -2.0589 H   0  0  0  0  0  0  0  0  0  0  0  0
    3.7128   -0.3511   -2.3978 H   0  0  0  0  0  0  0  0  0  0  0  0
  1  2  2  0
  1 29  1  0
  1 30  1  0
  2 27  1  0
  2  3  1  0
  3  4  1  0
  3 31  1  0
  3 32  1  0
  4 24  1  0
  4  5  1  0
  4 33  1  1
  5  6  2  0
  5  7  1  0
  7 22  1  0
  7  8  1  1
  7  9  1  0
  8 34  1  0
  8 35  1  0
  8 36  1  0
  9 10  1  0
  9 11  1  0
  9 37  1  1
 10 38  1  0
 11 12  1  0
 11 39  1  0
 11 40  1  0
 12 20  1  0
 12 13  1  0
 12 41  1  6
 13 14  1  0
 13 15  1  0
 13 16  1  0
 14 42  1  0
 14 43  1  0
 14 44  1  0
 15 45  1  0
 15 46  1  0
 15 47  1  0
 16 17  2  0
 16 18  1  0
 18 19  1  0
 18 48  1  0
 18 49  1  0
 19 20  1  0
 19 50  1  0
 19 51  1  0
 20 21  1  6
 20 22  1  0
 21 52  1  0
 21 53  1  0
 21 54  1  0
 22 23  1  0
 22 55  1  6
 23 24  1  0
 23 56  1  0
 23 57  1  0
 24 25  1  0
 24 58  1  6
 25 26  1  0
 25 27  1  0
 25 59  1  6
 26 60  1  0
 26 61  1  0
 26 62  1  0
 27 28  1  0
 27 63  1  6
 28 64  1  0
 28 65  1  0
 28 66  1  0
M  END
>  <i_m_ct_stereo_status>  (66) 
1

>  <s_m_source_file>  (66) 
/var/tmp/pbs.5076255.sched01/tmpc_kifbv4/0gx9_4qhc.sdf

>  <i_m_source_file_index>  (66) 
30

>  <i_lp_mmshare_version>  (66) 
48012

>  <i_f3d_flags>  (66) 
0

>  <s_epik_input>  (66) 
W0NIM11bQ0BIXTFbQ0BASF0oW0NIM10pQyg9W0NIMl0pW0NIMl1bQ0BIXShDMj1PKVtDQEhdMVtDSDJdW0NAQEhdKFtDQEBdMjNbQ0gzXSlbQ0BdNChbQ0gzXSlbQ0BIXShbQ0gyXVtDQEBIXTNbT0hdKUMoW0NIM10pKFtDSDNdKUMoPU8pW0NIMl1bQ0gyXTQ=

>  <s_epik_cmdline>  (66) 
J2VwaWtfcHl0aG9uJywgJy1waHQnLCAnMi4wJywgJy1waCcsICc3LjAnLCAnLXRuJywgJzgnLCAnLW1hJywgJzIwMCcsICctaW1hZScsICc8aW5maWxlLm1hZT4nLCAnLW9tYWUnLCAnPG91dGZpbGUubWFlPic=

>  <r_lp_tautomer_probability>  (66) 
1

>  <r_epik_Ionization_Penalty>  (66) 
9.99626e-08

>  <r_epik_Ionization_Penalty_Charging>  (66) 
0

>  <r_epik_Ionization_Penalty_Neutral>  (66) 
9.99626e-08

>  <r_epik_State_Penalty>  (66) 
-0

>  <r_epik_Charging_Adjusted_Penalty>  (66) 
0

>  <i_epik_Tot_Q>  (66) 
0

>  <i_epik_Tot_abs_Q>  (66) 
0

>  <s_lp_Force_Field>  (66) 
OPLS3e

>  <r_lp_Energy>  (66) 
50.7625

>  <b_lp_Chiralities_Consistent>  (66) 
1

>  <s_lp_Variant>  (66) 
22:0-1

>  <s_i_glide_gridfile>  (66) 
pfpi4k_grid

>  <i_i_glide_lignum>  (66) 
30

>  <i_i_glide_rotatable_bonds>  (66) 
1

>  <r_i_docking_score>  (66) 
-2.51753

>  <r_i_glide_ligand_efficiency>  (66) 
-0.0899116

>  <r_i_glide_ligand_efficiency_sa>  (66) 
-0.273025

>  <r_i_glide_ligand_efficiency_ln>  (66) 
-0.581119

>  <r_i_glide_gscore>  (66) 
-2.51753

>  <r_i_glide_lipo>  (66) 
-0.306766

>  <r_i_glide_hbond>  (66) 
0

>  <r_i_glide_metal>  (66) 
-0

>  <r_i_glide_rewards>  (66) 
-0.777617

>  <r_i_glide_evdw>  (66) 
-24.7351

>  <r_i_glide_ecoul>  (66) 
-1.18227

>  <r_i_glide_erotb>  (66) 
0

>  <r_i_glide_esite>  (66) 
-0.0190463

>  <r_i_glide_emodel>  (66) 
-30.4205

>  <r_i_glide_energy>  (66) 
-25.9174

>  <r_i_glide_einternal>  (66) 
0.324504

>  <r_i_glide_intrahb_reward>  (66) 
-0

>  <i_i_glide_confnum>  (66) 
2

>  <i_i_glide_posenum>  (66) 
2

>  <r_i_glide_eff_state_penalty>  (66) 
0

>  <ligand_id>  (66) 
22

>  <original_smiles>  (66) 
C=C1CC2C(=O)C3(C)C(O)CC4C(C)(C)C(=O)CCC4(C)C3CC2C(C)C1C

>  <smiles>  (66) 
[H]OC1([H])C([H])([H])C2([H])C(C([H])([H])[H])(C([H])([H])[H])C(=O)C([H])([H])C([H])([H])C2(C([H])([H])[H])C2([H])C([H])([H])C3([H])C([H])(C(=O)C12C([H])([H])[H])C([H])([H])C(=C([H])[H])C([H])(C([H])([H])[H])C3([H])C([H])([H])[H]

$$$$
23:0:0
     RDKit          3D

 49 52  0  0  1  0  0  0  0  0999 V2000
    0.0166    3.6716   11.5567 C   0  0  0  0  0  0  0  0  0  0  0  0
    0.9577    2.6395   10.8848 C   0  0  1  0  0  0  0  0  0  0  0  0
    1.7619    1.9499   12.0257 C   0  0  0  0  0  0  0  0  0  0  0  0
    1.0744    0.7762   12.7420 C   0  0  0  0  0  0  0  0  0  0  0  0
    1.3708   -0.5536   12.0585 C   0  0  0  0  0  0  0  0  0  0  0  0
    2.0797   -1.3993   12.6025 O   0  0  0  0  0  0  0  0  0  0  0  0
    0.7536   -0.8193   10.6862 C   0  0  1  0  0  0  0  0  0  0  0  0
   -0.5831   -1.2297   10.8265 O   0  0  0  0  0  0  0  0  0  0  0  0
    0.8980    0.3318    9.6656 C   0  0  0  0  0  0  0  0  0  0  0  0
    0.1267    1.6361   10.0142 C   0  0  2  0  0  0  0  0  0  0  0  0
   -0.4698    2.3437    8.7596 C   0  0  2  0  0  0  0  0  0  0  0  0
   -1.4296    1.4894    7.9213 C   0  0  0  0  0  0  0  0  0  0  0  0
   -2.1873    2.3688    6.9344 C   0  0  0  0  0  0  0  0  0  0  0  0
   -1.2718    3.2535    6.1108 C   0  0  0  0  0  0  0  0  0  0  0  0
   -1.7424    3.7242    4.8701 C   0  0  0  0  0  0  0  0  0  0  0  0
   -0.9260    4.5456    4.0719 C   0  0  0  0  0  0  0  0  0  0  0  0
   -1.3916    5.0083    2.8804 O   0  0  0  0  0  0  0  0  0  0  0  0
    0.3570    4.9122    4.5243 C   0  0  0  0  0  0  0  0  0  0  0  0
    0.8336    4.4392    5.7590 C   0  0  0  0  0  0  0  0  0  0  0  0
    0.0329    3.5980    6.5703 C   0  0  0  0  0  0  0  0  0  0  0  0
    0.5990    3.0173    7.8751 C   0  0  1  0  0  0  0  0  0  0  0  0
    1.3949    4.0311    8.7214 C   0  0  0  0  0  0  0  0  0  0  0  0
    1.9844    3.3824    9.9876 C   0  0  0  0  0  0  0  0  0  0  0  0
    0.5636    4.3452   12.2160 H   0  0  0  0  0  0  0  0  0  0  0  0
   -0.7579    3.1841   12.1507 H   0  0  0  0  0  0  0  0  0  0  0  0
   -0.4908    4.3080   10.8343 H   0  0  0  0  0  0  0  0  0  0  0  0
    2.7140    1.5903   11.6337 H   0  0  0  0  0  0  0  0  0  0  0  0
    2.0467    2.6946   12.7692 H   0  0  0  0  0  0  0  0  0  0  0  0
    1.4665    0.6994   13.7559 H   0  0  0  0  0  0  0  0  0  0  0  0
   -0.0022    0.9228   12.8232 H   0  0  0  0  0  0  0  0  0  0  0  0
    1.2844   -1.6772   10.2741 H   0  0  0  0  0  0  0  0  0  0  0  0
   -1.0369   -0.6598   11.4474 H   0  0  0  0  0  0  0  0  0  0  0  0
    1.9543    0.5470    9.5069 H   0  0  0  0  0  0  0  0  0  0  0  0
    0.5603   -0.0751    8.7157 H   0  0  0  0  0  0  0  0  0  0  0  0
   -0.7392    1.3421   10.6086 H   0  0  0  0  0  0  0  0  0  0  0  0
   -1.1067    3.1397    9.1374 H   0  0  0  0  0  0  0  0  0  0  0  0
   -0.8711    0.7560    7.3396 H   0  0  0  0  0  0  0  0  0  0  0  0
   -2.1368    0.9551    8.5494 H   0  0  0  0  0  0  0  0  0  0  0  0
   -2.7804    1.7405    6.2741 H   0  0  0  0  0  0  0  0  0  0  0  0
   -2.8828    3.0136    7.4740 H   0  0  0  0  0  0  0  0  0  0  0  0
   -2.7269    3.4460    4.5186 H   0  0  0  0  0  0  0  0  0  0  0  0
   -0.7489    4.9419    2.1719 H   0  0  0  0  0  0  0  0  0  0  0  0
    0.9722    5.5671    3.9238 H   0  0  0  0  0  0  0  0  0  0  0  0
    1.8322    4.7230    6.0717 H   0  0  0  0  0  0  0  0  0  0  0  0
    1.2926    2.2389    7.5528 H   0  0  0  0  0  0  0  0  0  0  0  0
    2.2276    4.4336    8.1487 H   0  0  0  0  0  0  0  0  0  0  0  0
    0.7735    4.8880    8.9819 H   0  0  0  0  0  0  0  0  0  0  0  0
    2.4977    4.1442   10.5748 H   0  0  0  0  0  0  0  0  0  0  0  0
    2.7618    2.6861    9.6676 H   0  0  0  0  0  0  0  0  0  0  0  0
  2  1  1  1
  1 24  1  0
  1 25  1  0
  1 26  1  0
  2 10  1  0
  2 23  1  0
  2  3  1  0
  3  4  1  0
  3 27  1  0
  3 28  1  0
  4  5  1  0
  4 29  1  0
  4 30  1  0
  5  6  2  0
  5  7  1  0
  7  8  1  0
  7  9  1  0
  7 31  1  6
  8 32  1  0
  9 10  1  0
  9 33  1  0
  9 34  1  0
 10 11  1  0
 10 35  1  1
 11 21  1  0
 11 12  1  0
 11 36  1  1
 12 13  1  0
 12 37  1  0
 12 38  1  0
 13 14  1  0
 13 39  1  0
 13 40  1  0
 14 20  2  0
 14 15  1  0
 15 16  2  0
 15 41  1  0
 16 17  1  0
 16 18  1  0
 17 42  1  0
 18 19  2  0
 18 43  1  0
 19 20  1  0
 19 44  1  0
 20 21  1  0
 21 22  1  0
 21 45  1  6
 22 23  1  0
 22 46  1  0
 22 47  1  0
 23 48  1  0
 23 49  1  0
M  END
>  <i_m_ct_stereo_status>  (67) 
1

>  <s_m_source_file>  (67) 
/var/tmp/pbs.5076255.sched01/tmpc_kifbv4/0gx9_4qhc.sdf

>  <i_m_source_file_index>  (67) 
31

>  <i_lp_mmshare_version>  (67) 
48012

>  <i_f3d_flags>  (67) 
0

>  <s_epik_input>  (67) 
W0NIMl0xW0NIMl1DKD1PKVtDQEBIXShbT0hdKVtDSDJdW0NAQEhdKFtDQEBdMTJbQ0gzXSlbQ0BIXTNbQ0BIXShbQ0gyXVtDSDJdMiljNGMoW0NIMl1bQ0gyXTMpW2NIXWMoW09IXSlbY0hdW2NIXTQ=

>  <s_epik_cmdline>  (67) 
J2VwaWtfcHl0aG9uJywgJy1waHQnLCAnMi4wJywgJy1waCcsICc3LjAnLCAnLXRuJywgJzgnLCAnLW1hJywgJzIwMCcsICctaW1hZScsICc8aW5maWxlLm1hZT4nLCAnLW9tYWUnLCAnPG91dGZpbGUubWFlPic=

>  <r_lp_tautomer_probability>  (67) 
1

>  <r_epik_Ionization_Penalty>  (67) 
0.000123838

>  <r_epik_Ionization_Penalty_Charging>  (67) 
0

>  <r_epik_Ionization_Penalty_Neutral>  (67) 
0.000123838

>  <r_epik_State_Penalty>  (67) 
-0

>  <r_epik_Charging_Adjusted_Penalty>  (67) 
0

>  <i_epik_Tot_Q>  (67) 
0

>  <i_epik_Tot_abs_Q>  (67) 
0

>  <s_lp_Force_Field>  (67) 
OPLS3e

>  <r_lp_Energy>  (67) 
48.1059

>  <b_lp_Chiralities_Consistent>  (67) 
1

>  <s_lp_Variant>  (67) 
23:0-1

>  <s_i_glide_gridfile>  (67) 
pfpi4k_grid

>  <i_i_glide_lignum>  (67) 
31

>  <i_i_glide_rotatable_bonds>  (67) 
2

>  <r_i_docking_score>  (67) 
-3.72962

>  <r_i_glide_ligand_efficiency>  (67) 
-0.162157

>  <r_i_glide_ligand_efficiency_sa>  (67) 
-0.461154

>  <r_i_glide_ligand_efficiency_ln>  (67) 
-0.901856

>  <r_i_glide_gscore>  (67) 
-3.72962

>  <r_i_glide_lipo>  (67) 
-0.051174

>  <r_i_glide_hbond>  (67) 
-0.32

>  <r_i_glide_metal>  (67) 
-0

>  <r_i_glide_rewards>  (67) 
-1.26533

>  <r_i_glide_evdw>  (67) 
-12.7357

>  <r_i_glide_ecoul>  (67) 
-9.67909

>  <r_i_glide_erotb>  (67) 
0

>  <r_i_glide_esite>  (67) 
-0.00446996

>  <r_i_glide_emodel>  (67) 
-26.3714

>  <r_i_glide_energy>  (67) 
-22.4148

>  <r_i_glide_einternal>  (67) 
3.68317

>  <r_i_glide_intrahb_reward>  (67) 
-0

>  <i_i_glide_confnum>  (67) 
1

>  <i_i_glide_posenum>  (67) 
38

>  <r_i_glide_eff_state_penalty>  (67) 
0

>  <ligand_id>  (67) 
23

>  <original_smiles>  (67) 
CC12CCC(=O)C(O)CC1C1CCc3cc(O)ccc3C1CC2

>  <smiles>  (67) 
[H]Oc1c([H])c([H])c2c(c1[H])C([H])([H])C([H])([H])C1([H])C2([H])C([H])([H])C([H])([H])C2(C([H])([H])[H])C([H])([H])C([H])([H])C(=O)C([H])(O[H])C([H])([H])C12[H]

$$$$
23:0:1
     RDKit          3D

 49 52  0  0  1  0  0  0  0  0999 V2000
    2.2180    3.6326    7.6747 C   0  0  0  0  0  0  0  0  0  0  0  0
    2.8909    3.4051    6.2920 C   0  0  1  0  0  0  0  0  0  0  0  0
    4.4214    3.2889    6.5462 C   0  0  0  0  0  0  0  0  0  0  0  0
    4.9463    1.9050    6.9593 C   0  0  0  0  0  0  0  0  0  0  0  0
    5.3234    1.0490    5.7501 C   0  0  0  0  0  0  0  0  0  0  0  0
    6.5005    0.7747    5.5183 O   0  0  0  0  0  0  0  0  0  0  0  0
    4.2074    0.5276    4.8464 C   0  0  1  0  0  0  0  0  0  0  0  0
    3.5887   -0.5977    5.4413 O   0  0  0  0  0  0  0  0  0  0  0  0
    3.1550    1.5840    4.4388 C   0  0  0  0  0  0  0  0  0  0  0  0
    2.2779    2.1448    5.5935 C   0  0  2  0  0  0  0  0  0  0  0  0
    0.8017    2.4039    5.1630 C   0  0  2  0  0  0  0  0  0  0  0  0
    0.0541    1.1743    4.6163 C   0  0  0  0  0  0  0  0  0  0  0  0
   -1.4441    1.4727    4.5259 C   0  0  0  0  0  0  0  0  0  0  0  0
   -1.7550    2.7796    3.8226 C   0  0  0  0  0  0  0  0  0  0  0  0
   -3.0332    2.9430    3.2387 C   0  0  0  0  0  0  0  0  0  0  0  0
   -3.3632    4.1176    2.5335 C   0  0  0  0  0  0  0  0  0  0  0  0
   -4.5986    4.2540    1.9726 O   0  0  0  0  0  0  0  0  0  0  0  0
   -2.4265    5.1629    2.4788 C   0  0  0  0  0  0  0  0  0  0  0  0
   -1.1667    5.0217    3.0963 C   0  0  0  0  0  0  0  0  0  0  0  0
   -0.7963    3.8225    3.7447 C   0  0  0  0  0  0  0  0  0  0  0  0
    0.6438    3.6320    4.2411 C   0  0  1  0  0  0  0  0  0  0  0  0
    1.2233    4.8799    4.9370 C   0  0  0  0  0  0  0  0  0  0  0  0
    2.6715    4.6596    5.4054 C   0  0  0  0  0  0  0  0  0  0  0  0
    2.6625    4.4732    8.2136 H   0  0  0  0  0  0  0  0  0  0  0  0
    2.2961    2.7509    8.3146 H   0  0  0  0  0  0  0  0  0  0  0  0
    1.1573    3.8716    7.5944 H   0  0  0  0  0  0  0  0  0  0  0  0
    4.9636    3.5939    5.6533 H   0  0  0  0  0  0  0  0  0  0  0  0
    4.7242    4.0161    7.2995 H   0  0  0  0  0  0  0  0  0  0  0  0
    5.8530    2.0296    7.5512 H   0  0  0  0  0  0  0  0  0  0  0  0
    4.2330    1.3686    7.5831 H   0  0  0  0  0  0  0  0  0  0  0  0
    4.6936    0.1782    3.9359 H   0  0  0  0  0  0  0  0  0  0  0  0
    2.9608   -0.9470    4.8366 H   0  0  0  0  0  0  0  0  0  0  0  0
    3.6437    2.3997    3.9051 H   0  0  0  0  0  0  0  0  0  0  0  0
    2.5362    1.1104    3.6808 H   0  0  0  0  0  0  0  0  0  0  0  0
    2.2144    1.3611    6.3465 H   0  0  0  0  0  0  0  0  0  0  0  0
    0.2541    2.6390    6.0728 H   0  0  0  0  0  0  0  0  0  0  0  0
    0.3940    0.9513    3.6059 H   0  0  0  0  0  0  0  0  0  0  0  0
    0.2342    0.2891    5.2313 H   0  0  0  0  0  0  0  0  0  0  0  0
   -1.9637    0.6444    4.0410 H   0  0  0  0  0  0  0  0  0  0  0  0
   -1.8551    1.5496    5.5327 H   0  0  0  0  0  0  0  0  0  0  0  0
   -3.7585    2.1601    3.3139 H   0  0  0  0  0  0  0  0  0  0  0  0
   -4.7178    5.0451    1.4799 H   0  0  0  0  0  0  0  0  0  0  0  0
   -2.6600    6.0671    1.9454 H   0  0  0  0  0  0  0  0  0  0  0  0
   -0.4449    5.8152    2.9467 H   0  0  0  0  0  0  0  0  0  0  0  0
    1.2384    3.4461    3.3439 H   0  0  0  0  0  0  0  0  0  0  0  0
    1.2326    5.7261    4.2532 H   0  0  0  0  0  0  0  0  0  0  0  0
    0.5920    5.1797    5.7708 H   0  0  0  0  0  0  0  0  0  0  0  0
    3.0171    5.5502    5.9309 H   0  0  0  0  0  0  0  0  0  0  0  0
    3.2941    4.5862    4.5117 H   0  0  0  0  0  0  0  0  0  0  0  0
  2  1  1  1
  1 24  1  0
  1 25  1  0
  1 26  1  0
  2 10  1  0
  2 23  1  0
  2  3  1  0
  3  4  1  0
  3 27  1  0
  3 28  1  0
  4  5  1  0
  4 29  1  0
  4 30  1  0
  5  6  2  0
  5  7  1  0
  7  8  1  0
  7  9  1  0
  7 31  1  6
  8 32  1  0
  9 10  1  0
  9 33  1  0
  9 34  1  0
 10 11  1  0
 10 35  1  1
 11 21  1  0
 11 12  1  0
 11 36  1  1
 12 13  1  0
 12 37  1  0
 12 38  1  0
 13 14  1  0
 13 39  1  0
 13 40  1  0
 14 20  2  0
 14 15  1  0
 15 16  2  0
 15 41  1  0
 16 17  1  0
 16 18  1  0
 17 42  1  0
 18 19  2  0
 18 43  1  0
 19 20  1  0
 19 44  1  0
 20 21  1  0
 21 22  1  0
 21 45  1  6
 22 23  1  0
 22 46  1  0
 22 47  1  0
 23 48  1  0
 23 49  1  0
M  END
>  <i_m_ct_stereo_status>  (68) 
1

>  <s_m_source_file>  (68) 
/var/tmp/pbs.5076255.sched01/tmpc_kifbv4/0gx9_4qhc.sdf

>  <i_m_source_file_index>  (68) 
31

>  <i_lp_mmshare_version>  (68) 
48012

>  <i_f3d_flags>  (68) 
0

>  <s_epik_input>  (68) 
W0NIMl0xW0NIMl1DKD1PKVtDQEBIXShbT0hdKVtDSDJdW0NAQEhdKFtDQEBdMTJbQ0gzXSlbQ0BIXTNbQ0BIXShbQ0gyXVtDSDJdMiljNGMoW0NIMl1bQ0gyXTMpW2NIXWMoW09IXSlbY0hdW2NIXTQ=

>  <s_epik_cmdline>  (68) 
J2VwaWtfcHl0aG9uJywgJy1waHQnLCAnMi4wJywgJy1waCcsICc3LjAnLCAnLXRuJywgJzgnLCAnLW1hJywgJzIwMCcsICctaW1hZScsICc8aW5maWxlLm1hZT4nLCAnLW9tYWUnLCAnPG91dGZpbGUubWFlPic=

>  <r_lp_tautomer_probability>  (68) 
1

>  <r_epik_Ionization_Penalty>  (68) 
0.000123838

>  <r_epik_Ionization_Penalty_Charging>  (68) 
0

>  <r_epik_Ionization_Penalty_Neutral>  (68) 
0.000123838

>  <r_epik_State_Penalty>  (68) 
-0

>  <r_epik_Charging_Adjusted_Penalty>  (68) 
0

>  <i_epik_Tot_Q>  (68) 
0

>  <i_epik_Tot_abs_Q>  (68) 
0

>  <s_lp_Force_Field>  (68) 
OPLS3e

>  <r_lp_Energy>  (68) 
48.1059

>  <b_lp_Chiralities_Consistent>  (68) 
1

>  <s_lp_Variant>  (68) 
23:0-1

>  <s_i_glide_gridfile>  (68) 
pfpi4k_grid

>  <i_i_glide_lignum>  (68) 
31

>  <i_i_glide_rotatable_bonds>  (68) 
2

>  <r_i_docking_score>  (68) 
-2.09519

>  <r_i_glide_ligand_efficiency>  (68) 
-0.0910953

>  <r_i_glide_ligand_efficiency_sa>  (68) 
-0.259063

>  <r_i_glide_ligand_efficiency_ln>  (68) 
-0.506637

>  <r_i_glide_gscore>  (68) 
-2.09519

>  <r_i_glide_lipo>  (68) 
-0.0160017

>  <r_i_glide_hbond>  (68) 
0

>  <r_i_glide_metal>  (68) 
-0

>  <r_i_glide_rewards>  (68) 
-1.30997

>  <r_i_glide_evdw>  (68) 
-10.9283

>  <r_i_glide_ecoul>  (68) 
-1.48538

>  <r_i_glide_erotb>  (68) 
0

>  <r_i_glide_esite>  (68) 
0

>  <r_i_glide_emodel>  (68) 
-16.0428

>  <r_i_glide_energy>  (68) 
-12.4137

>  <r_i_glide_einternal>  (68) 
0.0806744

>  <r_i_glide_intrahb_reward>  (68) 
-0

>  <i_i_glide_confnum>  (68) 
2

>  <i_i_glide_posenum>  (68) 
1

>  <r_i_glide_eff_state_penalty>  (68) 
0

>  <ligand_id>  (68) 
23

>  <original_smiles>  (68) 
CC12CCC(=O)C(O)CC1C1CCc3cc(O)ccc3C1CC2

>  <smiles>  (68) 
[H]Oc1c([H])c([H])c2c(c1[H])C([H])([H])C([H])([H])C1([H])C2([H])C([H])([H])C([H])([H])C2(C([H])([H])[H])C([H])([H])C([H])([H])C(=O)C([H])(O[H])C([H])([H])C12[H]

$$$$
23:0:2
     RDKit          3D

 49 52  0  0  1  0  0  0  0  0999 V2000
    3.9482    2.6049    8.0299 C   0  0  0  0  0  0  0  0  0  0  0  0
    3.6431    1.1337    7.6405 C   0  0  1  0  0  0  0  0  0  0  0  0
    4.7863    0.2554    8.2335 C   0  0  0  0  0  0  0  0  0  0  0  0
    4.6347   -0.1597    9.7067 C   0  0  0  0  0  0  0  0  0  0  0  0
    3.8747   -1.4762    9.8520 C   0  0  0  0  0  0  0  0  0  0  0  0
    4.4496   -2.4898   10.2413 O   0  0  0  0  0  0  0  0  0  0  0  0
    2.3814   -1.5149    9.5220 C   0  0  1  0  0  0  0  0  0  0  0  0
    1.6351   -0.9933   10.6029 O   0  0  0  0  0  0  0  0  0  0  0  0
    1.9914   -0.8191    8.1982 C   0  0  0  0  0  0  0  0  0  0  0  0
    2.2148    0.7222    8.1491 C   0  0  2  0  0  0  0  0  0  0  0  0
    1.1018    1.4788    7.3596 C   0  0  2  0  0  0  0  0  0  0  0  0
   -0.3269    1.2656    7.8888 C   0  0  0  0  0  0  0  0  0  0  0  0
   -1.2785    2.2789    7.2516 C   0  0  0  0  0  0  0  0  0  0  0  0
   -1.1617    2.3173    5.7379 C   0  0  0  0  0  0  0  0  0  0  0  0
   -2.2519    2.8241    4.9978 C   0  0  0  0  0  0  0  0  0  0  0  0
   -2.1968    2.8904    3.5932 C   0  0  0  0  0  0  0  0  0  0  0  0
   -3.2661    3.3461    2.8775 O   0  0  0  0  0  0  0  0  0  0  0  0
   -1.0361    2.4661    2.9274 C   0  0  0  0  0  0  0  0  0  0  0  0
    0.0535    1.9532    3.6558 C   0  0  0  0  0  0  0  0  0  0  0  0
    0.0070    1.8668    5.0652 C   0  0  0  0  0  0  0  0  0  0  0  0
    1.1839    1.2439    5.8351 C   0  0  1  0  0  0  0  0  0  0  0  0
    2.5746    1.6819    5.3239 C   0  0  0  0  0  0  0  0  0  0  0  0
    3.7111    0.9861    6.0949 C   0  0  0  0  0  0  0  0  0  0  0  0
    4.9601    2.8946    7.7418 H   0  0  0  0  0  0  0  0  0  0  0  0
    3.8556    2.7616    9.1062 H   0  0  0  0  0  0  0  0  0  0  0  0
    3.2813    3.3162    7.5421 H   0  0  0  0  0  0  0  0  0  0  0  0
    4.8998   -0.6508    7.6363 H   0  0  0  0  0  0  0  0  0  0  0  0
    5.7398    0.7717    8.1118 H   0  0  0  0  0  0  0  0  0  0  0  0
    5.6260   -0.3191   10.1325 H   0  0  0  0  0  0  0  0  0  0  0  0
    4.1503    0.6136   10.3014 H   0  0  0  0  0  0  0  0  0  0  0  0
    2.1112   -2.5681    9.4331 H   0  0  0  0  0  0  0  0  0  0  0  0
    1.8165   -1.5212   11.3689 H   0  0  0  0  0  0  0  0  0  0  0  0
    2.5056   -1.3029    7.3686 H   0  0  0  0  0  0  0  0  0  0  0  0
    0.9436   -1.0586    8.0427 H   0  0  0  0  0  0  0  0  0  0  0  0
    2.1250    1.0835    9.1747 H   0  0  0  0  0  0  0  0  0  0  0  0
    1.2793    2.5399    7.5218 H   0  0  0  0  0  0  0  0  0  0  0  0
   -0.6795    0.2693    7.6258 H   0  0  0  0  0  0  0  0  0  0  0  0
   -0.3610    1.3435    8.9774 H   0  0  0  0  0  0  0  0  0  0  0  0
   -2.3073    2.0624    7.5428 H   0  0  0  0  0  0  0  0  0  0  0  0
   -1.0465    3.2781    7.6234 H   0  0  0  0  0  0  0  0  0  0  0  0
   -3.1436    3.1461    5.5135 H   0  0  0  0  0  0  0  0  0  0  0  0
   -4.0804    3.3228    3.3537 H   0  0  0  0  0  0  0  0  0  0  0  0
   -0.9773    2.5188    1.8510 H   0  0  0  0  0  0  0  0  0  0  0  0
    0.9155    1.6182    3.0982 H   0  0  0  0  0  0  0  0  0  0  0  0
    1.0918    0.1706    5.6579 H   0  0  0  0  0  0  0  0  0  0  0  0
    2.6977    1.4216    4.2747 H   0  0  0  0  0  0  0  0  0  0  0  0
    2.6828    2.7649    5.3782 H   0  0  0  0  0  0  0  0  0  0  0  0
    4.6721    1.3546    5.7335 H   0  0  0  0  0  0  0  0  0  0  0  0
    3.6885   -0.0717    5.8294 H   0  0  0  0  0  0  0  0  0  0  0  0
  2  1  1  6
  1 24  1  0
  1 25  1  0
  1 26  1  0
  2 10  1  0
  2 23  1  0
  2  3  1  0
  3  4  1  0
  3 27  1  0
  3 28  1  0
  4  5  1  0
  4 29  1  0
  4 30  1  0
  5  6  2  0
  5  7  1  0
  7  8  1  0
  7  9  1  0
  7 31  1  6
  8 32  1  0
  9 10  1  0
  9 33  1  0
  9 34  1  0
 10 11  1  0
 10 35  1  1
 11 21  1  0
 11 12  1  0
 11 36  1  6
 12 13  1  0
 12 37  1  0
 12 38  1  0
 13 14  1  0
 13 39  1  0
 13 40  1  0
 14 20  2  0
 14 15  1  0
 15 16  2  0
 15 41  1  0
 16 17  1  0
 16 18  1  0
 17 42  1  0
 18 19  2  0
 18 43  1  0
 19 20  1  0
 19 44  1  0
 20 21  1  0
 21 22  1  0
 21 45  1  1
 22 23  1  0
 22 46  1  0
 22 47  1  0
 23 48  1  0
 23 49  1  0
M  END
>  <i_m_ct_stereo_status>  (69) 
1

>  <s_m_source_file>  (69) 
/var/tmp/pbs.5076255.sched01/tmpc_kifbv4/0gx9_4qhc.sdf

>  <i_m_source_file_index>  (69) 
31

>  <i_lp_mmshare_version>  (69) 
48012

>  <i_f3d_flags>  (69) 
0

>  <s_epik_input>  (69) 
W0NIMl0xW0NIMl1DKD1PKVtDQEBIXShbT0hdKVtDSDJdW0NAQEhdKFtDQEBdMTJbQ0gzXSlbQ0BIXTNbQ0BIXShbQ0gyXVtDSDJdMiljNGMoW0NIMl1bQ0gyXTMpW2NIXWMoW09IXSlbY0hdW2NIXTQ=

>  <s_epik_cmdline>  (69) 
J2VwaWtfcHl0aG9uJywgJy1waHQnLCAnMi4wJywgJy1waCcsICc3LjAnLCAnLXRuJywgJzgnLCAnLW1hJywgJzIwMCcsICctaW1hZScsICc8aW5maWxlLm1hZT4nLCAnLW9tYWUnLCAnPG91dGZpbGUubWFlPic=

>  <r_lp_tautomer_probability>  (69) 
1

>  <r_epik_Ionization_Penalty>  (69) 
0.000123838

>  <r_epik_Ionization_Penalty_Charging>  (69) 
0

>  <r_epik_Ionization_Penalty_Neutral>  (69) 
0.000123838

>  <r_epik_State_Penalty>  (69) 
-0

>  <r_epik_Charging_Adjusted_Penalty>  (69) 
0

>  <i_epik_Tot_Q>  (69) 
0

>  <i_epik_Tot_abs_Q>  (69) 
0

>  <s_lp_Force_Field>  (69) 
OPLS3e

>  <r_lp_Energy>  (69) 
48.1059

>  <b_lp_Chiralities_Consistent>  (69) 
1

>  <s_lp_Variant>  (69) 
23:0-1

>  <s_i_glide_gridfile>  (69) 
pfpi4k_grid

>  <i_i_glide_lignum>  (69) 
31

>  <i_i_glide_rotatable_bonds>  (69) 
2

>  <r_i_docking_score>  (69) 
-1.9156

>  <r_i_glide_ligand_efficiency>  (69) 
-0.0832871

>  <r_i_glide_ligand_efficiency_sa>  (69) 
-0.236858

>  <r_i_glide_ligand_efficiency_ln>  (69) 
-0.46321

>  <r_i_glide_gscore>  (69) 
-1.9156

>  <r_i_glide_lipo>  (69) 
0

>  <r_i_glide_hbond>  (69) 
0

>  <r_i_glide_metal>  (69) 
-0

>  <r_i_glide_rewards>  (69) 
-1.26533

>  <r_i_glide_evdw>  (69) 
-14.8978

>  <r_i_glide_ecoul>  (69) 
0.630744

>  <r_i_glide_erotb>  (69) 
0

>  <r_i_glide_esite>  (69) 
0

>  <r_i_glide_emodel>  (69) 
-16.5644

>  <r_i_glide_energy>  (69) 
-14.267

>  <r_i_glide_einternal>  (69) 
2.08424

>  <r_i_glide_intrahb_reward>  (69) 
-0

>  <i_i_glide_confnum>  (69) 
1

>  <i_i_glide_posenum>  (69) 
8

>  <r_i_glide_eff_state_penalty>  (69) 
0

>  <ligand_id>  (69) 
23

>  <original_smiles>  (69) 
CC12CCC(=O)C(O)CC1C1CCc3cc(O)ccc3C1CC2

>  <smiles>  (69) 
[H]Oc1c([H])c([H])c2c(c1[H])C([H])([H])C([H])([H])C1([H])C2([H])C([H])([H])C([H])([H])C2(C([H])([H])[H])C([H])([H])C([H])([H])C(=O)C([H])(O[H])C([H])([H])C12[H]

$$$$
24:0:0
     RDKit          3D

 42 49  0  0  1  0  0  0  0  0999 V2000
    4.5229   -0.4259    4.1712 C   0  0  0  0  0  0  0  0  0  0  0  0
    5.3087   -1.5883    3.8698 O   0  0  0  0  0  0  0  0  0  0  0  0
    4.7030   -2.5879    3.0363 C   0  0  1  0  0  0  0  0  0  0  0  0
    4.9718   -2.0387    1.5985 C   0  0  0  0  0  0  0  0  0  0  0  0
    4.2458   -2.6900    0.4762 C   0  0  0  0  0  0  0  0  0  0  0  0
    3.6197   -3.9026    0.5439 C   0  0  0  0  0  0  0  0  0  0  0  0
    3.0829   -4.2012   -0.6925 N   0  0  0  0  0  0  0  0  0  0  0  0
    3.3409   -3.1903   -1.6020 C   0  0  0  0  0  0  0  0  0  0  0  0
    3.0330   -3.0226   -2.9554 C   0  0  0  0  0  0  0  0  0  0  0  0
    3.4234   -1.8587   -3.6361 C   0  0  0  0  0  0  0  0  0  0  0  0
    4.1549   -0.8650   -2.9281 C   0  0  0  0  0  0  0  0  0  0  0  0
    4.4747   -1.0573   -1.5774 C   0  0  0  0  0  0  0  0  0  0  0  0
    4.0818   -2.2140   -0.8606 C   0  0  0  0  0  0  0  0  0  0  0  0
    3.5665   -4.7790    1.7228 C   0  0  1  0  0  0  0  0  0  0  0  0
    4.9540   -4.8523    2.1931 O   0  0  0  0  0  0  0  0  0  0  0  0
    5.3339   -3.9967    3.3223 C   0  0  1  0  0  0  0  0  0  0  0  0
    5.3648   -4.2451    4.8811 C   0  0  1  0  0  0  0  0  0  0  0  0
    4.3858   -3.4879    5.7759 C   0  0  0  0  0  0  0  0  0  0  0  0
    3.1165   -3.4714    4.8890 C   0  0  2  0  0  0  0  0  0  0  0  0
    3.1431   -4.8195    4.1964 C   0  0  1  0  0  0  0  0  0  0  0  0
    2.7264   -4.2024    2.8766 C   0  0  1  0  0  0  0  0  0  0  0  0
    3.2441   -2.8674    3.4486 C   0  0  2  0  0  0  0  0  0  0  0  0
    4.5997   -5.1414    4.1265 C   0  0  1  0  0  0  0  0  0  0  0  0
    2.6538   -5.0857   -0.9433 H   0  0  0  0  0  0  0  0  0  0  0  0
    5.1418    0.3194    4.6688 H   0  0  0  0  0  0  0  0  0  0  0  0
    3.6944   -0.6502    4.8465 H   0  0  0  0  0  0  0  0  0  0  0  0
    4.0859    0.0560    3.2965 H   0  0  0  0  0  0  0  0  0  0  0  0
    4.6856   -0.9982    1.5410 H   0  0  0  0  0  0  0  0  0  0  0  0
    6.0448   -2.0365    1.4159 H   0  0  0  0  0  0  0  0  0  0  0  0
    2.4690   -3.7949   -3.4697 H   0  0  0  0  0  0  0  0  0  0  0  0
    3.1542   -1.7060   -4.6671 H   0  0  0  0  0  0  0  0  0  0  0  0
    4.4355    0.0469   -3.4319 H   0  0  0  0  0  0  0  0  0  0  0  0
    5.0115   -0.2800   -1.0388 H   0  0  0  0  0  0  0  0  0  0  0  0
    3.2126   -5.7714    1.4390 H   0  0  0  0  0  0  0  0  0  0  0  0
    6.2953   -4.5910    5.3046 H   0  0  0  0  0  0  0  0  0  0  0  0
    4.2284   -4.0595    6.6918 H   0  0  0  0  0  0  0  0  0  0  0  0
    4.7747   -2.5073    6.0527 H   0  0  0  0  0  0  0  0  0  0  0  0
    2.1668   -3.2239    5.3679 H   0  0  0  0  0  0  0  0  0  0  0  0
    2.4599   -5.5680    4.6021 H   0  0  0  0  0  0  0  0  0  0  0  0
    1.6449   -4.1635    2.7281 H   0  0  0  0  0  0  0  0  0  0  0  0
    2.5403   -2.0630    3.2605 H   0  0  0  0  0  0  0  0  0  0  0  0
    4.9124   -6.1796    4.0849 H   0  0  0  0  0  0  0  0  0  0  0  0
  1  2  1  0
  1 25  1  0
  1 26  1  0
  1 27  1  0
  3  2  1  1
  3 16  1  0
  3 22  1  0
  3  4  1  0
  4  5  1  0
  4 28  1  0
  4 29  1  0
  5 13  1  0
  5  6  2  0
  6  7  1  0
  6 14  1  0
  7 24  1  0
  7  8  1  0
  8 13  2  0
  8  9  1  0
  9 10  2  0
  9 30  1  0
 10 11  1  0
 10 31  1  0
 11 12  2  0
 11 32  1  0
 12 13  1  0
 12 33  1  0
 14 21  1  0
 14 15  1  0
 14 34  1  6
 16 15  1  6
 16 23  1  0
 16 17  1  0
 17 23  1  0
 17 18  1  0
 17 35  1  1
 18 19  1  0
 18 36  1  0
 18 37  1  0
 19 22  1  0
 19 20  1  0
 19 38  1  1
 20 21  1  0
 20 23  1  0
 20 39  1  1
 21 22  1  0
 21 40  1  6
 22 41  1  1
 23 42  1  6
M  END
>  <i_m_ct_stereo_status>  (70) 
1

>  <s_m_source_file>  (70) 
/var/tmp/pbs.5076255.sched01/tmpc_kifbv4/0gx9_4qhc.sdf

>  <i_m_source_file_index>  (70) 
32

>  <i_lp_mmshare_version>  (70) 
48012

>  <i_f3d_flags>  (70) 
0

>  <s_epik_input>  (70) 
W0NIM11PW0NAQF0xKFtDQEBdMjM0KVtDQEBIXTVbQ0BIXTZbQ0BIXShbQ0BASF00W0NAQEhdM1tDSDJdNilbQ0BASF01W0NASF0oTzIpYzdjKFtDSDJdMSljOGMoW25IXTcpW2NIXVtjSF1bY0hdW2NIXTg=

>  <s_epik_cmdline>  (70) 
J2VwaWtfcHl0aG9uJywgJy1waHQnLCAnMi4wJywgJy1waCcsICc3LjAnLCAnLXRuJywgJzgnLCAnLW1hJywgJzIwMCcsICctaW1hZScsICc8aW5maWxlLm1hZT4nLCAnLW9tYWUnLCAnPG91dGZpbGUubWFlPic=

>  <r_lp_tautomer_probability>  (70) 
1

>  <r_epik_Ionization_Penalty>  (70) 
2.39328e-09

>  <r_epik_Ionization_Penalty_Charging>  (70) 
0

>  <r_epik_Ionization_Penalty_Neutral>  (70) 
2.39328e-09

>  <r_epik_State_Penalty>  (70) 
-0

>  <r_epik_Charging_Adjusted_Penalty>  (70) 
0

>  <i_epik_Tot_Q>  (70) 
0

>  <i_epik_Tot_abs_Q>  (70) 
0

>  <s_lp_Force_Field>  (70) 
OPLS3e

>  <r_lp_Energy>  (70) 
171.108

>  <b_lp_Chiralities_Consistent>  (70) 
1

>  <s_lp_Variant>  (70) 
24:0-1

>  <s_i_glide_gridfile>  (70) 
pfpi4k_grid

>  <i_i_glide_lignum>  (70) 
32

>  <i_i_glide_rotatable_bonds>  (70) 
1

>  <r_i_docking_score>  (70) 
-3.41684

>  <r_i_glide_ligand_efficiency>  (70) 
-0.148558

>  <r_i_glide_ligand_efficiency_sa>  (70) 
-0.42248

>  <r_i_glide_ligand_efficiency_ln>  (70) 
-0.826223

>  <r_i_glide_gscore>  (70) 
-3.41684

>  <r_i_glide_lipo>  (70) 
-0.534449

>  <r_i_glide_hbond>  (70) 
-0.175882

>  <r_i_glide_metal>  (70) 
-0

>  <r_i_glide_rewards>  (70) 
-1.32702

>  <r_i_glide_evdw>  (70) 
-18.3511

>  <r_i_glide_ecoul>  (70) 
-2.82793

>  <r_i_glide_erotb>  (70) 
0

>  <r_i_glide_esite>  (70) 
-0.0377444

>  <r_i_glide_emodel>  (70) 
-24.166

>  <r_i_glide_energy>  (70) 
-21.179

>  <r_i_glide_einternal>  (70) 
2.71728

>  <r_i_glide_intrahb_reward>  (70) 
-0

>  <i_i_glide_confnum>  (70) 
1

>  <i_i_glide_posenum>  (70) 
22

>  <r_i_glide_eff_state_penalty>  (70) 
0

>  <ligand_id>  (70) 
24

>  <original_smiles>  (70) 
COC12Cc3c([nH]c4ccccc34)C3OC14C1CC5C(C3C52)C14

>  <smiles>  (70) 
[H]c1c([H])c([H])c2c(c1[H])c1c(n2[H])C2([H])OC34C5([H])C([H])([H])C6([H])C([H])(C2([H])C6([H])C3(OC([H])([H])[H])C1([H])[H])C54[H]

$$$$
24:0:1
     RDKit          3D

 42 49  0  0  1  0  0  0  0  0999 V2000
   -1.5696    1.7983    2.5291 C   0  0  0  0  0  0  0  0  0  0  0  0
   -1.3831    0.5449    3.2014 O   0  0  0  0  0  0  0  0  0  0  0  0
   -0.6314    0.5429    4.4172 C   0  0  1  0  0  0  0  0  0  0  0  0
   -1.6699    1.0217    5.4879 C   0  0  0  0  0  0  0  0  0  0  0  0
   -1.1331    1.3891    6.8300 C   0  0  0  0  0  0  0  0  0  0  0  0
    0.0998    1.0631    7.3023 C   0  0  0  0  0  0  0  0  0  0  0  0
    0.2428    1.5364    8.5937 N   0  0  0  0  0  0  0  0  0  0  0  0
   -0.8997    2.2112    8.9820 C   0  0  0  0  0  0  0  0  0  0  0  0
   -1.2587    2.8661   10.1711 C   0  0  0  0  0  0  0  0  0  0  0  0
   -2.5250    3.4660   10.2761 C   0  0  0  0  0  0  0  0  0  0  0  0
   -3.4163    3.4128    9.1930 C   0  0  0  0  0  0  0  0  0  0  0  0
   -3.0461    2.7605    7.9999 C   0  0  0  0  0  0  0  0  0  0  0  0
   -1.7845    2.1374    7.8678 C   0  0  0  0  0  0  0  0  0  0  0  0
    1.1229    0.2864    6.5714 C   0  0  1  0  0  0  0  0  0  0  0  0
    0.3968   -0.8951    6.0818 O   0  0  0  0  0  0  0  0  0  0  0  0
   -0.0374   -0.8861    4.6799 C   0  0  1  0  0  0  0  0  0  0  0  0
    0.6170   -1.4174    3.3512 C   0  0  1  0  0  0  0  0  0  0  0  0
    1.0954   -0.4101    2.2973 C   0  0  0  0  0  0  0  0  0  0  0  0
    1.6384    0.7421    3.1816 C   0  0  2  0  0  0  0  0  0  0  0  0
    2.2767    0.0250    4.3560 C   0  0  1  0  0  0  0  0  0  0  0  0
    1.6954    1.0248    5.3414 C   0  0  1  0  0  0  0  0  0  0  0  0
    0.6629    1.3609    4.2434 C   0  0  2  0  0  0  0  0  0  0  0  0
    1.4852   -1.2495    4.4561 C   0  0  1  0  0  0  0  0  0  0  0  0
    1.0725    1.3916    9.1513 H   0  0  0  0  0  0  0  0  0  0  0  0
   -2.3091    1.6874    1.7350 H   0  0  0  0  0  0  0  0  0  0  0  0
   -0.6463    2.1386    2.0576 H   0  0  0  0  0  0  0  0  0  0  0  0
   -1.9192    2.6082    3.1711 H   0  0  0  0  0  0  0  0  0  0  0  0
   -2.1813    1.9074    5.1372 H   0  0  0  0  0  0  0  0  0  0  0  0
   -2.4480    0.2672    5.5825 H   0  0  0  0  0  0  0  0  0  0  0  0
   -0.5734    2.8941   11.0009 H   0  0  0  0  0  0  0  0  0  0  0  0
   -2.8098    3.9578   11.1953 H   0  0  0  0  0  0  0  0  0  0  0  0
   -4.3962    3.8620    9.2774 H   0  0  0  0  0  0  0  0  0  0  0  0
   -3.7456    2.7110    7.1797 H   0  0  0  0  0  0  0  0  0  0  0  0
    1.9222   -0.0188    7.2493 H   0  0  0  0  0  0  0  0  0  0  0  0
    0.3896   -2.4256    3.0382 H   0  0  0  0  0  0  0  0  0  0  0  0
    1.8858   -0.8608    1.6920 H   0  0  0  0  0  0  0  0  0  0  0  0
    0.2887   -0.1269    1.6217 H   0  0  0  0  0  0  0  0  0  0  0  0
    2.2733    1.4892    2.6975 H   0  0  0  0  0  0  0  0  0  0  0  0
    3.3692   -0.0479    4.3304 H   0  0  0  0  0  0  0  0  0  0  0  0
    2.3508    1.8770    5.5397 H   0  0  0  0  0  0  0  0  0  0  0  0
    0.5273    2.4328    4.1271 H   0  0  0  0  0  0  0  0  0  0  0  0
    1.9535   -2.1305    4.8930 H   0  0  0  0  0  0  0  0  0  0  0  0
  1  2  1  0
  1 25  1  0
  1 26  1  0
  1 27  1  0
  3  2  1  6
  3 16  1  0
  3 22  1  0
  3  4  1  0
  4  5  1  0
  4 28  1  0
  4 29  1  0
  5 13  1  0
  5  6  2  0
  6  7  1  0
  6 14  1  0
  7 24  1  0
  7  8  1  0
  8 13  2  0
  8  9  1  0
  9 10  2  0
  9 30  1  0
 10 11  1  0
 10 31  1  0
 11 12  2  0
 11 32  1  0
 12 13  1  0
 12 33  1  0
 14 21  1  0
 14 15  1  0
 14 34  1  1
 16 15  1  1
 16 23  1  0
 16 17  1  0
 17 23  1  0
 17 18  1  0
 17 35  1  6
 18 19  1  0
 18 36  1  0
 18 37  1  0
 19 22  1  0
 19 20  1  0
 19 38  1  6
 20 21  1  0
 20 23  1  0
 20 39  1  6
 21 22  1  0
 21 40  1  1
 22 41  1  6
 23 42  1  1
M  END
>  <i_m_ct_stereo_status>  (71) 
1

>  <s_m_source_file>  (71) 
/var/tmp/pbs.5076255.sched01/tmpc_kifbv4/0gx9_4qhc.sdf

>  <i_m_source_file_index>  (71) 
32

>  <i_lp_mmshare_version>  (71) 
48012

>  <i_f3d_flags>  (71) 
0

>  <s_epik_input>  (71) 
W0NIM11PW0NAQF0xKFtDQEBdMjM0KVtDQEBIXTVbQ0BIXTZbQ0BIXShbQ0BASF00W0NAQEhdM1tDSDJdNilbQ0BASF01W0NASF0oTzIpYzdjKFtDSDJdMSljOGMoW25IXTcpW2NIXVtjSF1bY0hdW2NIXTg=

>  <s_epik_cmdline>  (71) 
J2VwaWtfcHl0aG9uJywgJy1waHQnLCAnMi4wJywgJy1waCcsICc3LjAnLCAnLXRuJywgJzgnLCAnLW1hJywgJzIwMCcsICctaW1hZScsICc8aW5maWxlLm1hZT4nLCAnLW9tYWUnLCAnPG91dGZpbGUubWFlPic=

>  <r_lp_tautomer_probability>  (71) 
1

>  <r_epik_Ionization_Penalty>  (71) 
2.39328e-09

>  <r_epik_Ionization_Penalty_Charging>  (71) 
0

>  <r_epik_Ionization_Penalty_Neutral>  (71) 
2.39328e-09

>  <r_epik_State_Penalty>  (71) 
-0

>  <r_epik_Charging_Adjusted_Penalty>  (71) 
0

>  <i_epik_Tot_Q>  (71) 
0

>  <i_epik_Tot_abs_Q>  (71) 
0

>  <s_lp_Force_Field>  (71) 
OPLS3e

>  <r_lp_Energy>  (71) 
171.108

>  <b_lp_Chiralities_Consistent>  (71) 
1

>  <s_lp_Variant>  (71) 
24:0-1

>  <s_i_glide_gridfile>  (71) 
pfpi4k_grid

>  <i_i_glide_lignum>  (71) 
32

>  <i_i_glide_rotatable_bonds>  (71) 
1

>  <r_i_docking_score>  (71) 
-2.61943

>  <r_i_glide_ligand_efficiency>  (71) 
-0.113888

>  <r_i_glide_ligand_efficiency_sa>  (71) 
-0.323883

>  <r_i_glide_ligand_efficiency_ln>  (71) 
-0.633403

>  <r_i_glide_gscore>  (71) 
-2.61943

>  <r_i_glide_lipo>  (71) 
-0.158881

>  <r_i_glide_hbond>  (71) 
0

>  <r_i_glide_metal>  (71) 
-0

>  <r_i_glide_rewards>  (71) 
-1.32702

>  <r_i_glide_evdw>  (71) 
-18.9005

>  <r_i_glide_ecoul>  (71) 
-1.22205

>  <r_i_glide_erotb>  (71) 
0

>  <r_i_glide_esite>  (71) 
-0.00519992

>  <r_i_glide_emodel>  (71) 
-22.0532

>  <r_i_glide_energy>  (71) 
-20.1225

>  <r_i_glide_einternal>  (71) 
2.83692

>  <r_i_glide_intrahb_reward>  (71) 
-0

>  <i_i_glide_confnum>  (71) 
2

>  <i_i_glide_posenum>  (71) 
3

>  <r_i_glide_eff_state_penalty>  (71) 
0

>  <ligand_id>  (71) 
24

>  <original_smiles>  (71) 
COC12Cc3c([nH]c4ccccc34)C3OC14C1CC5C(C3C52)C14

>  <smiles>  (71) 
[H]c1c([H])c([H])c2c(c1[H])c1c(n2[H])C2([H])OC34C5([H])C([H])([H])C6([H])C([H])(C2([H])C6([H])C3(OC([H])([H])[H])C1([H])[H])C54[H]

$$$$
24:0:2
     RDKit          3D

 42 49  0  0  1  0  0  0  0  0999 V2000
   -0.2745   -1.5474    4.8390 C   0  0  0  0  0  0  0  0  0  0  0  0
   -0.5881   -0.3978    4.0618 O   0  0  0  0  0  0  0  0  0  0  0  0
   -0.0326    0.8634    4.4618 C   0  0  1  0  0  0  0  0  0  0  0  0
   -0.7720    1.1884    5.8001 C   0  0  0  0  0  0  0  0  0  0  0  0
   -0.6853    2.5898    6.3092 C   0  0  0  0  0  0  0  0  0  0  0  0
    0.1930    3.5322    5.8694 C   0  0  0  0  0  0  0  0  0  0  0  0
    0.0261    4.6998    6.5950 N   0  0  0  0  0  0  0  0  0  0  0  0
   -0.9788    4.5353    7.5284 C   0  0  0  0  0  0  0  0  0  0  0  0
   -1.5268    5.4014    8.4911 C   0  0  0  0  0  0  0  0  0  0  0  0
   -2.5714    4.9442    9.3133 C   0  0  0  0  0  0  0  0  0  0  0  0
   -3.0562    3.6315    9.1723 C   0  0  0  0  0  0  0  0  0  0  0  0
   -2.4972    2.7702    8.2081 C   0  0  0  0  0  0  0  0  0  0  0  0
   -1.4494    3.2006    7.3604 C   0  0  0  0  0  0  0  0  0  0  0  0
    1.2010    3.3438    4.8045 C   0  0  1  0  0  0  0  0  0  0  0  0
    1.9129    2.1128    5.1770 O   0  0  0  0  0  0  0  0  0  0  0  0
    1.5315    0.8747    4.4948 C   0  0  1  0  0  0  0  0  0  0  0  0
    2.0544    0.1433    3.2029 C   0  0  1  0  0  0  0  0  0  0  0  0
    1.1733    0.0983    1.9484 C   0  0  0  0  0  0  0  0  0  0  0  0
    0.4839    1.4770    1.9922 C   0  0  2  0  0  0  0  0  0  0  0  0
    1.5658    2.4052    2.5140 C   0  0  1  0  0  0  0  0  0  0  0  0
    0.5730    3.1134    3.4157 C   0  0  1  0  0  0  0  0  0  0  0  0
   -0.3022    1.8382    3.2974 C   0  0  2  0  0  0  0  0  0  0  0  0
    2.4212    1.5046    3.3574 C   0  0  1  0  0  0  0  0  0  0  0  0
    0.5966    5.5207    6.4572 H   0  0  0  0  0  0  0  0  0  0  0  0
   -0.5853   -2.4322    4.2832 H   0  0  0  0  0  0  0  0  0  0  0  0
   -0.8161   -1.5552    5.7837 H   0  0  0  0  0  0  0  0  0  0  0  0
    0.7919   -1.6438    5.0393 H   0  0  0  0  0  0  0  0  0  0  0  0
   -1.8269    0.9601    5.6537 H   0  0  0  0  0  0  0  0  0  0  0  0
   -0.4230    0.5156    6.5802 H   0  0  0  0  0  0  0  0  0  0  0  0
   -1.1495    6.4052    8.5975 H   0  0  0  0  0  0  0  0  0  0  0  0
   -2.9941    5.6015   10.0583 H   0  0  0  0  0  0  0  0  0  0  0  0
   -3.8538    3.2798    9.8123 H   0  0  0  0  0  0  0  0  0  0  0  0
   -2.8700    1.7639    8.1133 H   0  0  0  0  0  0  0  0  0  0  0  0
    1.9025    4.1806    4.7883 H   0  0  0  0  0  0  0  0  0  0  0  0
    2.8119   -0.6221    3.3257 H   0  0  0  0  0  0  0  0  0  0  0  0
    1.8099   -0.0011    1.0663 H   0  0  0  0  0  0  0  0  0  0  0  0
    0.4834   -0.7419    1.9588 H   0  0  0  0  0  0  0  0  0  0  0  0
   -0.0033    1.8129    1.0737 H   0  0  0  0  0  0  0  0  0  0  0  0
    2.0664    3.0243    1.7664 H   0  0  0  0  0  0  0  0  0  0  0  0
    0.1071    3.9852    2.9523 H   0  0  0  0  0  0  0  0  0  0  0  0
   -1.3543    2.0518    3.1126 H   0  0  0  0  0  0  0  0  0  0  0  0
    3.4736    1.7517    3.5021 H   0  0  0  0  0  0  0  0  0  0  0  0
  1  2  1  0
  1 25  1  0
  1 26  1  0
  1 27  1  0
  3  2  1  6
  3 16  1  0
  3 22  1  0
  3  4  1  0
  4  5  1  0
  4 28  1  0
  4 29  1  0
  5 13  1  0
  5  6  2  0
  6  7  1  0
  6 14  1  0
  7 24  1  0
  7  8  1  0
  8 13  2  0
  8  9  1  0
  9 10  2  0
  9 30  1  0
 10 11  1  0
 10 31  1  0
 11 12  2  0
 11 32  1  0
 12 13  1  0
 12 33  1  0
 14 21  1  0
 14 15  1  0
 14 34  1  6
 16 15  1  1
 16 23  1  0
 16 17  1  0
 17 23  1  0
 17 18  1  0
 17 35  1  1
 18 19  1  0
 18 36  1  0
 18 37  1  0
 19 22  1  0
 19 20  1  0
 19 38  1  6
 20 21  1  0
 20 23  1  0
 20 39  1  6
 21 22  1  0
 21 40  1  6
 22 41  1  6
 23 42  1  1
M  END
>  <i_m_ct_stereo_status>  (72) 
1

>  <s_m_source_file>  (72) 
/var/tmp/pbs.5076255.sched01/tmpc_kifbv4/0gx9_4qhc.sdf

>  <i_m_source_file_index>  (72) 
32

>  <i_lp_mmshare_version>  (72) 
48012

>  <i_f3d_flags>  (72) 
0

>  <s_epik_input>  (72) 
W0NIM11PW0NAQF0xKFtDQEBdMjM0KVtDQEBIXTVbQ0BIXTZbQ0BIXShbQ0BASF00W0NAQEhdM1tDSDJdNilbQ0BASF01W0NASF0oTzIpYzdjKFtDSDJdMSljOGMoW25IXTcpW2NIXVtjSF1bY0hdW2NIXTg=

>  <s_epik_cmdline>  (72) 
J2VwaWtfcHl0aG9uJywgJy1waHQnLCAnMi4wJywgJy1waCcsICc3LjAnLCAnLXRuJywgJzgnLCAnLW1hJywgJzIwMCcsICctaW1hZScsICc8aW5maWxlLm1hZT4nLCAnLW9tYWUnLCAnPG91dGZpbGUubWFlPic=

>  <r_lp_tautomer_probability>  (72) 
1

>  <r_epik_Ionization_Penalty>  (72) 
2.39328e-09

>  <r_epik_Ionization_Penalty_Charging>  (72) 
0

>  <r_epik_Ionization_Penalty_Neutral>  (72) 
2.39328e-09

>  <r_epik_State_Penalty>  (72) 
-0

>  <r_epik_Charging_Adjusted_Penalty>  (72) 
0

>  <i_epik_Tot_Q>  (72) 
0

>  <i_epik_Tot_abs_Q>  (72) 
0

>  <s_lp_Force_Field>  (72) 
OPLS3e

>  <r_lp_Energy>  (72) 
171.108

>  <b_lp_Chiralities_Consistent>  (72) 
1

>  <s_lp_Variant>  (72) 
24:0-1

>  <s_i_glide_gridfile>  (72) 
pfpi4k_grid

>  <i_i_glide_lignum>  (72) 
32

>  <i_i_glide_rotatable_bonds>  (72) 
1

>  <r_i_docking_score>  (72) 
-2.414

>  <r_i_glide_ligand_efficiency>  (72) 
-0.104957

>  <r_i_glide_ligand_efficiency_sa>  (72) 
-0.298483

>  <r_i_glide_ligand_efficiency_ln>  (72) 
-0.583728

>  <r_i_glide_gscore>  (72) 
-2.414

>  <r_i_glide_lipo>  (72) 
-0.127887

>  <r_i_glide_hbond>  (72) 
0

>  <r_i_glide_metal>  (72) 
-0

>  <r_i_glide_rewards>  (72) 
-1.32702

>  <r_i_glide_evdw>  (72) 
-19.0727

>  <r_i_glide_ecoul>  (72) 
-0.0259519

>  <r_i_glide_erotb>  (72) 
0

>  <r_i_glide_esite>  (72) 
-0.00156626

>  <r_i_glide_emodel>  (72) 
-22.3281

>  <r_i_glide_energy>  (72) 
-19.0987

>  <r_i_glide_einternal>  (72) 
0.00788186

>  <r_i_glide_intrahb_reward>  (72) 
-0

>  <i_i_glide_confnum>  (72) 
2

>  <i_i_glide_posenum>  (72) 
13

>  <r_i_glide_eff_state_penalty>  (72) 
0

>  <ligand_id>  (72) 
24

>  <original_smiles>  (72) 
COC12Cc3c([nH]c4ccccc34)C3OC14C1CC5C(C3C52)C14

>  <smiles>  (72) 
[H]c1c([H])c([H])c2c(c1[H])c1c(n2[H])C2([H])OC34C5([H])C([H])([H])C6([H])C([H])(C2([H])C6([H])C3(OC([H])([H])[H])C1([H])[H])C54[H]

$$$$
26:0:0
     RDKit          3D

 41 45  0  0  1  0  0  0  0  0999 V2000
    1.0970   -5.4686    4.0699 O   0  0  0  0  0  0  0  0  0  0  0  0
    1.3200   -4.3189    3.6835 C   0  0  0  0  0  0  0  0  0  0  0  0
    0.7509   -3.0249    4.2539 C   0  0  1  0  0  0  0  0  0  0  0  0
    0.4522   -3.0254    5.7524 C   0  0  0  0  0  0  0  0  0  0  0  0
    0.9537   -2.0050    6.5878 C   0  0  0  0  0  0  0  0  0  0  0  0
    0.6191   -2.0179    7.9531 C   0  0  0  0  0  0  0  0  0  0  0  0
   -0.1889   -2.9532    8.5025 N   0  0  0  0  0  0  0  0  0  0  0  0
   -0.6825   -3.9179    7.7036 C   0  0  0  0  0  0  0  0  0  0  0  0
   -0.4082   -3.9871    6.3295 C   0  0  0  0  0  0  0  0  0  0  0  0
    1.7125   -2.0438    3.8345 O   0  0  0  0  0  0  0  0  0  0  0  0
    2.2131   -2.4999    2.6024 C   0  0  1  0  0  0  0  0  0  0  0  0
    3.6372   -2.0336    2.3275 C   0  0  0  0  0  0  0  0  0  0  0  0
    4.2229   -1.0147    3.1191 C   0  0  0  0  0  0  0  0  0  0  0  0
    5.5053   -0.5288    2.8184 C   0  0  0  0  0  0  0  0  0  0  0  0
    6.2047   -1.0620    1.7235 C   0  0  0  0  0  0  0  0  0  0  0  0
    5.6445   -2.0799    0.9431 C   0  0  0  0  0  0  0  0  0  0  0  0
    4.3532   -2.5856    1.2211 C   0  0  0  0  0  0  0  0  0  0  0  0
    3.7656   -3.6316    0.3268 C   0  0  0  0  0  0  0  0  0  0  0  0
    3.8350   -3.4514   -1.1400 C   0  0  0  0  0  0  0  0  0  0  0  0
    2.6995   -3.0579   -1.8808 C   0  0  0  0  0  0  0  0  0  0  0  0
    2.8269   -2.8783   -3.2718 C   0  0  0  0  0  0  0  0  0  0  0  0
    3.9966   -3.0337   -3.9225 N   0  0  0  0  0  0  0  0  0  0  0  0
    5.0744   -3.4198   -3.2113 C   0  0  0  0  0  0  0  0  0  0  0  0
    5.0461   -3.6533   -1.8283 C   0  0  0  0  0  0  0  0  0  0  0  0
    3.1299   -4.6462    0.7712 N   0  0  0  0  0  0  0  0  0  0  0  0
    3.1131   -4.7171    2.1752 O   0  0  0  0  0  0  0  0  0  0  0  0
    2.0765   -3.9227    2.6782 N   0  0  0  0  0  0  0  0  0  0  0  0
   -0.1870   -2.8189    3.7345 H   0  0  0  0  0  0  0  0  0  0  0  0
    1.5854   -1.2260    6.1825 H   0  0  0  0  0  0  0  0  0  0  0  0
    1.0011   -1.2515    8.6079 H   0  0  0  0  0  0  0  0  0  0  0  0
   -1.3223   -4.6447    8.1768 H   0  0  0  0  0  0  0  0  0  0  0  0
   -0.8534   -4.7747    5.7415 H   0  0  0  0  0  0  0  0  0  0  0  0
    1.5270   -2.1805    1.8117 H   0  0  0  0  0  0  0  0  0  0  0  0
    3.6814   -0.5750    3.9456 H   0  0  0  0  0  0  0  0  0  0  0  0
    5.9479    0.2705    3.3917 H   0  0  0  0  0  0  0  0  0  0  0  0
    7.1782   -0.6815    1.4537 H   0  0  0  0  0  0  0  0  0  0  0  0
    6.2256   -2.4206    0.1040 H   0  0  0  0  0  0  0  0  0  0  0  0
    1.7414   -2.9148   -1.4107 H   0  0  0  0  0  0  0  0  0  0  0  0
    1.9793   -2.6025   -3.8815 H   0  0  0  0  0  0  0  0  0  0  0  0
    6.0010   -3.5299   -3.7528 H   0  0  0  0  0  0  0  0  0  0  0  0
    5.9385   -3.9782   -1.3198 H   0  0  0  0  0  0  0  0  0  0  0  0
  1  2  2  0
  2 27  1  0
  2  3  1  0
  3  4  1  0
  3 10  1  0
  3 28  1  6
  4  9  1  0
  4  5  2  0
  5  6  1  0
  5 29  1  0
  6  7  2  0
  6 30  1  0
  7  8  1  0
  8  9  2  0
  8 31  1  0
  9 32  1  0
 10 11  1  0
 11 27  1  0
 11 12  1  0
 11 33  1  6
 12 17  2  0
 12 13  1  0
 13 14  2  0
 13 34  1  0
 14 15  1  0
 14 35  1  0
 15 16  2  0
 15 36  1  0
 16 17  1  0
 16 37  1  0
 17 18  1  0
 18 19  1  0
 18 25  2  0
 19 24  1  0
 19 20  2  0
 20 21  1  0
 20 38  1  0
 21 22  2  0
 21 39  1  0
 22 23  1  0
 23 24  2  0
 23 40  1  0
 24 41  1  0
 25 26  1  0
 26 27  1  0
M  END
>  <i_m_ct_stereo_status>  (73) 
1

>  <s_m_source_file>  (73) 
/var/tmp/pbs.5076255.sched01/tmpc_kifbv4/0gx9_4qhc.sdf

>  <i_m_source_file_index>  (73) 
34

>  <i_lp_mmshare_version>  (73) 
48012

>  <i_f3d_flags>  (73) 
0

>  <s_epik_input>  (73) 
W2NIXTFbY0hdbltjSF1bY0hdYzFbQ0BASF0oTzIpQyg9TylOM09OPUMoYyhjNFtDQEhdMjMpW2NIXVtjSF1bY0hdW2NIXTQpYzVbY0hdW2NIXW5bY0hdW2NIXTU=

>  <s_epik_cmdline>  (73) 
J2VwaWtfcHl0aG9uJywgJy1waHQnLCAnMi4wJywgJy1waCcsICc3LjAnLCAnLXRuJywgJzgnLCAnLW1hJywgJzIwMCcsICctaW1hZScsICc8aW5maWxlLm1hZT4nLCAnLW9tYWUnLCAnPG91dGZpbGUubWFlPic=

>  <r_epik_Ionization_Penalty>  (73) 
0.038267

>  <r_epik_Ionization_Penalty_Charging>  (73) 
0

>  <r_epik_Ionization_Penalty_Neutral>  (73) 
0.038267

>  <r_epik_State_Penalty>  (73) 
0.0300972

>  <r_epik_Charging_Adjusted_Penalty>  (73) 
0.0300972

>  <i_epik_Tot_Q>  (73) 
0

>  <i_epik_Tot_abs_Q>  (73) 
0

>  <s_epik_Chemistry_Notes>  (73) 
This compound has an imine and may undergo hydrolysis. This compound contains an acetal/aminal-like group ( X-CH(R)-Y where X, Y are N, S, or O) that may be acid/base labile, releasing an aldehyde. This compound has a N-S or N-O group and may undergo hydrolysis at high or low pH.

>  <s_lp_Force_Field>  (73) 
OPLS3e

>  <r_lp_Energy>  (73) 
64.5825

>  <b_lp_Chiralities_Consistent>  (73) 
1

>  <s_lp_Variant>  (73) 
26:0-1

>  <s_i_glide_gridfile>  (73) 
pfpi4k_grid

>  <i_i_glide_lignum>  (73) 
34

>  <i_i_glide_rotatable_bonds>  (73) 
2

>  <r_i_docking_score>  (73) 
-4.33892

>  <r_i_glide_ligand_efficiency>  (73) 
-0.160701

>  <r_i_glide_ligand_efficiency_sa>  (73) 
-0.482102

>  <r_i_glide_ligand_efficiency_ln>  (73) 
-1.01003

>  <r_i_glide_gscore>  (73) 
-4.33892

>  <r_i_glide_lipo>  (73) 
-0.780579

>  <r_i_glide_hbond>  (73) 
-0.229794

>  <r_i_glide_metal>  (73) 
-0

>  <r_i_glide_rewards>  (73) 
-0.968825

>  <r_i_glide_evdw>  (73) 
-27.5447

>  <r_i_glide_ecoul>  (73) 
-8.33944

>  <r_i_glide_erotb>  (73) 
0.298326

>  <r_i_glide_esite>  (73) 
-0.0298914

>  <r_i_glide_emodel>  (73) 
-42.8264

>  <r_i_glide_energy>  (73) 
-35.8842

>  <r_i_glide_einternal>  (73) 
3.20163

>  <r_i_glide_intrahb_reward>  (73) 
-0

>  <i_i_glide_confnum>  (73) 
4

>  <i_i_glide_posenum>  (73) 
2

>  <r_i_glide_eff_state_penalty>  (73) 
0

>  <ligand_id>  (73) 
26

>  <original_smiles>  (73) 
O=C1C(c2ccncc2)OC2c3ccccc3C(c3ccncc3)=NON12

>  <smiles>  (73) 
[H]c1nc([H])c([H])c(C2=NON3C(=O)C([H])(c4c([H])c([H])nc([H])c4[H])OC3([H])c3c([H])c([H])c([H])c([H])c32)c1[H]

$$$$
26:0:1
     RDKit          3D

 41 45  0  0  1  0  0  0  0  0999 V2000
    1.1691   -5.4614    3.6497 O   0  0  0  0  0  0  0  0  0  0  0  0
    1.4491   -4.2861    3.4023 C   0  0  0  0  0  0  0  0  0  0  0  0
    0.9492   -3.0415    4.1257 C   0  0  1  0  0  0  0  0  0  0  0  0
    0.6551   -3.1880    5.6146 C   0  0  0  0  0  0  0  0  0  0  0  0
    1.1299   -2.2322    6.5417 C   0  0  0  0  0  0  0  0  0  0  0  0
    0.7842   -2.3748    7.8998 C   0  0  0  0  0  0  0  0  0  0  0  0
   -0.0162   -3.3602    8.3575 N   0  0  0  0  0  0  0  0  0  0  0  0
   -0.4720   -4.2707    7.4757 C   0  0  0  0  0  0  0  0  0  0  0  0
   -0.1792   -4.2189    6.1020 C   0  0  0  0  0  0  0  0  0  0  0  0
    1.9520   -2.0641    3.8046 O   0  0  0  0  0  0  0  0  0  0  0  0
    2.4179   -2.4033    2.5254 C   0  0  1  0  0  0  0  0  0  0  0  0
    3.8541   -1.9785    2.2882 C   0  0  0  0  0  0  0  0  0  0  0  0
    4.5003   -1.0820    3.1691 C   0  0  0  0  0  0  0  0  0  0  0  0
    5.7973   -0.6221    2.8812 C   0  0  0  0  0  0  0  0  0  0  0  0
    6.4477   -1.0626    1.7146 C   0  0  0  0  0  0  0  0  0  0  0  0
    5.8239   -1.9649    0.8468 C   0  0  0  0  0  0  0  0  0  0  0  0
    4.5271   -2.4349    1.1179 C   0  0  0  0  0  0  0  0  0  0  0  0
    3.8982   -3.3451    0.1309 C   0  0  0  0  0  0  0  0  0  0  0  0
    3.9868   -2.9903   -1.2968 C   0  0  0  0  0  0  0  0  0  0  0  0
    3.4895   -1.7600   -1.7737 C   0  0  0  0  0  0  0  0  0  0  0  0
    3.5911   -1.4784   -3.1494 C   0  0  0  0  0  0  0  0  0  0  0  0
    4.1900   -2.3129   -4.0209 N   0  0  0  0  0  0  0  0  0  0  0  0
    4.6778   -3.4783   -3.5538 C   0  0  0  0  0  0  0  0  0  0  0  0
    4.6205   -3.8552   -2.2037 C   0  0  0  0  0  0  0  0  0  0  0  0
    3.2494   -4.3907    0.4677 N   0  0  0  0  0  0  0  0  0  0  0  0
    3.2194   -4.5987    1.8575 O   0  0  0  0  0  0  0  0  0  0  0  0
    2.2111   -3.8160    2.4319 N   0  0  0  0  0  0  0  0  0  0  0  0
    0.0204   -2.7283    3.6411 H   0  0  0  0  0  0  0  0  0  0  0  0
    1.7391   -1.4048    6.2102 H   0  0  0  0  0  0  0  0  0  0  0  0
    1.1596   -1.6685    8.6237 H   0  0  0  0  0  0  0  0  0  0  0  0
   -1.0784   -5.0658    7.8769 H   0  0  0  0  0  0  0  0  0  0  0  0
   -0.5931   -4.9635    5.4440 H   0  0  0  0  0  0  0  0  0  0  0  0
    1.7443   -1.9669    1.7834 H   0  0  0  0  0  0  0  0  0  0  0  0
    3.9983   -0.7098    4.0537 H   0  0  0  0  0  0  0  0  0  0  0  0
    6.2924    0.0698    3.5394 H   0  0  0  0  0  0  0  0  0  0  0  0
    7.4470   -0.7206    1.4888 H   0  0  0  0  0  0  0  0  0  0  0  0
    6.3472   -2.2870   -0.0399 H   0  0  0  0  0  0  0  0  0  0  0  0
    3.0184   -1.0540   -1.1106 H   0  0  0  0  0  0  0  0  0  0  0  0
    3.2024   -0.5593   -3.5618 H   0  0  0  0  0  0  0  0  0  0  0  0
    5.1362   -4.1318   -4.2821 H   0  0  0  0  0  0  0  0  0  0  0  0
    5.0105   -4.8049   -1.8782 H   0  0  0  0  0  0  0  0  0  0  0  0
  1  2  2  0
  2 27  1  0
  2  3  1  0
  3  4  1  0
  3 10  1  0
  3 28  1  6
  4  9  1  0
  4  5  2  0
  5  6  1  0
  5 29  1  0
  6  7  2  0
  6 30  1  0
  7  8  1  0
  8  9  2  0
  8 31  1  0
  9 32  1  0
 10 11  1  0
 11 27  1  0
 11 12  1  0
 11 33  1  6
 12 17  2  0
 12 13  1  0
 13 14  2  0
 13 34  1  0
 14 15  1  0
 14 35  1  0
 15 16  2  0
 15 36  1  0
 16 17  1  0
 16 37  1  0
 17 18  1  0
 18 19  1  0
 18 25  2  0
 19 24  1  0
 19 20  2  0
 20 21  1  0
 20 38  1  0
 21 22  2  0
 21 39  1  0
 22 23  1  0
 23 24  2  0
 23 40  1  0
 24 41  1  0
 25 26  1  0
 26 27  1  0
M  END
>  <i_m_ct_stereo_status>  (74) 
1

>  <s_m_source_file>  (74) 
/var/tmp/pbs.5076255.sched01/tmpc_kifbv4/0gx9_4qhc.sdf

>  <i_m_source_file_index>  (74) 
34

>  <i_lp_mmshare_version>  (74) 
48012

>  <i_f3d_flags>  (74) 
0

>  <s_epik_input>  (74) 
W2NIXTFbY0hdbltjSF1bY0hdYzFbQ0BASF0oTzIpQyg9TylOM09OPUMoYyhjNFtDQEhdMjMpW2NIXVtjSF1bY0hdW2NIXTQpYzVbY0hdW2NIXW5bY0hdW2NIXTU=

>  <s_epik_cmdline>  (74) 
J2VwaWtfcHl0aG9uJywgJy1waHQnLCAnMi4wJywgJy1waCcsICc3LjAnLCAnLXRuJywgJzgnLCAnLW1hJywgJzIwMCcsICctaW1hZScsICc8aW5maWxlLm1hZT4nLCAnLW9tYWUnLCAnPG91dGZpbGUubWFlPic=

>  <r_epik_Ionization_Penalty>  (74) 
0.038267

>  <r_epik_Ionization_Penalty_Charging>  (74) 
0

>  <r_epik_Ionization_Penalty_Neutral>  (74) 
0.038267

>  <r_epik_State_Penalty>  (74) 
0.0300972

>  <r_epik_Charging_Adjusted_Penalty>  (74) 
0.0300972

>  <i_epik_Tot_Q>  (74) 
0

>  <i_epik_Tot_abs_Q>  (74) 
0

>  <s_epik_Chemistry_Notes>  (74) 
This compound has an imine and may undergo hydrolysis. This compound contains an acetal/aminal-like group ( X-CH(R)-Y where X, Y are N, S, or O) that may be acid/base labile, releasing an aldehyde. This compound has a N-S or N-O group and may undergo hydrolysis at high or low pH.

>  <s_lp_Force_Field>  (74) 
OPLS3e

>  <r_lp_Energy>  (74) 
64.5825

>  <b_lp_Chiralities_Consistent>  (74) 
1

>  <s_lp_Variant>  (74) 
26:0-1

>  <s_i_glide_gridfile>  (74) 
pfpi4k_grid

>  <i_i_glide_lignum>  (74) 
34

>  <i_i_glide_rotatable_bonds>  (74) 
2

>  <r_i_docking_score>  (74) 
-4.07227

>  <r_i_glide_ligand_efficiency>  (74) 
-0.150825

>  <r_i_glide_ligand_efficiency_sa>  (74) 
-0.452474

>  <r_i_glide_ligand_efficiency_ln>  (74) 
-0.947957

>  <r_i_glide_gscore>  (74) 
-4.07227

>  <r_i_glide_lipo>  (74) 
-0.601566

>  <r_i_glide_hbond>  (74) 
-0.250955

>  <r_i_glide_metal>  (74) 
-0

>  <r_i_glide_rewards>  (74) 
-0.992429

>  <r_i_glide_evdw>  (74) 
-25.4752

>  <r_i_glide_ecoul>  (74) 
-8.14244

>  <r_i_glide_erotb>  (74) 
0.298326

>  <r_i_glide_esite>  (74) 
-0.0305191

>  <r_i_glide_emodel>  (74) 
-40.5504

>  <r_i_glide_energy>  (74) 
-33.6176

>  <r_i_glide_einternal>  (74) 
2.31715

>  <r_i_glide_intrahb_reward>  (74) 
-0

>  <i_i_glide_confnum>  (74) 
2

>  <i_i_glide_posenum>  (74) 
8

>  <r_i_glide_eff_state_penalty>  (74) 
0

>  <ligand_id>  (74) 
26

>  <original_smiles>  (74) 
O=C1C(c2ccncc2)OC2c3ccccc3C(c3ccncc3)=NON12

>  <smiles>  (74) 
[H]c1nc([H])c([H])c(C2=NON3C(=O)C([H])(c4c([H])c([H])nc([H])c4[H])OC3([H])c3c([H])c([H])c([H])c([H])c32)c1[H]

$$$$
26:0:2
     RDKit          3D

 41 45  0  0  1  0  0  0  0  0999 V2000
    0.0359   -6.2916    3.0541 O   0  0  0  0  0  0  0  0  0  0  0  0
    1.0549   -5.6247    3.2557 C   0  0  0  0  0  0  0  0  0  0  0  0
    1.5895   -5.1408    4.5954 C   0  0  1  0  0  0  0  0  0  0  0  0
    1.3033   -6.0431    5.7881 C   0  0  0  0  0  0  0  0  0  0  0  0
    1.8299   -7.3467    5.8747 C   0  0  0  0  0  0  0  0  0  0  0  0
    1.5400   -8.1170    7.0196 C   0  0  0  0  0  0  0  0  0  0  0  0
    0.7881   -7.6578    8.0431 N   0  0  0  0  0  0  0  0  0  0  0  0
    0.2836   -6.4124    7.9564 C   0  0  0  0  0  0  0  0  0  0  0  0
    0.5062   -5.5700    6.8522 C   0  0  0  0  0  0  0  0  0  0  0  0
    2.9840   -4.9488    4.3323 O   0  0  0  0  0  0  0  0  0  0  0  0
    3.0591   -4.5452    2.9907 C   0  0  1  0  0  0  0  0  0  0  0  0
    4.3891   -4.9068    2.3354 C   0  0  0  0  0  0  0  0  0  0  0  0
    5.4972   -5.3272    3.1104 C   0  0  0  0  0  0  0  0  0  0  0  0
    6.7416   -5.5742    2.5032 C   0  0  0  0  0  0  0  0  0  0  0  0
    6.8889   -5.4013    1.1148 C   0  0  0  0  0  0  0  0  0  0  0  0
    5.7895   -4.9945    0.3414 C   0  0  0  0  0  0  0  0  0  0  0  0
    4.5345   -4.7434    0.9289 C   0  0  0  0  0  0  0  0  0  0  0  0
    3.4225   -4.2580    0.0527 C   0  0  0  0  0  0  0  0  0  0  0  0
    3.6875   -3.1531   -0.9126 C   0  0  0  0  0  0  0  0  0  0  0  0
    2.9730   -3.0518   -2.1259 C   0  0  0  0  0  0  0  0  0  0  0  0
    3.2718   -2.0081   -3.0126 C   0  0  0  0  0  0  0  0  0  0  0  0
    4.2194   -1.0797   -2.7648 N   0  0  0  0  0  0  0  0  0  0  0  0
    4.8794   -1.1486   -1.5951 C   0  0  0  0  0  0  0  0  0  0  0  0
    4.6538   -2.1568   -0.6382 C   0  0  0  0  0  0  0  0  0  0  0  0
    2.2378   -4.7402    0.1334 N   0  0  0  0  0  0  0  0  0  0  0  0
    2.0902   -5.7383    1.1182 O   0  0  0  0  0  0  0  0  0  0  0  0
    1.9107   -5.1430    2.3760 N   0  0  0  0  0  0  0  0  0  0  0  0
    1.1340   -4.1661    4.7775 H   0  0  0  0  0  0  0  0  0  0  0  0
    2.4515   -7.7445    5.0859 H   0  0  0  0  0  0  0  0  0  0  0  0
    1.9409   -9.1134    7.1227 H   0  0  0  0  0  0  0  0  0  0  0  0
   -0.2991   -6.0717    8.7974 H   0  0  0  0  0  0  0  0  0  0  0  0
    0.0869   -4.5759    6.8371 H   0  0  0  0  0  0  0  0  0  0  0  0
    2.8756   -3.4684    2.9478 H   0  0  0  0  0  0  0  0  0  0  0  0
    5.4088   -5.4297    4.1799 H   0  0  0  0  0  0  0  0  0  0  0  0
    7.5979   -5.8606    3.0978 H   0  0  0  0  0  0  0  0  0  0  0  0
    7.8496   -5.5650    0.6427 H   0  0  0  0  0  0  0  0  0  0  0  0
    5.9158   -4.8335   -0.7148 H   0  0  0  0  0  0  0  0  0  0  0  0
    2.2131   -3.7776   -2.3832 H   0  0  0  0  0  0  0  0  0  0  0  0
    2.7510   -1.9119   -3.9519 H   0  0  0  0  0  0  0  0  0  0  0  0
    5.6324   -0.3906   -1.4278 H   0  0  0  0  0  0  0  0  0  0  0  0
    5.2312   -2.1545    0.2738 H   0  0  0  0  0  0  0  0  0  0  0  0
  1  2  2  0
  2 27  1  0
  2  3  1  0
  3  4  1  0
  3 10  1  0
  3 28  1  1
  4  9  1  0
  4  5  2  0
  5  6  1  0
  5 29  1  0
  6  7  2  0
  6 30  1  0
  7  8  1  0
  8  9  2  0
  8 31  1  0
  9 32  1  0
 10 11  1  0
 11 27  1  0
 11 12  1  0
 11 33  1  1
 12 17  2  0
 12 13  1  0
 13 14  2  0
 13 34  1  0
 14 15  1  0
 14 35  1  0
 15 16  2  0
 15 36  1  0
 16 17  1  0
 16 37  1  0
 17 18  1  0
 18 19  1  0
 18 25  2  0
 19 24  1  0
 19 20  2  0
 20 21  1  0
 20 38  1  0
 21 22  2  0
 21 39  1  0
 22 23  1  0
 23 24  2  0
 23 40  1  0
 24 41  1  0
 25 26  1  0
 26 27  1  0
M  END
>  <i_m_ct_stereo_status>  (75) 
1

>  <s_m_source_file>  (75) 
/var/tmp/pbs.5076255.sched01/tmpc_kifbv4/0gx9_4qhc.sdf

>  <i_m_source_file_index>  (75) 
34

>  <i_lp_mmshare_version>  (75) 
48012

>  <i_f3d_flags>  (75) 
0

>  <s_epik_input>  (75) 
W2NIXTFbY0hdbltjSF1bY0hdYzFbQ0BASF0oTzIpQyg9TylOM09OPUMoYyhjNFtDQEhdMjMpW2NIXVtjSF1bY0hdW2NIXTQpYzVbY0hdW2NIXW5bY0hdW2NIXTU=

>  <s_epik_cmdline>  (75) 
J2VwaWtfcHl0aG9uJywgJy1waHQnLCAnMi4wJywgJy1waCcsICc3LjAnLCAnLXRuJywgJzgnLCAnLW1hJywgJzIwMCcsICctaW1hZScsICc8aW5maWxlLm1hZT4nLCAnLW9tYWUnLCAnPG91dGZpbGUubWFlPic=

>  <r_epik_Ionization_Penalty>  (75) 
0.038267

>  <r_epik_Ionization_Penalty_Charging>  (75) 
0

>  <r_epik_Ionization_Penalty_Neutral>  (75) 
0.038267

>  <r_epik_State_Penalty>  (75) 
0.0300972

>  <r_epik_Charging_Adjusted_Penalty>  (75) 
0.0300972

>  <i_epik_Tot_Q>  (75) 
0

>  <i_epik_Tot_abs_Q>  (75) 
0

>  <s_epik_Chemistry_Notes>  (75) 
This compound has an imine and may undergo hydrolysis. This compound contains an acetal/aminal-like group ( X-CH(R)-Y where X, Y are N, S, or O) that may be acid/base labile, releasing an aldehyde. This compound has a N-S or N-O group and may undergo hydrolysis at high or low pH.

>  <s_lp_Force_Field>  (75) 
OPLS3e

>  <r_lp_Energy>  (75) 
64.5825

>  <b_lp_Chiralities_Consistent>  (75) 
1

>  <s_lp_Variant>  (75) 
26:0-1

>  <s_i_glide_gridfile>  (75) 
pfpi4k_grid

>  <i_i_glide_lignum>  (75) 
34

>  <i_i_glide_rotatable_bonds>  (75) 
2

>  <r_i_docking_score>  (75) 
-3.35161

>  <r_i_glide_ligand_efficiency>  (75) 
-0.124134

>  <r_i_glide_ligand_efficiency_sa>  (75) 
-0.372401

>  <r_i_glide_ligand_efficiency_ln>  (75) 
-0.7802

>  <r_i_glide_gscore>  (75) 
-3.35161

>  <r_i_glide_lipo>  (75) 
-0.301223

>  <r_i_glide_hbond>  (75) 
-0.130708

>  <r_i_glide_metal>  (75) 
-0

>  <r_i_glide_rewards>  (75) 
-0.965794

>  <r_i_glide_evdw>  (75) 
-26.2707

>  <r_i_glide_ecoul>  (75) 
-5.08067

>  <r_i_glide_erotb>  (75) 
0.298326

>  <r_i_glide_esite>  (75) 
-0.176578

>  <r_i_glide_emodel>  (75) 
-37.8201

>  <r_i_glide_energy>  (75) 
-31.3514

>  <r_i_glide_einternal>  (75) 
0.252373

>  <r_i_glide_intrahb_reward>  (75) 
-0

>  <i_i_glide_confnum>  (75) 
3

>  <i_i_glide_posenum>  (75) 
27

>  <r_i_glide_eff_state_penalty>  (75) 
0

>  <ligand_id>  (75) 
26

>  <original_smiles>  (75) 
O=C1C(c2ccncc2)OC2c3ccccc3C(c3ccncc3)=NON12

>  <smiles>  (75) 
[H]c1nc([H])c([H])c(C2=NON3C(=O)C([H])(c4c([H])c([H])nc([H])c4[H])OC3([H])c3c([H])c([H])c([H])c([H])c32)c1[H]

$$$$
26:1:0
     RDKit          3D

 42 46  0  0  1  0  0  0  0  0999 V2000
    1.1245   -6.2311    0.3785 O   0  0  0  0  0  0  0  0  0  0  0  0
    1.9651   -6.1297    1.2739 C   0  0  0  0  0  0  0  0  0  0  0  0
    1.7517   -6.4285    2.7472 C   0  0  1  0  0  0  0  0  0  0  0  0
    0.7404   -7.5029    3.0376 C   0  0  0  0  0  0  0  0  0  0  0  0
   -0.3605   -7.1936    3.8693 C   0  0  0  0  0  0  0  0  0  0  0  0
   -1.2749   -8.2117    4.1588 C   0  0  0  0  0  0  0  0  0  0  0  0
   -1.0723   -9.4444    3.6697 N   0  0  0  0  0  0  0  0  0  0  0  0
   -0.0804   -9.7711    2.8254 C   0  0  0  0  0  0  0  0  0  0  0  0
    0.8687   -8.7989    2.4883 C   0  0  0  0  0  0  0  0  0  0  0  0
    3.0585   -6.7128    3.2269 O   0  0  0  0  0  0  0  0  0  0  0  0
    3.9303   -5.9322    2.4534 C   0  0  1  0  0  0  0  0  0  0  0  0
    5.3418   -6.5219    2.3545 C   0  0  0  0  0  0  0  0  0  0  0  0
    5.7139   -7.5739    3.2543 C   0  0  0  0  0  0  0  0  0  0  0  0
    7.0461   -8.0574    3.2387 C   0  0  0  0  0  0  0  0  0  0  0  0
    7.9682   -7.5421    2.3224 C   0  0  0  0  0  0  0  0  0  0  0  0
    7.5795   -6.5528    1.4137 C   0  0  0  0  0  0  0  0  0  0  0  0
    6.2819   -5.9869    1.4194 C   0  0  0  0  0  0  0  0  0  0  0  0
    5.9366   -4.8408    0.4906 C   0  0  0  0  0  0  0  0  0  0  0  0
    6.8314   -3.6541    0.3796 C   0  0  0  0  0  0  0  0  0  0  0  0
    8.1880   -3.7994    0.0095 C   0  0  0  0  0  0  0  0  0  0  0  0
    9.0099   -2.6821    0.0635 C   0  0  0  0  0  0  0  0  0  0  0  0
    8.5514   -1.4584    0.3410 N   0  0  0  0  0  0  0  0  0  0  0  0
    7.2261   -1.2765    0.5460 C   0  0  0  0  0  0  0  0  0  0  0  0
    6.3348   -2.3527    0.6302 C   0  0  0  0  0  0  0  0  0  0  0  0
    4.8243   -4.7867   -0.1328 N   0  0  0  0  0  0  0  0  0  0  0  0
    4.0115   -5.9314    0.0483 O   0  0  0  0  0  0  0  0  0  0  0  0
    3.2414   -5.7792    1.2031 N   0  0  0  0  0  0  0  0  0  0  0  0
    1.4252   -5.4820    3.1720 H   0  0  0  0  0  0  0  0  0  0  0  0
   -0.4674   -6.2244    4.3417 H   0  0  0  0  0  0  0  0  0  0  0  0
   -2.1092   -8.1205    4.8367 H   0  0  0  0  0  0  0  0  0  0  0  0
   -0.0497  -10.8002    2.4893 H   0  0  0  0  0  0  0  0  0  0  0  0
    1.7064   -9.0596    1.8500 H   0  0  0  0  0  0  0  0  0  0  0  0
    3.9290   -4.9207    2.8685 H   0  0  0  0  0  0  0  0  0  0  0  0
    4.9914   -7.9915    3.9889 H   0  0  0  0  0  0  0  0  0  0  0  0
    7.3613   -8.8480    3.9177 H   0  0  0  0  0  0  0  0  0  0  0  0
    8.9857   -7.8991    2.2931 H   0  0  0  0  0  0  0  0  0  0  0  0
    8.3595   -6.2588    0.7300 H   0  0  0  0  0  0  0  0  0  0  0  0
    8.6418   -4.6944   -0.3184 H   0  0  0  0  0  0  0  0  0  0  0  0
   10.0654   -2.7632   -0.1483 H   0  0  0  0  0  0  0  0  0  0  0  0
    6.9088   -0.2514    0.6517 H   0  0  0  0  0  0  0  0  0  0  0  0
    5.3080   -2.1401    0.8665 H   0  0  0  0  0  0  0  0  0  0  0  0
   -1.7196  -10.1845    4.0204 H   0  0  0  0  0  0  0  0  0  0  0  0
  1  2  2  0
  2 27  1  0
  2  3  1  0
  3  4  1  0
  3 10  1  0
  3 28  1  1
  4  9  1  0
  4  5  2  0
  5  6  1  0
  5 29  1  0
  6  7  2  0
  6 30  1  0
  7  8  1  0
  7 42  1  0
  8  9  2  0
  8 31  1  0
  9 32  1  0
 10 11  1  0
 11 27  1  0
 11 12  1  0
 11 33  1  1
 12 17  2  0
 12 13  1  0
 13 14  2  0
 13 34  1  0
 14 15  1  0
 14 35  1  0
 15 16  2  0
 15 36  1  0
 16 17  1  0
 16 37  1  0
 17 18  1  0
 18 19  1  0
 18 25  2  0
 19 24  1  0
 19 20  2  0
 20 21  1  0
 20 38  1  0
 21 22  2  0
 21 39  1  0
 22 23  1  0
 23 24  2  0
 23 40  1  0
 24 41  1  0
 25 26  1  0
 26 27  1  0
M  CHG  1   7   1
M  END
>  <i_m_ct_stereo_status>  (76) 
1

>  <s_m_source_file>  (76) 
/var/tmp/pbs.5076255.sched01/tmpc_kifbv4/0gx9_4qhc.sdf

>  <i_m_source_file_index>  (76) 
35

>  <i_lp_mmshare_version>  (76) 
48012

>  <i_f3d_flags>  (76) 
0

>  <s_epik_input>  (76) 
W2NIXTFbY0hdbltjSF1bY0hdYzFbQ0BASF0oTzIpQyg9TylOM09OPUMoYyhjNFtDQEhdMjMpW2NIXVtjSF1bY0hdW2NIXTQpYzVbY0hdW2NIXW5bY0hdW2NIXTU=

>  <s_epik_cmdline>  (76) 
J2VwaWtfcHl0aG9uJywgJy1waHQnLCAnMi4wJywgJy1waCcsICc3LjAnLCAnLXRuJywgJzgnLCAnLW1hJywgJzIwMCcsICctaW1hZScsICc8aW5maWxlLm1hZT4nLCAnLW9tYWUnLCAnPG91dGZpbGUubWFlPic=

>  <r_epik_Ionization_Penalty>  (76) 
1.67861

>  <r_epik_Ionization_Penalty_Charging>  (76) 
1.67645

>  <r_epik_Ionization_Penalty_Neutral>  (76) 
0.00215608

>  <r_epik_State_Penalty>  (76) 
1.78053

>  <r_epik_Charging_Adjusted_Penalty>  (76) 
3.45698

>  <i_epik_Tot_Q>  (76) 
1

>  <i_epik_Tot_abs_Q>  (76) 
1

>  <s_epik_Chemistry_Notes>  (76) 
This compound has an imine and may undergo hydrolysis. This compound contains an acetal/aminal-like group ( X-CH(R)-Y where X, Y are N, S, or O) that may be acid/base labile, releasing an aldehyde. This compound has a N-S or N-O group and may undergo hydrolysis at high or low pH.

>  <s_lp_Force_Field>  (76) 
OPLS3e

>  <r_lp_Energy>  (76) 
68.1399

>  <b_lp_Chiralities_Consistent>  (76) 
1

>  <s_lp_Variant>  (76) 
26:0-2

>  <s_i_glide_gridfile>  (76) 
pfpi4k_grid

>  <i_i_glide_lignum>  (76) 
35

>  <i_i_glide_rotatable_bonds>  (76) 
2

>  <r_i_docking_score>  (76) 
-4.321

>  <r_i_glide_ligand_efficiency>  (76) 
-0.160037

>  <r_i_glide_ligand_efficiency_sa>  (76) 
-0.480111

>  <r_i_glide_ligand_efficiency_ln>  (76) 
-1.00586

>  <r_i_glide_gscore>  (76) 
-4.321

>  <r_i_glide_lipo>  (76) 
-0.495627

>  <r_i_glide_hbond>  (76) 
-0.420596

>  <r_i_glide_metal>  (76) 
-0

>  <r_i_glide_rewards>  (76) 
-1.12212

>  <r_i_glide_evdw>  (76) 
-24.8262

>  <r_i_glide_ecoul>  (76) 
-7.9857

>  <r_i_glide_erotb>  (76) 
0.296836

>  <r_i_glide_esite>  (76) 
-0.140336

>  <r_i_glide_emodel>  (76) 
-40.799

>  <r_i_glide_energy>  (76) 
-32.8119

>  <r_i_glide_einternal>  (76) 
4.75485

>  <r_i_glide_intrahb_reward>  (76) 
-0

>  <i_i_glide_confnum>  (76) 
6

>  <i_i_glide_posenum>  (76) 
32

>  <r_i_glide_eff_state_penalty>  (76) 
0

>  <ligand_id>  (76) 
26

>  <original_smiles>  (76) 
O=C1C(c2ccncc2)OC2c3ccccc3C(c3ccncc3)=NON12

>  <smiles>  (76) 
[H]c1nc([H])c([H])c(C2=NON3C(=O)C([H])(c4c([H])c([H])[n+]([H])c([H])c4[H])OC3([H])c3c([H])c([H])c([H])c([H])c32)c1[H]

$$$$
26:1:1
     RDKit          3D

 42 46  0  0  1  0  0  0  0  0999 V2000
    0.1935   -7.1401    2.3388 O   0  0  0  0  0  0  0  0  0  0  0  0
    1.2186   -6.5842    2.7527 C   0  0  0  0  0  0  0  0  0  0  0  0
    1.7147   -6.5123    4.1870 C   0  0  1  0  0  0  0  0  0  0  0  0
    1.4074   -7.7136    5.0579 C   0  0  0  0  0  0  0  0  0  0  0  0
    0.0718   -8.0489    5.3761 C   0  0  0  0  0  0  0  0  0  0  0  0
   -0.1808   -9.1470    6.2208 C   0  0  0  0  0  0  0  0  0  0  0  0
    0.8576   -9.8545    6.7065 N   0  0  0  0  0  0  0  0  0  0  0  0
    2.1443   -9.5665    6.4481 C   0  0  0  0  0  0  0  0  0  0  0  0
    2.4542   -8.4806    5.6138 C   0  0  0  0  0  0  0  0  0  0  0  0
    3.1180   -6.2291    4.0317 O   0  0  0  0  0  0  0  0  0  0  0  0
    3.2337   -5.4864    2.8500 C   0  0  1  0  0  0  0  0  0  0  0  0
    4.5799   -5.6653    2.1647 C   0  0  0  0  0  0  0  0  0  0  0  0
    5.6736   -6.2602    2.8387 C   0  0  0  0  0  0  0  0  0  0  0  0
    6.9445   -6.3203    2.2272 C   0  0  0  0  0  0  0  0  0  0  0  0
    7.1295   -5.7806    0.9407 C   0  0  0  0  0  0  0  0  0  0  0  0
    6.0463   -5.1848    0.2689 C   0  0  0  0  0  0  0  0  0  0  0  0
    4.7660   -5.1288    0.8573 C   0  0  0  0  0  0  0  0  0  0  0  0
    3.6705   -4.4238    0.1209 C   0  0  0  0  0  0  0  0  0  0  0  0
    3.9679   -3.1290   -0.5370 C   0  0  0  0  0  0  0  0  0  0  0  0
    4.8645   -2.2129    0.0579 C   0  0  0  0  0  0  0  0  0  0  0  0
    5.1446   -1.0182   -0.6178 C   0  0  0  0  0  0  0  0  0  0  0  0
    4.6165   -0.7039   -1.8157 N   0  0  0  0  0  0  0  0  0  0  0  0
    3.7134   -1.5465   -2.3531 C   0  0  0  0  0  0  0  0  0  0  0  0
    3.3666   -2.7716   -1.7646 C   0  0  0  0  0  0  0  0  0  0  0  0
    2.4722   -4.8684    0.0804 N   0  0  0  0  0  0  0  0  0  0  0  0
    2.3067   -6.1095    0.7072 O   0  0  0  0  0  0  0  0  0  0  0  0
    2.1078   -5.8952    2.0676 N   0  0  0  0  0  0  0  0  0  0  0  0
    1.2464   -5.6348    4.6329 H   0  0  0  0  0  0  0  0  0  0  0  0
   -0.7520   -7.4819    4.9688 H   0  0  0  0  0  0  0  0  0  0  0  0
   -1.1757   -9.4906    6.4749 H   0  0  0  0  0  0  0  0  0  0  0  0
    2.8722  -10.2311    6.8831 H   0  0  0  0  0  0  0  0  0  0  0  0
    3.4830   -8.2400    5.3989 H   0  0  0  0  0  0  0  0  0  0  0  0
    3.0275   -4.4432    3.0876 H   0  0  0  0  0  0  0  0  0  0  0  0
    5.5570   -6.6427    3.8407 H   0  0  0  0  0  0  0  0  0  0  0  0
    7.7836   -6.7609    2.7451 H   0  0  0  0  0  0  0  0  0  0  0  0
    8.0981   -5.8226    0.4669 H   0  0  0  0  0  0  0  0  0  0  0  0
    6.1996   -4.7409   -0.7035 H   0  0  0  0  0  0  0  0  0  0  0  0
    5.3480   -2.4143    1.0031 H   0  0  0  0  0  0  0  0  0  0  0  0
    5.8268   -0.2902   -0.1940 H   0  0  0  0  0  0  0  0  0  0  0  0
    3.2678   -1.2286   -3.2857 H   0  0  0  0  0  0  0  0  0  0  0  0
    2.6641   -3.4282   -2.2513 H   0  0  0  0  0  0  0  0  0  0  0  0
    0.7044  -10.7284    7.2457 H   0  0  0  0  0  0  0  0  0  0  0  0
  1  2  2  0
  2 27  1  0
  2  3  1  0
  3  4  1  0
  3 10  1  0
  3 28  1  1
  4  9  1  0
  4  5  2  0
  5  6  1  0
  5 29  1  0
  6  7  2  0
  6 30  1  0
  7  8  1  0
  7 42  1  0
  8  9  2  0
  8 31  1  0
  9 32  1  0
 10 11  1  0
 11 27  1  0
 11 12  1  0
 11 33  1  1
 12 17  2  0
 12 13  1  0
 13 14  2  0
 13 34  1  0
 14 15  1  0
 14 35  1  0
 15 16  2  0
 15 36  1  0
 16 17  1  0
 16 37  1  0
 17 18  1  0
 18 19  1  0
 18 25  2  0
 19 24  1  0
 19 20  2  0
 20 21  1  0
 20 38  1  0
 21 22  2  0
 21 39  1  0
 22 23  1  0
 23 24  2  0
 23 40  1  0
 24 41  1  0
 25 26  1  0
 26 27  1  0
M  CHG  1   7   1
M  END
>  <i_m_ct_stereo_status>  (77) 
1

>  <s_m_source_file>  (77) 
/var/tmp/pbs.5076255.sched01/tmpc_kifbv4/0gx9_4qhc.sdf

>  <i_m_source_file_index>  (77) 
35

>  <i_lp_mmshare_version>  (77) 
48012

>  <i_f3d_flags>  (77) 
0

>  <s_epik_input>  (77) 
W2NIXTFbY0hdbltjSF1bY0hdYzFbQ0BASF0oTzIpQyg9TylOM09OPUMoYyhjNFtDQEhdMjMpW2NIXVtjSF1bY0hdW2NIXTQpYzVbY0hdW2NIXW5bY0hdW2NIXTU=

>  <s_epik_cmdline>  (77) 
J2VwaWtfcHl0aG9uJywgJy1waHQnLCAnMi4wJywgJy1waCcsICc3LjAnLCAnLXRuJywgJzgnLCAnLW1hJywgJzIwMCcsICctaW1hZScsICc8aW5maWxlLm1hZT4nLCAnLW9tYWUnLCAnPG91dGZpbGUubWFlPic=

>  <r_epik_Ionization_Penalty>  (77) 
1.67861

>  <r_epik_Ionization_Penalty_Charging>  (77) 
1.67645

>  <r_epik_Ionization_Penalty_Neutral>  (77) 
0.00215608

>  <r_epik_State_Penalty>  (77) 
1.78053

>  <r_epik_Charging_Adjusted_Penalty>  (77) 
3.45698

>  <i_epik_Tot_Q>  (77) 
1

>  <i_epik_Tot_abs_Q>  (77) 
1

>  <s_epik_Chemistry_Notes>  (77) 
This compound has an imine and may undergo hydrolysis. This compound contains an acetal/aminal-like group ( X-CH(R)-Y where X, Y are N, S, or O) that may be acid/base labile, releasing an aldehyde. This compound has a N-S or N-O group and may undergo hydrolysis at high or low pH.

>  <s_lp_Force_Field>  (77) 
OPLS3e

>  <r_lp_Energy>  (77) 
68.1399

>  <b_lp_Chiralities_Consistent>  (77) 
1

>  <s_lp_Variant>  (77) 
26:0-2

>  <s_i_glide_gridfile>  (77) 
pfpi4k_grid

>  <i_i_glide_lignum>  (77) 
35

>  <i_i_glide_rotatable_bonds>  (77) 
2

>  <r_i_docking_score>  (77) 
-3.74756

>  <r_i_glide_ligand_efficiency>  (77) 
-0.138799

>  <r_i_glide_ligand_efficiency_sa>  (77) 
-0.416396

>  <r_i_glide_ligand_efficiency_ln>  (77) 
-0.872371

>  <r_i_glide_gscore>  (77) 
-3.74756

>  <r_i_glide_lipo>  (77) 
-0.314878

>  <r_i_glide_hbond>  (77) 
-0.192194

>  <r_i_glide_metal>  (77) 
-0

>  <r_i_glide_rewards>  (77) 
-0.958922

>  <r_i_glide_evdw>  (77) 
-25.7091

>  <r_i_glide_ecoul>  (77) 
-6.93579

>  <r_i_glide_erotb>  (77) 
0.296836

>  <r_i_glide_esite>  (77) 
-0.252581

>  <r_i_glide_emodel>  (77) 
-41.9272

>  <r_i_glide_energy>  (77) 
-32.6449

>  <r_i_glide_einternal>  (77) 
0.614646

>  <r_i_glide_intrahb_reward>  (77) 
-0

>  <i_i_glide_confnum>  (77) 
4

>  <i_i_glide_posenum>  (77) 
29

>  <r_i_glide_eff_state_penalty>  (77) 
0

>  <ligand_id>  (77) 
26

>  <original_smiles>  (77) 
O=C1C(c2ccncc2)OC2c3ccccc3C(c3ccncc3)=NON12

>  <smiles>  (77) 
[H]c1nc([H])c([H])c(C2=NON3C(=O)C([H])(c4c([H])c([H])[n+]([H])c([H])c4[H])OC3([H])c3c([H])c([H])c([H])c([H])c32)c1[H]

$$$$
26:1:2
     RDKit          3D

 42 46  0  0  1  0  0  0  0  0999 V2000
    5.2094   -0.8055    1.4096 O   0  0  0  0  0  0  0  0  0  0  0  0
    4.6223   -1.5687    2.1822 C   0  0  0  0  0  0  0  0  0  0  0  0
    3.5459   -1.1903    3.1872 C   0  0  1  0  0  0  0  0  0  0  0  0
    2.6682   -0.0044    2.8057 C   0  0  0  0  0  0  0  0  0  0  0  0
    3.0028    1.2985    3.2392 C   0  0  0  0  0  0  0  0  0  0  0  0
    2.1778    2.3791    2.8728 C   0  0  0  0  0  0  0  0  0  0  0  0
    1.0884    2.1567    2.1069 N   0  0  0  0  0  0  0  0  0  0  0  0
    0.7188    0.9332    1.6813 C   0  0  0  0  0  0  0  0  0  0  0  0
    1.5068   -0.1854    2.0295 C   0  0  0  0  0  0  0  0  0  0  0  0
    2.8241   -2.4173    3.3576 O   0  0  0  0  0  0  0  0  0  0  0  0
    3.7740   -3.4402    3.2016 C   0  0  1  0  0  0  0  0  0  0  0  0
    3.1632   -4.7520    2.6995 C   0  0  0  0  0  0  0  0  0  0  0  0
    1.7626   -4.9587    2.7321 C   0  0  0  0  0  0  0  0  0  0  0  0
    1.2116   -6.2032    2.3601 C   0  0  0  0  0  0  0  0  0  0  0  0
    2.0563   -7.2501    1.9533 C   0  0  0  0  0  0  0  0  0  0  0  0
    3.4476   -7.0515    1.9143 C   0  0  0  0  0  0  0  0  0  0  0  0
    4.0176   -5.8132    2.2898 C   0  0  0  0  0  0  0  0  0  0  0  0
    5.5066   -5.6949    2.3157 C   0  0  0  0  0  0  0  0  0  0  0  0
    6.3130   -6.7738    2.9623 C   0  0  0  0  0  0  0  0  0  0  0  0
    5.7697   -7.5890    3.9848 C   0  0  0  0  0  0  0  0  0  0  0  0
    6.5599   -8.6206    4.5291 C   0  0  0  0  0  0  0  0  0  0  0  0
    7.8278   -8.8556    4.1402 N   0  0  0  0  0  0  0  0  0  0  0  0
    8.3605   -8.0573    3.1963 C   0  0  0  0  0  0  0  0  0  0  0  0
    7.6517   -7.0071    2.5815 C   0  0  0  0  0  0  0  0  0  0  0  0
    6.1138   -4.6718    1.8386 N   0  0  0  0  0  0  0  0  0  0  0  0
    5.2536   -3.6869    1.3078 O   0  0  0  0  0  0  0  0  0  0  0  0
    4.7769   -2.8758    2.3443 N   0  0  0  0  0  0  0  0  0  0  0  0
    4.0525   -0.9560    4.1261 H   0  0  0  0  0  0  0  0  0  0  0  0
    3.8898    1.4773    3.8252 H   0  0  0  0  0  0  0  0  0  0  0  0
    2.3701    3.4073    3.1343 H   0  0  0  0  0  0  0  0  0  0  0  0
   -0.1590    0.8864    1.0580 H   0  0  0  0  0  0  0  0  0  0  0  0
    1.2550   -1.1657    1.6564 H   0  0  0  0  0  0  0  0  0  0  0  0
    4.2788   -3.5705    4.1614 H   0  0  0  0  0  0  0  0  0  0  0  0
    1.1015   -4.1732    3.0679 H   0  0  0  0  0  0  0  0  0  0  0  0
    0.1466   -6.3830    2.4104 H   0  0  0  0  0  0  0  0  0  0  0  0
    1.6459   -8.2222    1.6908 H   0  0  0  0  0  0  0  0  0  0  0  0
    4.0808   -7.8792    1.6444 H   0  0  0  0  0  0  0  0  0  0  0  0
    4.7617   -7.4636    4.3487 H   0  0  0  0  0  0  0  0  0  0  0  0
    6.1611   -9.2848    5.2822 H   0  0  0  0  0  0  0  0  0  0  0  0
    9.3758   -8.2787    2.9108 H   0  0  0  0  0  0  0  0  0  0  0  0
    8.1305   -6.4196    1.8162 H   0  0  0  0  0  0  0  0  0  0  0  0
    0.5581    2.9822    1.7754 H   0  0  0  0  0  0  0  0  0  0  0  0
  1  2  2  0
  2 27  1  0
  2  3  1  0
  3  4  1  0
  3 10  1  0
  3 28  1  1
  4  9  1  0
  4  5  2  0
  5  6  1  0
  5 29  1  0
  6  7  2  0
  6 30  1  0
  7  8  1  0
  7 42  1  0
  8  9  2  0
  8 31  1  0
  9 32  1  0
 10 11  1  0
 11 27  1  0
 11 12  1  0
 11 33  1  1
 12 17  2  0
 12 13  1  0
 13 14  2  0
 13 34  1  0
 14 15  1  0
 14 35  1  0
 15 16  2  0
 15 36  1  0
 16 17  1  0
 16 37  1  0
 17 18  1  0
 18 19  1  0
 18 25  2  0
 19 24  1  0
 19 20  2  0
 20 21  1  0
 20 38  1  0
 21 22  2  0
 21 39  1  0
 22 23  1  0
 23 24  2  0
 23 40  1  0
 24 41  1  0
 25 26  1  0
 26 27  1  0
M  CHG  1   7   1
M  END
>  <i_m_ct_stereo_status>  (78) 
1

>  <s_m_source_file>  (78) 
/var/tmp/pbs.5076255.sched01/tmpc_kifbv4/0gx9_4qhc.sdf

>  <i_m_source_file_index>  (78) 
35

>  <i_lp_mmshare_version>  (78) 
48012

>  <i_f3d_flags>  (78) 
0

>  <s_epik_input>  (78) 
W2NIXTFbY0hdbltjSF1bY0hdYzFbQ0BASF0oTzIpQyg9TylOM09OPUMoYyhjNFtDQEhdMjMpW2NIXVtjSF1bY0hdW2NIXTQpYzVbY0hdW2NIXW5bY0hdW2NIXTU=

>  <s_epik_cmdline>  (78) 
J2VwaWtfcHl0aG9uJywgJy1waHQnLCAnMi4wJywgJy1waCcsICc3LjAnLCAnLXRuJywgJzgnLCAnLW1hJywgJzIwMCcsICctaW1hZScsICc8aW5maWxlLm1hZT4nLCAnLW9tYWUnLCAnPG91dGZpbGUubWFlPic=

>  <r_epik_Ionization_Penalty>  (78) 
1.67861

>  <r_epik_Ionization_Penalty_Charging>  (78) 
1.67645

>  <r_epik_Ionization_Penalty_Neutral>  (78) 
0.00215608

>  <r_epik_State_Penalty>  (78) 
1.78053

>  <r_epik_Charging_Adjusted_Penalty>  (78) 
3.45698

>  <i_epik_Tot_Q>  (78) 
1

>  <i_epik_Tot_abs_Q>  (78) 
1

>  <s_epik_Chemistry_Notes>  (78) 
This compound has an imine and may undergo hydrolysis. This compound contains an acetal/aminal-like group ( X-CH(R)-Y where X, Y are N, S, or O) that may be acid/base labile, releasing an aldehyde. This compound has a N-S or N-O group and may undergo hydrolysis at high or low pH.

>  <s_lp_Force_Field>  (78) 
OPLS3e

>  <r_lp_Energy>  (78) 
68.1399

>  <b_lp_Chiralities_Consistent>  (78) 
1

>  <s_lp_Variant>  (78) 
26:0-2

>  <s_i_glide_gridfile>  (78) 
pfpi4k_grid

>  <i_i_glide_lignum>  (78) 
35

>  <i_i_glide_rotatable_bonds>  (78) 
2

>  <r_i_docking_score>  (78) 
-3.33506

>  <r_i_glide_ligand_efficiency>  (78) 
-0.123521

>  <r_i_glide_ligand_efficiency_sa>  (78) 
-0.370562

>  <r_i_glide_ligand_efficiency_ln>  (78) 
-0.776346

>  <r_i_glide_gscore>  (78) 
-3.33506

>  <r_i_glide_lipo>  (78) 
-0.0473941

>  <r_i_glide_hbond>  (78) 
-0.2

>  <r_i_glide_metal>  (78) 
-0

>  <r_i_glide_rewards>  (78) 
-1.09236

>  <r_i_glide_evdw>  (78) 
-21.4922

>  <r_i_glide_ecoul>  (78) 
-7.52254

>  <r_i_glide_erotb>  (78) 
0.296836

>  <r_i_glide_esite>  (78) 
-0.0891517

>  <r_i_glide_emodel>  (78) 
-37.5486

>  <r_i_glide_energy>  (78) 
-29.0147

>  <r_i_glide_einternal>  (78) 
0.0991837

>  <r_i_glide_intrahb_reward>  (78) 
-0

>  <i_i_glide_confnum>  (78) 
6

>  <i_i_glide_posenum>  (78) 
2

>  <r_i_glide_eff_state_penalty>  (78) 
0

>  <ligand_id>  (78) 
26

>  <original_smiles>  (78) 
O=C1C(c2ccncc2)OC2c3ccccc3C(c3ccncc3)=NON12

>  <smiles>  (78) 
[H]c1nc([H])c([H])c(C2=NON3C(=O)C([H])(c4c([H])c([H])[n+]([H])c([H])c4[H])OC3([H])c3c([H])c([H])c([H])c([H])c32)c1[H]

$$$$
27:0:0
     RDKit          3D

 33 35  0  0  1  0  0  0  0  0999 V2000
    7.1874   -5.6497    0.8194 C   0  0  0  0  0  0  0  0  0  0  0  0
    6.5081   -4.4158    0.5012 N   0  0  0  0  0  0  0  0  0  0  0  0
    5.3066   -4.2479   -0.1499 C   0  0  0  0  0  0  0  0  0  0  0  0
    5.0536   -2.9046   -0.2096 C   0  0  0  0  0  0  0  0  0  0  0  0
    3.9001   -2.1602   -0.8620 C   0  0  2  0  0  0  0  0  0  0  0  0
    2.7645   -3.0798   -1.3941 C   0  0  0  0  0  0  0  0  0  0  0  0
    2.7157   -2.7717   -2.8428 N   0  0  2  0  0  0  0  0  0  0  0  0
    3.9071   -3.3744   -3.4954 C   0  0  0  0  0  0  0  0  0  0  0  0
    5.0491   -2.4214   -3.0870 C   0  0  0  0  0  0  0  0  0  0  0  0
    4.3108   -1.4305   -2.1677 C   0  0  1  0  0  0  0  0  0  0  0  0
    2.9729   -1.3247   -2.9056 C   0  0  1  0  0  0  0  0  0  0  0  0
    2.9974   -0.7008   -4.3443 C   0  0  0  0  0  0  0  0  0  0  0  0
    3.5957    0.5746   -4.3160 O   0  0  0  0  0  0  0  0  0  0  0  0
    6.1858   -2.3291    0.4362 C   0  0  0  0  0  0  0  0  0  0  0  0
    7.0573   -3.2373    0.8482 N   0  0  0  0  0  0  0  0  0  0  0  0
    6.5627   -6.4983    0.5395 H   0  0  0  0  0  0  0  0  0  0  0  0
    7.3818   -5.6987    1.8915 H   0  0  0  0  0  0  0  0  0  0  0  0
    8.1308   -5.7106    0.2748 H   0  0  0  0  0  0  0  0  0  0  0  0
    4.7619   -5.1050   -0.5212 H   0  0  0  0  0  0  0  0  0  0  0  0
    3.4745   -1.4276   -0.1707 H   0  0  0  0  0  0  0  0  0  0  0  0
    2.8997   -4.1491   -1.2332 H   0  0  0  0  0  0  0  0  0  0  0  0
    1.8260   -2.8263   -0.9076 H   0  0  0  0  0  0  0  0  0  0  0  0
    4.1543   -4.3786   -3.1654 H   0  0  0  0  0  0  0  0  0  0  0  0
    3.7487   -3.4198   -4.5702 H   0  0  0  0  0  0  0  0  0  0  0  0
    5.9093   -2.9333   -2.6506 H   0  0  0  0  0  0  0  0  0  0  0  0
    5.3971   -1.8612   -3.9207 H   0  0  0  0  0  0  0  0  0  0  0  0
    4.8309   -0.4828   -2.0090 H   0  0  0  0  0  0  0  0  0  0  0  0
    2.2359   -0.7777   -2.3249 H   0  0  0  0  0  0  0  0  0  0  0  0
    3.5710   -1.2501   -5.0930 H   0  0  0  0  0  0  0  0  0  0  0  0
    1.9873   -0.6255   -4.7502 H   0  0  0  0  0  0  0  0  0  0  0  0
    3.0706    1.1562   -3.7725 H   0  0  0  0  0  0  0  0  0  0  0  0
    6.4131   -1.2840    0.5898 H   0  0  0  0  0  0  0  0  0  0  0  0
    1.8298   -3.0682   -3.2418 H   0  0  0  0  0  0  0  0  0  0  0  0
  1  2  1  0
  1 16  1  0
  1 17  1  0
  1 18  1  0
  2 15  1  0
  2  3  1  0
  3  4  2  0
  3 19  1  0
  4  5  1  0
  4 14  1  0
  5 10  1  0
  5  6  1  0
  5 20  1  1
  6  7  1  0
  6 21  1  0
  6 22  1  0
  7 11  1  0
  7  8  1  0
  7 33  1  6
  8  9  1  0
  8 23  1  0
  8 24  1  0
  9 10  1  0
  9 25  1  0
  9 26  1  0
 10 11  1  0
 10 27  1  1
 11 12  1  0
 11 28  1  1
 12 13  1  0
 12 29  1  0
 12 30  1  0
 13 31  1  0
 14 15  2  0
 14 32  1  0
M  CHG  1   7   1
M  END
>  <i_m_ct_stereo_status>  (79) 
1

>  <s_m_source_file>  (79) 
/var/tmp/pbs.5076255.sched01/tmpc_kifbv4/0gx9_4qhc.sdf

>  <i_m_source_file_index>  (79) 
36

>  <i_lp_mmshare_version>  (79) 
48012

>  <i_f3d_flags>  (79) 
0

>  <s_epik_input>  (79) 
W0NIM11uMVtjSF1jKFtjSF1uMSlbQ0BIXShbQ0gyXU4yMylbQ0BASF0oW0NIMl1bQ0gyXTIpW0NASF0zW0NIMl1bT0hd

>  <s_epik_cmdline>  (79) 
J2VwaWtfcHl0aG9uJywgJy1waHQnLCAnMi4wJywgJy1waCcsICc3LjAnLCAnLXRuJywgJzgnLCAnLW1hJywgJzIwMCcsICctaW1hZScsICc8aW5maWxlLm1hZT4nLCAnLW9tYWUnLCAnPG91dGZpbGUubWFlPic=

>  <r_lp_tautomer_probability>  (79) 
1

>  <r_epik_Ionization_Penalty>  (79) 
0.00383731

>  <r_epik_Ionization_Penalty_Charging>  (79) 
0.00381749

>  <r_epik_Ionization_Penalty_Neutral>  (79) 
1.98143e-05

>  <r_epik_State_Penalty>  (79) 
0.00272462

>  <r_epik_Charging_Adjusted_Penalty>  (79) 
0.00654212

>  <i_epik_Tot_Q>  (79) 
1

>  <i_epik_Tot_abs_Q>  (79) 
1

>  <s_lp_Force_Field>  (79) 
OPLS3e

>  <r_lp_Energy>  (79) 
34.2234

>  <b_lp_Chiralities_Consistent>  (79) 
1

>  <s_lp_Variant>  (79) 
27:0-1

>  <s_i_glide_gridfile>  (79) 
pfpi4k_grid

>  <i_i_glide_lignum>  (79) 
36

>  <i_i_glide_rotatable_bonds>  (79) 
3

>  <r_i_docking_score>  (79) 
-4.55152

>  <r_i_glide_ligand_efficiency>  (79) 
-0.303435

>  <r_i_glide_ligand_efficiency_sa>  (79) 
-0.748335

>  <r_i_glide_ligand_efficiency_ln>  (79) 
-1.22747

>  <r_i_glide_gscore>  (79) 
-4.55152

>  <r_i_glide_lipo>  (79) 
-0.645598

>  <r_i_glide_hbond>  (79) 
-0.32

>  <r_i_glide_metal>  (79) 
-0

>  <r_i_glide_rewards>  (79) 
-2.14652

>  <r_i_glide_evdw>  (79) 
-17.7846

>  <r_i_glide_ecoul>  (79) 
-8.7341

>  <r_i_glide_erotb>  (79) 
0.763137

>  <r_i_glide_esite>  (79) 
-0.00319197

>  <r_i_glide_emodel>  (79) 
-34.4657

>  <r_i_glide_energy>  (79) 
-26.5187

>  <r_i_glide_einternal>  (79) 
0.995277

>  <r_i_glide_intrahb_reward>  (79) 
-0

>  <i_i_glide_confnum>  (79) 
3

>  <i_i_glide_posenum>  (79) 
17

>  <r_i_glide_eff_state_penalty>  (79) 
0

>  <ligand_id>  (79) 
27

>  <original_smiles>  (79) 
Cn1cc(C2CN3CCC2C3CO)cn1

>  <smiles>  (79) 
[H]OC([H])([H])C1([H])C2([H])C([H])([H])C([H])([H])[N+]1([H])C([H])([H])C2([H])c1c([H])nn(C([H])([H])[H])c1[H]

$$$$
27:0:1
     RDKit          3D

 33 35  0  0  1  0  0  0  0  0999 V2000
   -4.0423    3.4076    2.2640 C   0  0  0  0  0  0  0  0  0  0  0  0
   -2.7414    3.3927    2.9073 N   0  0  0  0  0  0  0  0  0  0  0  0
   -1.9103    2.3377    3.1946 C   0  0  0  0  0  0  0  0  0  0  0  0
   -0.7744    2.8141    3.7666 C   0  0  0  0  0  0  0  0  0  0  0  0
    0.4696    2.0570    4.1972 C   0  0  2  0  0  0  0  0  0  0  0  0
    1.7983    2.8103    3.9073 C   0  0  0  0  0  0  0  0  0  0  0  0
    2.5596    1.8705    3.0558 N   0  0  2  0  0  0  0  0  0  0  0  0
    1.9632    1.8682    1.7049 C   0  0  0  0  0  0  0  0  0  0  0  0
    0.6817    1.0254    1.8713 C   0  0  0  0  0  0  0  0  0  0  0  0
    0.7120    0.7428    3.4045 C   0  0  1  0  0  0  0  0  0  0  0  0
    2.2161    0.5568    3.6136 C   0  0  1  0  0  0  0  0  0  0  0  0
    2.8501   -0.6780    2.8963 C   0  0  0  0  0  0  0  0  0  0  0  0
    4.1959   -0.8308    3.2925 O   0  0  0  0  0  0  0  0  0  0  0  0
   -1.0091    4.2165    3.8165 C   0  0  0  0  0  0  0  0  0  0  0  0
   -2.1889    4.5402    3.3174 N   0  0  0  0  0  0  0  0  0  0  0  0
   -4.2767    2.4253    1.8804 H   0  0  0  0  0  0  0  0  0  0  0  0
   -4.0599    4.1006    1.4281 H   0  0  0  0  0  0  0  0  0  0  0  0
   -4.8020    3.7263    2.9721 H   0  0  0  0  0  0  0  0  0  0  0  0
   -2.1864    1.3371    2.9156 H   0  0  0  0  0  0  0  0  0  0  0  0
    0.4203    1.8309    5.2655 H   0  0  0  0  0  0  0  0  0  0  0  0
    1.6839    3.7774    3.4185 H   0  0  0  0  0  0  0  0  0  0  0  0
    2.3356    2.9752    4.8423 H   0  0  0  0  0  0  0  0  0  0  0  0
    1.7815    2.8842    1.3627 H   0  0  0  0  0  0  0  0  0  0  0  0
    2.6383    1.3781    1.0147 H   0  0  0  0  0  0  0  0  0  0  0  0
   -0.1881    1.5545    1.4715 H   0  0  0  0  0  0  0  0  0  0  0  0
    0.7317    0.0861    1.3135 H   0  0  0  0  0  0  0  0  0  0  0  0
    0.0938   -0.1003    3.7411 H   0  0  0  0  0  0  0  0  0  0  0  0
    2.4640    0.5213    4.6773 H   0  0  0  0  0  0  0  0  0  0  0  0
    2.2943   -1.5760    3.1769 H   0  0  0  0  0  0  0  0  0  0  0  0
    2.8272   -0.6680    1.8037 H   0  0  0  0  0  0  0  0  0  0  0  0
    4.7018   -0.1050    2.9580 H   0  0  0  0  0  0  0  0  0  0  0  0
   -0.3581    5.0088    4.1756 H   0  0  0  0  0  0  0  0  0  0  0  0
    3.5391    2.1052    3.0414 H   0  0  0  0  0  0  0  0  0  0  0  0
  1  2  1  0
  1 16  1  0
  1 17  1  0
  1 18  1  0
  2 15  1  0
  2  3  1  0
  3  4  2  0
  3 19  1  0
  4  5  1  0
  4 14  1  0
  5 10  1  0
  5  6  1  0
  5 20  1  1
  6  7  1  0
  6 21  1  0
  6 22  1  0
  7 11  1  0
  7  8  1  0
  7 33  1  6
  8  9  1  0
  8 23  1  0
  8 24  1  0
  9 10  1  0
  9 25  1  0
  9 26  1  0
 10 11  1  0
 10 27  1  6
 11 12  1  0
 11 28  1  1
 12 13  1  0
 12 29  1  0
 12 30  1  0
 13 31  1  0
 14 15  2  0
 14 32  1  0
M  CHG  1   7   1
M  END
>  <i_m_ct_stereo_status>  (80) 
1

>  <s_m_source_file>  (80) 
/var/tmp/pbs.5076255.sched01/tmpc_kifbv4/0gx9_4qhc.sdf

>  <i_m_source_file_index>  (80) 
36

>  <i_lp_mmshare_version>  (80) 
48012

>  <i_f3d_flags>  (80) 
0

>  <s_epik_input>  (80) 
W0NIM11uMVtjSF1jKFtjSF1uMSlbQ0BIXShbQ0gyXU4yMylbQ0BASF0oW0NIMl1bQ0gyXTIpW0NASF0zW0NIMl1bT0hd

>  <s_epik_cmdline>  (80) 
J2VwaWtfcHl0aG9uJywgJy1waHQnLCAnMi4wJywgJy1waCcsICc3LjAnLCAnLXRuJywgJzgnLCAnLW1hJywgJzIwMCcsICctaW1hZScsICc8aW5maWxlLm1hZT4nLCAnLW9tYWUnLCAnPG91dGZpbGUubWFlPic=

>  <r_lp_tautomer_probability>  (80) 
1

>  <r_epik_Ionization_Penalty>  (80) 
0.00383731

>  <r_epik_Ionization_Penalty_Charging>  (80) 
0.00381749

>  <r_epik_Ionization_Penalty_Neutral>  (80) 
1.98143e-05

>  <r_epik_State_Penalty>  (80) 
0.00272462

>  <r_epik_Charging_Adjusted_Penalty>  (80) 
0.00654212

>  <i_epik_Tot_Q>  (80) 
1

>  <i_epik_Tot_abs_Q>  (80) 
1

>  <s_lp_Force_Field>  (80) 
OPLS3e

>  <r_lp_Energy>  (80) 
34.2234

>  <b_lp_Chiralities_Consistent>  (80) 
1

>  <s_lp_Variant>  (80) 
27:0-1

>  <s_i_glide_gridfile>  (80) 
pfpi4k_grid

>  <i_i_glide_lignum>  (80) 
36

>  <i_i_glide_rotatable_bonds>  (80) 
3

>  <r_i_docking_score>  (80) 
-3.55158

>  <r_i_glide_ligand_efficiency>  (80) 
-0.236772

>  <r_i_glide_ligand_efficiency_sa>  (80) 
-0.58393

>  <r_i_glide_ligand_efficiency_ln>  (80) 
-0.957803

>  <r_i_glide_gscore>  (80) 
-3.55158

>  <r_i_glide_lipo>  (80) 
-0.20288

>  <r_i_glide_hbond>  (80) 
-0.16

>  <r_i_glide_metal>  (80) 
-0

>  <r_i_glide_rewards>  (80) 
-1.989

>  <r_i_glide_evdw>  (80) 
-14.2761

>  <r_i_glide_ecoul>  (80) 
-7.92229

>  <r_i_glide_erotb>  (80) 
0.763137

>  <r_i_glide_esite>  (80) 
-0.0606902

>  <r_i_glide_emodel>  (80) 
-28.37

>  <r_i_glide_energy>  (80) 
-22.1984

>  <r_i_glide_einternal>  (80) 
0.830328

>  <r_i_glide_intrahb_reward>  (80) 
-0

>  <i_i_glide_confnum>  (80) 
3

>  <i_i_glide_posenum>  (80) 
9

>  <r_i_glide_eff_state_penalty>  (80) 
0

>  <ligand_id>  (80) 
27

>  <original_smiles>  (80) 
Cn1cc(C2CN3CCC2C3CO)cn1

>  <smiles>  (80) 
[H]OC([H])([H])C1([H])C2([H])C([H])([H])C([H])([H])[N+]1([H])C([H])([H])C2([H])c1c([H])nn(C([H])([H])[H])c1[H]

$$$$
27:0:2
     RDKit          3D

 33 35  0  0  1  0  0  0  0  0999 V2000
    5.2727   -3.6181    4.6702 C   0  0  0  0  0  0  0  0  0  0  0  0
    4.5010   -3.6889    3.4552 N   0  0  0  0  0  0  0  0  0  0  0  0
    4.3082   -2.7243    2.4888 C   0  0  0  0  0  0  0  0  0  0  0  0
    3.4922   -3.2676    1.5272 C   0  0  0  0  0  0  0  0  0  0  0  0
    3.0249   -2.6208    0.2361 C   0  0  2  0  0  0  0  0  0  0  0  0
    2.5123   -3.6328   -0.8342 C   0  0  0  0  0  0  0  0  0  0  0  0
    3.4042   -3.3948   -1.9834 N   0  0  2  0  0  0  0  0  0  0  0  0
    4.7394   -3.9638   -1.6896 C   0  0  0  0  0  0  0  0  0  0  0  0
    5.3577   -2.9106   -0.7362 C   0  0  0  0  0  0  0  0  0  0  0  0
    4.1669   -1.9234   -0.5643 C   0  0  1  0  0  0  0  0  0  0  0  0
    3.5834   -1.9429   -1.9741 C   0  0  1  0  0  0  0  0  0  0  0  0
    4.4857   -1.3738   -3.1024 C   0  0  0  0  0  0  0  0  0  0  0  0
    3.8035   -1.3789   -4.3365 O   0  0  0  0  0  0  0  0  0  0  0  0
    3.2324   -4.5768    2.0297 C   0  0  0  0  0  0  0  0  0  0  0  0
    3.8469   -4.8238    3.1684 N   0  0  0  0  0  0  0  0  0  0  0  0
    5.8105   -2.6724    4.7185 H   0  0  0  0  0  0  0  0  0  0  0  0
    5.9831   -4.4473    4.7058 H   0  0  0  0  0  0  0  0  0  0  0  0
    4.6007   -3.6889    5.5272 H   0  0  0  0  0  0  0  0  0  0  0  0
    4.7743   -1.7505    2.5450 H   0  0  0  0  0  0  0  0  0  0  0  0
    2.2439   -1.8950    0.4692 H   0  0  0  0  0  0  0  0  0  0  0  0
    2.5577   -4.6867   -0.5721 H   0  0  0  0  0  0  0  0  0  0  0  0
    1.4893   -3.4021   -1.1204 H   0  0  0  0  0  0  0  0  0  0  0  0
    4.6666   -4.9529   -1.2396 H   0  0  0  0  0  0  0  0  0  0  0  0
    5.2978   -4.0693   -2.6150 H   0  0  0  0  0  0  0  0  0  0  0  0
    5.7197   -3.3560    0.1933 H   0  0  0  0  0  0  0  0  0  0  0  0
    6.2115   -2.4040   -1.1887 H   0  0  0  0  0  0  0  0  0  0  0  0
    4.4315   -0.9232   -0.2008 H   0  0  0  0  0  0  0  0  0  0  0  0
    2.6213   -1.4396   -2.0111 H   0  0  0  0  0  0  0  0  0  0  0  0
    4.7893   -0.3604   -2.8394 H   0  0  0  0  0  0  0  0  0  0  0  0
    5.4031   -1.9364   -3.2770 H   0  0  0  0  0  0  0  0  0  0  0  0
    3.0420   -0.8196   -4.2741 H   0  0  0  0  0  0  0  0  0  0  0  0
    2.6382   -5.3730    1.6049 H   0  0  0  0  0  0  0  0  0  0  0  0
    2.9890   -3.7798   -2.8403 H   0  0  0  0  0  0  0  0  0  0  0  0
  1  2  1  0
  1 16  1  0
  1 17  1  0
  1 18  1  0
  2 15  1  0
  2  3  1  0
  3  4  2  0
  3 19  1  0
  4  5  1  0
  4 14  1  0
  5 10  1  0
  5  6  1  0
  5 20  1  1
  6  7  1  0
  6 21  1  0
  6 22  1  0
  7 11  1  0
  7  8  1  0
  7 33  1  6
  8  9  1  0
  8 23  1  0
  8 24  1  0
  9 10  1  0
  9 25  1  0
  9 26  1  0
 10 11  1  0
 10 27  1  1
 11 12  1  0
 11 28  1  1
 12 13  1  0
 12 29  1  0
 12 30  1  0
 13 31  1  0
 14 15  2  0
 14 32  1  0
M  CHG  1   7   1
M  END
>  <i_m_ct_stereo_status>  (81) 
1

>  <s_m_source_file>  (81) 
/var/tmp/pbs.5076255.sched01/tmpc_kifbv4/0gx9_4qhc.sdf

>  <i_m_source_file_index>  (81) 
36

>  <i_lp_mmshare_version>  (81) 
48012

>  <i_f3d_flags>  (81) 
0

>  <s_epik_input>  (81) 
W0NIM11uMVtjSF1jKFtjSF1uMSlbQ0BIXShbQ0gyXU4yMylbQ0BASF0oW0NIMl1bQ0gyXTIpW0NASF0zW0NIMl1bT0hd

>  <s_epik_cmdline>  (81) 
J2VwaWtfcHl0aG9uJywgJy1waHQnLCAnMi4wJywgJy1waCcsICc3LjAnLCAnLXRuJywgJzgnLCAnLW1hJywgJzIwMCcsICctaW1hZScsICc8aW5maWxlLm1hZT4nLCAnLW9tYWUnLCAnPG91dGZpbGUubWFlPic=

>  <r_lp_tautomer_probability>  (81) 
1

>  <r_epik_Ionization_Penalty>  (81) 
0.00383731

>  <r_epik_Ionization_Penalty_Charging>  (81) 
0.00381749

>  <r_epik_Ionization_Penalty_Neutral>  (81) 
1.98143e-05

>  <r_epik_State_Penalty>  (81) 
0.00272462

>  <r_epik_Charging_Adjusted_Penalty>  (81) 
0.00654212

>  <i_epik_Tot_Q>  (81) 
1

>  <i_epik_Tot_abs_Q>  (81) 
1

>  <s_lp_Force_Field>  (81) 
OPLS3e

>  <r_lp_Energy>  (81) 
34.2234

>  <b_lp_Chiralities_Consistent>  (81) 
1

>  <s_lp_Variant>  (81) 
27:0-1

>  <s_i_glide_gridfile>  (81) 
pfpi4k_grid

>  <i_i_glide_lignum>  (81) 
36

>  <i_i_glide_rotatable_bonds>  (81) 
3

>  <r_i_docking_score>  (81) 
-3.30796

>  <r_i_glide_ligand_efficiency>  (81) 
-0.220531

>  <r_i_glide_ligand_efficiency_sa>  (81) 
-0.543876

>  <r_i_glide_ligand_efficiency_ln>  (81) 
-0.892103

>  <r_i_glide_gscore>  (81) 
-3.30796

>  <r_i_glide_lipo>  (81) 
-0.0495028

>  <r_i_glide_hbond>  (81) 
-0.252162

>  <r_i_glide_metal>  (81) 
-0

>  <r_i_glide_rewards>  (81) 
-2.00785

>  <r_i_glide_evdw>  (81) 
-14.6958

>  <r_i_glide_ecoul>  (81) 
-6.82855

>  <r_i_glide_erotb>  (81) 
0.763137

>  <r_i_glide_esite>  (81) 
-0.00250459

>  <r_i_glide_emodel>  (81) 
-27.4392

>  <r_i_glide_energy>  (81) 
-21.5244

>  <r_i_glide_einternal>  (81) 
0.615256

>  <r_i_glide_intrahb_reward>  (81) 
-0

>  <i_i_glide_confnum>  (81) 
3

>  <i_i_glide_posenum>  (81) 
2

>  <r_i_glide_eff_state_penalty>  (81) 
0

>  <ligand_id>  (81) 
27

>  <original_smiles>  (81) 
Cn1cc(C2CN3CCC2C3CO)cn1

>  <smiles>  (81) 
[H]OC([H])([H])C1([H])C2([H])C([H])([H])C([H])([H])[N+]1([H])C([H])([H])C2([H])c1c([H])nn(C([H])([H])[H])c1[H]

$$$$
28:0:0
     RDKit          3D

 17 18  0  0  1  0  0  0  0  0999 V2000
    1.1609  -11.3852    3.6654 C   0  0  0  0  0  0  0  0  0  0  0  0
    0.9261  -10.0636    3.0595 N   0  0  0  0  0  0  0  0  0  0  0  0
   -0.3522   -9.5970    2.9263 C   0  0  0  0  0  0  0  0  0  0  0  0
   -0.6590   -8.3315    2.3698 C   0  0  0  0  0  0  0  0  0  0  0  0
    0.4314   -7.5405    1.9376 C   0  0  0  0  0  0  0  0  0  0  0  0
    0.5700   -6.3428    1.3713 N   0  0  0  0  0  0  0  0  0  0  0  0
    1.9460   -6.1582    1.2117 C   0  0  0  0  0  0  0  0  0  0  0  0
    2.6513   -7.2400    1.6784 C   0  0  0  0  0  0  0  0  0  0  0  0
    1.6882   -8.1175    2.1269 N   0  0  0  0  0  0  0  0  0  0  0  0
    1.9628   -9.3071    2.6494 N   0  0  0  0  0  0  0  0  0  0  0  0
    0.2185  -11.8556    3.9447 H   0  0  0  0  0  0  0  0  0  0  0  0
    1.7721  -11.2515    4.5569 H   0  0  0  0  0  0  0  0  0  0  0  0
    1.6842  -12.0060    2.9395 H   0  0  0  0  0  0  0  0  0  0  0  0
   -1.1298  -10.2528    3.2760 H   0  0  0  0  0  0  0  0  0  0  0  0
   -1.6770   -7.9849    2.2620 H   0  0  0  0  0  0  0  0  0  0  0  0
    2.3230   -5.2510    0.7642 H   0  0  0  0  0  0  0  0  0  0  0  0
    3.7037   -7.4788    1.7274 H   0  0  0  0  0  0  0  0  0  0  0  0
  1  2  1  0
  1 11  1  0
  1 12  1  0
  1 13  1  0
  2 10  2  0
  2  3  1  0
  3  4  2  0
  3 14  1  0
  4  5  1  0
  4 15  1  0
  5  9  1  0
  5  6  2  0
  6  7  1  0
  7  8  2  0
  7 16  1  0
  8  9  1  0
  8 17  1  0
  9 10  1  0
M  CHG  1   2   1
M  END
>  <i_m_ct_stereo_status>  (82) 
1

>  <s_m_source_file>  (82) 
/var/tmp/pbs.5076255.sched01/tmpc_kifbv4/0gx9_4qhc.sdf

>  <i_m_source_file_index>  (82) 
37

>  <i_lp_mmshare_version>  (82) 
48012

>  <i_f3d_flags>  (82) 
0

>  <s_epik_input>  (82) 
W2NIXTFbY0hdW24rXShbQ0gzXSlubihjMTIpW2NIXVtjSF1uMg==

>  <s_epik_cmdline>  (82) 
J2VwaWtfcHl0aG9uJywgJy1waHQnLCAnMi4wJywgJy1waCcsICc3LjAnLCAnLXRuJywgJzgnLCAnLW1hJywgJzIwMCcsICctaW1hZScsICc8aW5maWxlLm1hZT4nLCAnLW9tYWUnLCAnPG91dGZpbGUubWFlPic=

>  <r_lp_tautomer_probability>  (82) 
1

>  <r_epik_Ionization_Penalty>  (82) 
6.05579e-09

>  <r_epik_Ionization_Penalty_Charging>  (82) 
6.05579e-09

>  <r_epik_Ionization_Penalty_Neutral>  (82) 
0

>  <r_epik_State_Penalty>  (82) 
-0

>  <r_epik_Charging_Adjusted_Penalty>  (82) 
6.05579e-09

>  <i_epik_Tot_Q>  (82) 
1

>  <i_epik_Tot_abs_Q>  (82) 
1

>  <s_lp_Force_Field>  (82) 
OPLS3e

>  <r_lp_Energy>  (82) 
15.6867

>  <b_lp_Chiralities_Consistent>  (82) 
1

>  <s_lp_Variant>  (82) 
28:0-1

>  <s_i_glide_gridfile>  (82) 
pfpi4k_grid

>  <i_i_glide_lignum>  (82) 
37

>  <i_i_glide_rotatable_bonds>  (82) 
0

>  <r_i_docking_score>  (82) 
-4.55752

>  <r_i_glide_ligand_efficiency>  (82) 
-0.455752

>  <r_i_glide_ligand_efficiency_sa>  (82) 
-0.981888

>  <r_i_glide_ligand_efficiency_ln>  (82) 
-1.37999

>  <r_i_glide_gscore>  (82) 
-4.55752

>  <r_i_glide_lipo>  (82) 
-0.225755

>  <r_i_glide_hbond>  (82) 
-0.16

>  <r_i_glide_metal>  (82) 
-0

>  <r_i_glide_rewards>  (82) 
-2.36693

>  <r_i_glide_evdw>  (82) 
-13.8943

>  <r_i_glide_ecoul>  (82) 
-6.82242

>  <r_i_glide_erotb>  (82) 
0

>  <r_i_glide_esite>  (82) 
-0.0867575

>  <r_i_glide_emodel>  (82) 
-30.046

>  <r_i_glide_energy>  (82) 
-20.7167

>  <r_i_glide_einternal>  (82) 
0

>  <r_i_glide_intrahb_reward>  (82) 
-0

>  <i_i_glide_confnum>  (82) 
2

>  <i_i_glide_posenum>  (82) 
7

>  <r_i_glide_eff_state_penalty>  (82) 
0

>  <ligand_id>  (82) 
28

>  <original_smiles>  (82) 
C[n+]1ccc2nccn2n1

>  <smiles>  (82) 
[H]c1nc2c([H])c([H])[n+](C([H])([H])[H])nn2c1[H]

$$$$
28:0:1
     RDKit          3D

 17 18  0  0  1  0  0  0  0  0999 V2000
    0.6412    1.4505    1.4506 C   0  0  0  0  0  0  0  0  0  0  0  0
    0.0460    1.1426    2.7539 N   0  0  0  0  0  0  0  0  0  0  0  0
    0.2151   -0.1083    3.2797 C   0  0  0  0  0  0  0  0  0  0  0  0
   -0.3360   -0.4951    4.5290 C   0  0  0  0  0  0  0  0  0  0  0  0
   -1.0636    0.4871    5.2447 C   0  0  0  0  0  0  0  0  0  0  0  0
   -1.7086    0.5316    6.4102 N   0  0  0  0  0  0  0  0  0  0  0  0
   -2.1892    1.8377    6.5249 C   0  0  0  0  0  0  0  0  0  0  0  0
   -1.8691    2.5860    5.4200 C   0  0  0  0  0  0  0  0  0  0  0  0
   -1.1549    1.7264    4.6115 N   0  0  0  0  0  0  0  0  0  0  0  0
   -0.6523    2.0744    3.4326 N   0  0  0  0  0  0  0  0  0  0  0  0
    1.1589    0.5812    1.0434 H   0  0  0  0  0  0  0  0  0  0  0  0
    1.3437    2.2727    1.5846 H   0  0  0  0  0  0  0  0  0  0  0  0
   -0.1627    1.7462    0.7814 H   0  0  0  0  0  0  0  0  0  0  0  0
    0.7770   -0.8002    2.6699 H   0  0  0  0  0  0  0  0  0  0  0  0
   -0.2056   -1.4898    4.9332 H   0  0  0  0  0  0  0  0  0  0  0  0
   -2.7605    2.1280    7.3955 H   0  0  0  0  0  0  0  0  0  0  0  0
   -2.0736    3.6021    5.1218 H   0  0  0  0  0  0  0  0  0  0  0  0
  1  2  1  0
  1 11  1  0
  1 12  1  0
  1 13  1  0
  2 10  2  0
  2  3  1  0
  3  4  2  0
  3 14  1  0
  4  5  1  0
  4 15  1  0
  5  9  1  0
  5  6  2  0
  6  7  1  0
  7  8  2  0
  7 16  1  0
  8  9  1  0
  8 17  1  0
  9 10  1  0
M  CHG  1   2   1
M  END
>  <i_m_ct_stereo_status>  (83) 
1

>  <s_m_source_file>  (83) 
/var/tmp/pbs.5076255.sched01/tmpc_kifbv4/0gx9_4qhc.sdf

>  <i_m_source_file_index>  (83) 
37

>  <i_lp_mmshare_version>  (83) 
48012

>  <i_f3d_flags>  (83) 
0

>  <s_epik_input>  (83) 
W2NIXTFbY0hdW24rXShbQ0gzXSlubihjMTIpW2NIXVtjSF1uMg==

>  <s_epik_cmdline>  (83) 
J2VwaWtfcHl0aG9uJywgJy1waHQnLCAnMi4wJywgJy1waCcsICc3LjAnLCAnLXRuJywgJzgnLCAnLW1hJywgJzIwMCcsICctaW1hZScsICc8aW5maWxlLm1hZT4nLCAnLW9tYWUnLCAnPG91dGZpbGUubWFlPic=

>  <r_lp_tautomer_probability>  (83) 
1

>  <r_epik_Ionization_Penalty>  (83) 
6.05579e-09

>  <r_epik_Ionization_Penalty_Charging>  (83) 
6.05579e-09

>  <r_epik_Ionization_Penalty_Neutral>  (83) 
0

>  <r_epik_State_Penalty>  (83) 
-0

>  <r_epik_Charging_Adjusted_Penalty>  (83) 
6.05579e-09

>  <i_epik_Tot_Q>  (83) 
1

>  <i_epik_Tot_abs_Q>  (83) 
1

>  <s_lp_Force_Field>  (83) 
OPLS3e

>  <r_lp_Energy>  (83) 
15.6867

>  <b_lp_Chiralities_Consistent>  (83) 
1

>  <s_lp_Variant>  (83) 
28:0-1

>  <s_i_glide_gridfile>  (83) 
pfpi4k_grid

>  <i_i_glide_lignum>  (83) 
37

>  <i_i_glide_rotatable_bonds>  (83) 
0

>  <r_i_docking_score>  (83) 
-4.12346

>  <r_i_glide_ligand_efficiency>  (83) 
-0.412346

>  <r_i_glide_ligand_efficiency_sa>  (83) 
-0.888372

>  <r_i_glide_ligand_efficiency_ln>  (83) 
-1.24856

>  <r_i_glide_gscore>  (83) 
-4.12346

>  <r_i_glide_lipo>  (83) 
-0.0499289

>  <r_i_glide_hbond>  (83) 
-0.16

>  <r_i_glide_metal>  (83) 
-0

>  <r_i_glide_rewards>  (83) 
-2.25

>  <r_i_glide_evdw>  (83) 
-11.6615

>  <r_i_glide_ecoul>  (83) 
-6.57292

>  <r_i_glide_erotb>  (83) 
0

>  <r_i_glide_esite>  (83) 
-0.0945157

>  <r_i_glide_emodel>  (83) 
-26.6735

>  <r_i_glide_energy>  (83) 
-18.2345

>  <r_i_glide_einternal>  (83) 
0

>  <r_i_glide_intrahb_reward>  (83) 
-0

>  <i_i_glide_confnum>  (83) 
2

>  <i_i_glide_posenum>  (83) 
36

>  <r_i_glide_eff_state_penalty>  (83) 
0

>  <ligand_id>  (83) 
28

>  <original_smiles>  (83) 
C[n+]1ccc2nccn2n1

>  <smiles>  (83) 
[H]c1nc2c([H])c([H])[n+](C([H])([H])[H])nn2c1[H]

$$$$
28:0:2
     RDKit          3D

 17 18  0  0  1  0  0  0  0  0999 V2000
    2.9545  -11.7966    5.0049 C   0  0  0  0  0  0  0  0  0  0  0  0
    1.8767  -10.8981    4.5499 N   0  0  0  0  0  0  0  0  0  0  0  0
    1.2189  -11.1912    3.3945 C   0  0  0  0  0  0  0  0  0  0  0  0
    0.2057  -10.3613    2.8517 C   0  0  0  0  0  0  0  0  0  0  0  0
   -0.1264   -9.1857    3.5643 C   0  0  0  0  0  0  0  0  0  0  0  0
   -0.9805   -8.1701    3.4101 N   0  0  0  0  0  0  0  0  0  0  0  0
   -0.7823   -7.3409    4.5143 C   0  0  0  0  0  0  0  0  0  0  0  0
    0.2072   -7.8232    5.3354 C   0  0  0  0  0  0  0  0  0  0  0  0
    0.6136   -8.9962    4.7385 N   0  0  0  0  0  0  0  0  0  0  0  0
    1.5652   -9.7808    5.2381 N   0  0  0  0  0  0  0  0  0  0  0  0
    3.0612  -12.6492    4.3286 H   0  0  0  0  0  0  0  0  0  0  0  0
    2.7081  -12.1571    5.9997 H   0  0  0  0  0  0  0  0  0  0  0  0
    3.8907  -11.2384    5.0536 H   0  0  0  0  0  0  0  0  0  0  0  0
    1.5389  -12.1082    2.9155 H   0  0  0  0  0  0  0  0  0  0  0  0
   -0.3105  -10.6183    1.9283 H   0  0  0  0  0  0  0  0  0  0  0  0
   -1.3757   -6.4441    4.6361 H   0  0  0  0  0  0  0  0  0  0  0  0
    0.6667   -7.4955    6.2556 H   0  0  0  0  0  0  0  0  0  0  0  0
  1  2  1  0
  1 11  1  0
  1 12  1  0
  1 13  1  0
  2 10  2  0
  2  3  1  0
  3  4  2  0
  3 14  1  0
  4  5  1  0
  4 15  1  0
  5  9  1  0
  5  6  2  0
  6  7  1  0
  7  8  2  0
  7 16  1  0
  8  9  1  0
  8 17  1  0
  9 10  1  0
M  CHG  1   2   1
M  END
>  <i_m_ct_stereo_status>  (84) 
1

>  <s_m_source_file>  (84) 
/var/tmp/pbs.5076255.sched01/tmpc_kifbv4/0gx9_4qhc.sdf

>  <i_m_source_file_index>  (84) 
37

>  <i_lp_mmshare_version>  (84) 
48012

>  <i_f3d_flags>  (84) 
0

>  <s_epik_input>  (84) 
W2NIXTFbY0hdW24rXShbQ0gzXSlubihjMTIpW2NIXVtjSF1uMg==

>  <s_epik_cmdline>  (84) 
J2VwaWtfcHl0aG9uJywgJy1waHQnLCAnMi4wJywgJy1waCcsICc3LjAnLCAnLXRuJywgJzgnLCAnLW1hJywgJzIwMCcsICctaW1hZScsICc8aW5maWxlLm1hZT4nLCAnLW9tYWUnLCAnPG91dGZpbGUubWFlPic=

>  <r_lp_tautomer_probability>  (84) 
1

>  <r_epik_Ionization_Penalty>  (84) 
6.05579e-09

>  <r_epik_Ionization_Penalty_Charging>  (84) 
6.05579e-09

>  <r_epik_Ionization_Penalty_Neutral>  (84) 
0

>  <r_epik_State_Penalty>  (84) 
-0

>  <r_epik_Charging_Adjusted_Penalty>  (84) 
6.05579e-09

>  <i_epik_Tot_Q>  (84) 
1

>  <i_epik_Tot_abs_Q>  (84) 
1

>  <s_lp_Force_Field>  (84) 
OPLS3e

>  <r_lp_Energy>  (84) 
15.6867

>  <b_lp_Chiralities_Consistent>  (84) 
1

>  <s_lp_Variant>  (84) 
28:0-1

>  <s_i_glide_gridfile>  (84) 
pfpi4k_grid

>  <i_i_glide_lignum>  (84) 
37

>  <i_i_glide_rotatable_bonds>  (84) 
0

>  <r_i_docking_score>  (84) 
-4.06372

>  <r_i_glide_ligand_efficiency>  (84) 
-0.406372

>  <r_i_glide_ligand_efficiency_sa>  (84) 
-0.875502

>  <r_i_glide_ligand_efficiency_ln>  (84) 
-1.23047

>  <r_i_glide_gscore>  (84) 
-4.06372

>  <r_i_glide_lipo>  (84) 
-0.328128

>  <r_i_glide_hbond>  (84) 
0

>  <r_i_glide_metal>  (84) 
-0

>  <r_i_glide_rewards>  (84) 
-2.25

>  <r_i_glide_evdw>  (84) 
-12.5739

>  <r_i_glide_ecoul>  (84) 
-4.9181

>  <r_i_glide_erotb>  (84) 
0

>  <r_i_glide_esite>  (84) 
-0.119182

>  <r_i_glide_emodel>  (84) 
-25.8002

>  <r_i_glide_energy>  (84) 
-17.492

>  <r_i_glide_einternal>  (84) 
0

>  <r_i_glide_intrahb_reward>  (84) 
-0

>  <i_i_glide_confnum>  (84) 
2

>  <i_i_glide_posenum>  (84) 
20

>  <r_i_glide_eff_state_penalty>  (84) 
0

>  <ligand_id>  (84) 
28

>  <original_smiles>  (84) 
C[n+]1ccc2nccn2n1

>  <smiles>  (84) 
[H]c1nc2c([H])c([H])[n+](C([H])([H])[H])nn2c1[H]

$$$$
30:0:0
     RDKit          3D

 32 33  0  0  1  0  0  0  0  0999 V2000
    5.1909   -3.7211   -3.5213 C   0  0  0  0  0  0  0  0  0  0  0  0
    4.6733   -3.1547   -2.2858 N   0  0  0  0  0  0  0  0  0  0  0  0
    5.1315   -1.8069   -1.9847 C   0  0  1  0  0  0  0  0  0  0  0  0
    4.5635   -0.7784   -2.9900 C   0  0  0  0  0  0  0  0  0  0  0  0
    3.0316   -0.8316   -3.1490 C   0  0  1  0  0  0  0  0  0  0  0  0
    2.6137   -0.0925   -4.3553 N   0  0  0  0  0  0  0  0  0  0  0  0
    2.5001   -2.2805   -3.1563 C   0  0  0  0  0  0  0  0  0  0  0  0
    3.2202   -3.2223   -2.1585 C   0  0  2  0  0  0  0  0  0  0  0  0
    2.8193   -3.0430   -0.6728 C   0  0  1  0  0  0  0  0  0  0  0  0
    3.2440   -4.1929    0.0373 O   0  0  0  0  0  0  0  0  0  0  0  0
    3.4171   -1.7432   -0.0483 C   0  0  1  0  0  0  0  0  0  0  0  0
    3.3161   -1.7161    1.3604 O   0  0  0  0  0  0  0  0  0  0  0  0
    4.8744   -1.4879   -0.4916 C   0  0  0  0  0  0  0  0  0  0  0  0
    6.2634   -3.5517   -3.5953 H   0  0  0  0  0  0  0  0  0  0  0  0
    4.7236   -3.3016   -4.4100 H   0  0  0  0  0  0  0  0  0  0  0  0
    5.0068   -4.7937   -3.5334 H   0  0  0  0  0  0  0  0  0  0  0  0
    6.2138   -1.7895   -2.0957 H   0  0  0  0  0  0  0  0  0  0  0  0
    4.8789    0.2306   -2.7227 H   0  0  0  0  0  0  0  0  0  0  0  0
    5.0164   -0.9873   -3.9599 H   0  0  0  0  0  0  0  0  0  0  0  0
    2.5673   -0.2994   -2.3254 H   0  0  0  0  0  0  0  0  0  0  0  0
    2.9892   -0.5200   -5.1922 H   0  0  0  0  0  0  0  0  0  0  0  0
    2.9274    0.8672   -4.2797 H   0  0  0  0  0  0  0  0  0  0  0  0
    1.4302   -2.2757   -2.9470 H   0  0  0  0  0  0  0  0  0  0  0  0
    2.6040   -2.7071   -4.1552 H   0  0  0  0  0  0  0  0  0  0  0  0
    2.8821   -4.2130   -2.4376 H   0  0  0  0  0  0  0  0  0  0  0  0
    1.7330   -3.0545   -0.5972 H   0  0  0  0  0  0  0  0  0  0  0  0
    3.2035   -4.9399   -0.5538 H   0  0  0  0  0  0  0  0  0  0  0  0
    2.8379   -0.8825   -0.3623 H   0  0  0  0  0  0  0  0  0  0  0  0
    2.3945   -1.7587    1.5890 H   0  0  0  0  0  0  0  0  0  0  0  0
    5.5307   -2.1289    0.1014 H   0  0  0  0  0  0  0  0  0  0  0  0
    5.1602   -0.4572   -0.2617 H   0  0  0  0  0  0  0  0  0  0  0  0
    1.6060   -0.0910   -4.4161 H   0  0  0  0  0  0  0  0  0  0  0  0
  1  2  1  0
  1 14  1  0
  1 15  1  0
  1 16  1  0
  2  8  1  0
  2  3  1  0
  3 13  1  0
  3  4  1  0
  3 17  1  1
  4  5  1  0
  4 18  1  0
  4 19  1  0
  5  6  1  0
  5  7  1  0
  5 20  1  1
  6 21  1  0
  6 22  1  0
  6 32  1  0
  7  8  1  0
  7 23  1  0
  7 24  1  0
  8  9  1  0
  8 25  1  6
  9 10  1  0
  9 11  1  0
  9 26  1  6
 10 27  1  0
 11 12  1  0
 11 13  1  0
 11 28  1  6
 12 29  1  0
 13 30  1  0
 13 31  1  0
M  CHG  1   6   1
M  END
>  <i_m_ct_stereo_status>  (85) 
1

>  <s_m_source_file>  (85) 
/var/tmp/pbs.5076255.sched01/tmpc_kifbv4/0gx9_4qhc.sdf

>  <i_m_source_file_index>  (85) 
39

>  <i_lp_mmshare_version>  (85) 
48012

>  <i_f3d_flags>  (85) 
0

>  <s_epik_input>  (85) 
W09IXVtDQEBIXShbQ0gyXTEpW0NASF0oW09IXSlbQ0hdKE4oW0NIM10pW0NIXTEyKVtDSDJdW0NAQEhdKFtDSDJdMilbTkgyXQ==

>  <s_epik_cmdline>  (85) 
J2VwaWtfcHl0aG9uJywgJy1waHQnLCAnMi4wJywgJy1waCcsICc3LjAnLCAnLXRuJywgJzgnLCAnLW1hJywgJzIwMCcsICctaW1hZScsICc8aW5maWxlLm1hZT4nLCAnLW9tYWUnLCAnPG91dGZpbGUubWFlPic=

>  <r_epik_Ionization_Penalty>  (85) 
0.143539

>  <r_epik_Ionization_Penalty_Charging>  (85) 
0.00197137

>  <r_epik_Ionization_Penalty_Neutral>  (85) 
0.141567

>  <r_epik_State_Penalty>  (85) 
0.14527

>  <r_epik_Charging_Adjusted_Penalty>  (85) 
0.147242

>  <i_epik_Tot_Q>  (85) 
1

>  <i_epik_Tot_abs_Q>  (85) 
1

>  <s_lp_Force_Field>  (85) 
OPLS3e

>  <r_lp_Energy>  (85) 
23.0247

>  <b_lp_Chiralities_Consistent>  (85) 
1

>  <s_lp_Variant>  (85) 
30:0-1

>  <s_i_glide_gridfile>  (85) 
pfpi4k_grid

>  <i_i_glide_lignum>  (85) 
39

>  <i_i_glide_rotatable_bonds>  (85) 
2

>  <r_i_docking_score>  (85) 
-3.84117

>  <r_i_glide_ligand_efficiency>  (85) 
-0.295475

>  <r_i_glide_ligand_efficiency_sa>  (85) 
-0.694761

>  <r_i_glide_ligand_efficiency_ln>  (85) 
-1.07748

>  <r_i_glide_gscore>  (85) 
-3.84117

>  <r_i_glide_lipo>  (85) 
-0.234269

>  <r_i_glide_hbond>  (85) 
0

>  <r_i_glide_metal>  (85) 
-0

>  <r_i_glide_rewards>  (85) 
-2.13232

>  <r_i_glide_evdw>  (85) 
-12.9495

>  <r_i_glide_ecoul>  (85) 
-5.51407

>  <r_i_glide_erotb>  (85) 
0

>  <r_i_glide_esite>  (85) 
0

>  <r_i_glide_emodel>  (85) 
-22.6845

>  <r_i_glide_energy>  (85) 
-18.4635

>  <r_i_glide_einternal>  (85) 
1.07523

>  <r_i_glide_intrahb_reward>  (85) 
-0

>  <i_i_glide_confnum>  (85) 
1

>  <i_i_glide_posenum>  (85) 
8

>  <r_i_glide_eff_state_penalty>  (85) 
0

>  <ligand_id>  (85) 
30

>  <original_smiles>  (85) 
CN1C2CC(N)CC1C(O)C(O)C2

>  <smiles>  (85) 
[H]OC1([H])C([H])([H])C2([H])N(C([H])([H])[H])C([H])(C([H])([H])C([H])([N+]([H])([H])[H])C2([H])[H])C1([H])O[H]

$$$$
30:0:1
     RDKit          3D

 32 33  0  0  1  0  0  0  0  0999 V2000
    5.3518   -3.6326   -3.3787 C   0  0  0  0  0  0  0  0  0  0  0  0
    4.7039   -3.2579   -2.1349 N   0  0  0  0  0  0  0  0  0  0  0  0
    5.1188   -1.9867   -1.5801 C   0  0  1  0  0  0  0  0  0  0  0  0
    4.6504   -0.8140   -2.4576 C   0  0  0  0  0  0  0  0  0  0  0  0
    3.1693   -0.8077   -2.8298 C   0  0  1  0  0  0  0  0  0  0  0  0
    2.9344    0.1268   -3.9512 N   0  0  0  0  0  0  0  0  0  0  0  0
    2.6500   -2.2404   -3.1067 C   0  0  0  0  0  0  0  0  0  0  0  0
    3.2496   -3.3050   -2.1713 C   0  0  2  0  0  0  0  0  0  0  0  0
    2.6615   -3.3114   -0.7274 C   0  0  1  0  0  0  0  0  0  0  0  0
    3.0017   -4.5562   -0.1494 O   0  0  0  0  0  0  0  0  0  0  0  0
    3.2056   -2.1379    0.1521 C   0  0  1  0  0  0  0  0  0  0  0  0
    2.9766   -2.3840    1.5225 O   0  0  0  0  0  0  0  0  0  0  0  0
    4.7087   -1.8648   -0.0885 C   0  0  0  0  0  0  0  0  0  0  0  0
    6.4319   -3.5047   -3.3073 H   0  0  0  0  0  0  0  0  0  0  0  0
    4.9939   -3.0828   -4.2341 H   0  0  0  0  0  0  0  0  0  0  0  0
    5.1409   -4.6826   -3.5536 H   0  0  0  0  0  0  0  0  0  0  0  0
    6.2061   -1.9596   -1.5625 H   0  0  0  0  0  0  0  0  0  0  0  0
    4.9805    0.1275   -2.0396 H   0  0  0  0  0  0  0  0  0  0  0  0
    5.1281   -0.9451   -3.4092 H   0  0  0  0  0  0  0  0  0  0  0  0
    2.5867   -0.4548   -2.0009 H   0  0  0  0  0  0  0  0  0  0  0  0
    3.4224   -0.1697   -4.7928 H   0  0  0  0  0  0  0  0  0  0  0  0
    3.2153    1.0567   -3.6769 H   0  0  0  0  0  0  0  0  0  0  0  0
    1.5634   -2.2947   -3.0125 H   0  0  0  0  0  0  0  0  0  0  0  0
    2.8706   -2.5252   -4.1409 H   0  0  0  0  0  0  0  0  0  0  0  0
    2.9206   -4.2186   -2.6257 H   0  0  0  0  0  0  0  0  0  0  0  0
    1.5702   -3.2677   -0.7819 H   0  0  0  0  0  0  0  0  0  0  0  0
    3.0286   -5.1994   -0.8690 H   0  0  0  0  0  0  0  0  0  0  0  0
    2.6525   -1.2289   -0.0573 H   0  0  0  0  0  0  0  0  0  0  0  0
    3.3532   -3.2503    1.6901 H   0  0  0  0  0  0  0  0  0  0  0  0
    5.2879   -2.6040    0.4643 H   0  0  0  0  0  0  0  0  0  0  0  0
    4.9839   -0.8870    0.3179 H   0  0  0  0  0  0  0  0  0  0  0  0
    1.9456    0.1683   -4.1315 H   0  0  0  0  0  0  0  0  0  0  0  0
  1  2  1  0
  1 14  1  0
  1 15  1  0
  1 16  1  0
  2  8  1  0
  2  3  1  0
  3 13  1  0
  3  4  1  0
  3 17  1  1
  4  5  1  0
  4 18  1  0
  4 19  1  0
  5  6  1  0
  5  7  1  0
  5 20  1  1
  6 21  1  0
  6 22  1  0
  6 32  1  0
  7  8  1  0
  7 23  1  0
  7 24  1  0
  8  9  1  0
  8 25  1  6
  9 10  1  0
  9 11  1  0
  9 26  1  6
 10 27  1  0
 11 12  1  0
 11 13  1  0
 11 28  1  6
 12 29  1  0
 13 30  1  0
 13 31  1  0
M  CHG  1   6   1
M  END
>  <i_m_ct_stereo_status>  (86) 
1

>  <s_m_source_file>  (86) 
/var/tmp/pbs.5076255.sched01/tmpc_kifbv4/0gx9_4qhc.sdf

>  <i_m_source_file_index>  (86) 
39

>  <i_lp_mmshare_version>  (86) 
48012

>  <i_f3d_flags>  (86) 
0

>  <s_epik_input>  (86) 
W09IXVtDQEBIXShbQ0gyXTEpW0NASF0oW09IXSlbQ0hdKE4oW0NIM10pW0NIXTEyKVtDSDJdW0NAQEhdKFtDSDJdMilbTkgyXQ==

>  <s_epik_cmdline>  (86) 
J2VwaWtfcHl0aG9uJywgJy1waHQnLCAnMi4wJywgJy1waCcsICc3LjAnLCAnLXRuJywgJzgnLCAnLW1hJywgJzIwMCcsICctaW1hZScsICc8aW5maWxlLm1hZT4nLCAnLW9tYWUnLCAnPG91dGZpbGUubWFlPic=

>  <r_epik_Ionization_Penalty>  (86) 
0.143539

>  <r_epik_Ionization_Penalty_Charging>  (86) 
0.00197137

>  <r_epik_Ionization_Penalty_Neutral>  (86) 
0.141567

>  <r_epik_State_Penalty>  (86) 
0.14527

>  <r_epik_Charging_Adjusted_Penalty>  (86) 
0.147242

>  <i_epik_Tot_Q>  (86) 
1

>  <i_epik_Tot_abs_Q>  (86) 
1

>  <s_lp_Force_Field>  (86) 
OPLS3e

>  <r_lp_Energy>  (86) 
23.0247

>  <b_lp_Chiralities_Consistent>  (86) 
1

>  <s_lp_Variant>  (86) 
30:0-1

>  <s_i_glide_gridfile>  (86) 
pfpi4k_grid

>  <i_i_glide_lignum>  (86) 
39

>  <i_i_glide_rotatable_bonds>  (86) 
2

>  <r_i_docking_score>  (86) 
-3.74599

>  <r_i_glide_ligand_efficiency>  (86) 
-0.288153

>  <r_i_glide_ligand_efficiency_sa>  (86) 
-0.677545

>  <r_i_glide_ligand_efficiency_ln>  (86) 
-1.05078

>  <r_i_glide_gscore>  (86) 
-3.74599

>  <r_i_glide_lipo>  (86) 
-0.159561

>  <r_i_glide_hbond>  (86) 
0

>  <r_i_glide_metal>  (86) 
-0

>  <r_i_glide_rewards>  (86) 
-2.13232

>  <r_i_glide_evdw>  (86) 
-8.87926

>  <r_i_glide_ecoul>  (86) 
-6.73431

>  <r_i_glide_erotb>  (86) 
0

>  <r_i_glide_esite>  (86) 
0

>  <r_i_glide_emodel>  (86) 
-19.3308

>  <r_i_glide_energy>  (86) 
-15.6136

>  <r_i_glide_einternal>  (86) 
0.712412

>  <r_i_glide_intrahb_reward>  (86) 
-0

>  <i_i_glide_confnum>  (86) 
1

>  <i_i_glide_posenum>  (86) 
12

>  <r_i_glide_eff_state_penalty>  (86) 
0

>  <ligand_id>  (86) 
30

>  <original_smiles>  (86) 
CN1C2CC(N)CC1C(O)C(O)C2

>  <smiles>  (86) 
[H]OC1([H])C([H])([H])C2([H])N(C([H])([H])[H])C([H])(C([H])([H])C([H])([N+]([H])([H])[H])C2([H])[H])C1([H])O[H]

$$$$
30:0:2
     RDKit          3D

 32 33  0  0  1  0  0  0  0  0999 V2000
    4.7813   -4.2220   -3.7375 C   0  0  0  0  0  0  0  0  0  0  0  0
    4.6111   -3.4322   -2.5213 N   0  0  0  0  0  0  0  0  0  0  0  0
    5.2420   -2.1384   -2.5792 C   0  0  1  0  0  0  0  0  0  0  0  0
    4.5581   -1.2248   -3.6175 C   0  0  0  0  0  0  0  0  0  0  0  0
    3.0521   -1.0673   -3.4605 C   0  0  1  0  0  0  0  0  0  0  0  0
    2.4876   -0.4709   -4.7008 N   0  0  0  0  0  0  0  0  0  0  0  0
    2.4043   -2.4218   -3.0541 C   0  0  0  0  0  0  0  0  0  0  0  0
    3.2413   -3.2650   -2.0513 C   0  0  2  0  0  0  0  0  0  0  0  0
    3.2201   -2.7794   -0.5771 C   0  0  1  0  0  0  0  0  0  0  0  0
    3.6802   -3.8288    0.2567 O   0  0  0  0  0  0  0  0  0  0  0  0
    4.0666   -1.4952   -0.3722 C   0  0  1  0  0  0  0  0  0  0  0  0
    4.3154   -1.2385    1.0017 O   0  0  0  0  0  0  0  0  0  0  0  0
    5.3891   -1.5095   -1.1739 C   0  0  0  0  0  0  0  0  0  0  0  0
    5.7990   -4.1170   -4.1114 H   0  0  0  0  0  0  0  0  0  0  0  0
    4.1103   -3.9357   -4.5417 H   0  0  0  0  0  0  0  0  0  0  0  0
    4.6454   -5.2826   -3.5343 H   0  0  0  0  0  0  0  0  0  0  0  0
    6.2607   -2.3207   -2.9030 H   0  0  0  0  0  0  0  0  0  0  0  0
    5.0114   -0.2580   -3.5595 H   0  0  0  0  0  0  0  0  0  0  0  0
    4.7152   -1.6227   -4.6172 H   0  0  0  0  0  0  0  0  0  0  0  0
    2.8517   -0.3326   -2.6884 H   0  0  0  0  0  0  0  0  0  0  0  0
    2.5400   -1.1018   -5.4940 H   0  0  0  0  0  0  0  0  0  0  0  0
    2.9018    0.4189   -4.9216 H   0  0  0  0  0  0  0  0  0  0  0  0
    1.4226   -2.2731   -2.6209 H   0  0  0  0  0  0  0  0  0  0  0  0
    2.2364   -3.0318   -3.9453 H   0  0  0  0  0  0  0  0  0  0  0  0
    2.7386   -4.2225   -2.0037 H   0  0  0  0  0  0  0  0  0  0  0  0
    2.2088   -2.5850   -0.2577 H   0  0  0  0  0  0  0  0  0  0  0  0
    3.8910   -3.4439    1.0948 H   0  0  0  0  0  0  0  0  0  0  0  0
    3.4612   -0.6637   -0.7116 H   0  0  0  0  0  0  0  0  0  0  0  0
    3.4893   -1.0954    1.4438 H   0  0  0  0  0  0  0  0  0  0  0  0
    6.1311   -2.0951   -0.6249 H   0  0  0  0  0  0  0  0  0  0  0  0
    5.7952   -0.5002   -1.2374 H   0  0  0  0  0  0  0  0  0  0  0  0
    1.5072   -0.3165   -4.5190 H   0  0  0  0  0  0  0  0  0  0  0  0
  1  2  1  0
  1 14  1  0
  1 15  1  0
  1 16  1  0
  2  8  1  0
  2  3  1  0
  3 13  1  0
  3  4  1  0
  3 17  1  6
  4  5  1  0
  4 18  1  0
  4 19  1  0
  5  6  1  0
  5  7  1  0
  5 20  1  1
  6 21  1  0
  6 22  1  0
  6 32  1  0
  7  8  1  0
  7 23  1  0
  7 24  1  0
  8  9  1  0
  8 25  1  1
  9 10  1  0
  9 11  1  0
  9 26  1  1
 10 27  1  0
 11 12  1  0
 11 13  1  0
 11 28  1  6
 12 29  1  0
 13 30  1  0
 13 31  1  0
M  CHG  1   6   1
M  END
>  <i_m_ct_stereo_status>  (87) 
1

>  <s_m_source_file>  (87) 
/var/tmp/pbs.5076255.sched01/tmpc_kifbv4/0gx9_4qhc.sdf

>  <i_m_source_file_index>  (87) 
39

>  <i_lp_mmshare_version>  (87) 
48012

>  <i_f3d_flags>  (87) 
0

>  <s_epik_input>  (87) 
W09IXVtDQEBIXShbQ0gyXTEpW0NASF0oW09IXSlbQ0hdKE4oW0NIM10pW0NIXTEyKVtDSDJdW0NAQEhdKFtDSDJdMilbTkgyXQ==

>  <s_epik_cmdline>  (87) 
J2VwaWtfcHl0aG9uJywgJy1waHQnLCAnMi4wJywgJy1waCcsICc3LjAnLCAnLXRuJywgJzgnLCAnLW1hJywgJzIwMCcsICctaW1hZScsICc8aW5maWxlLm1hZT4nLCAnLW9tYWUnLCAnPG91dGZpbGUubWFlPic=

>  <r_epik_Ionization_Penalty>  (87) 
0.143539

>  <r_epik_Ionization_Penalty_Charging>  (87) 
0.00197137

>  <r_epik_Ionization_Penalty_Neutral>  (87) 
0.141567

>  <r_epik_State_Penalty>  (87) 
0.14527

>  <r_epik_Charging_Adjusted_Penalty>  (87) 
0.147242

>  <i_epik_Tot_Q>  (87) 
1

>  <i_epik_Tot_abs_Q>  (87) 
1

>  <s_lp_Force_Field>  (87) 
OPLS3e

>  <r_lp_Energy>  (87) 
23.0247

>  <b_lp_Chiralities_Consistent>  (87) 
1

>  <s_lp_Variant>  (87) 
30:0-1

>  <s_i_glide_gridfile>  (87) 
pfpi4k_grid

>  <i_i_glide_lignum>  (87) 
39

>  <i_i_glide_rotatable_bonds>  (87) 
2

>  <r_i_docking_score>  (87) 
-3.66389

>  <r_i_glide_ligand_efficiency>  (87) 
-0.281838

>  <r_i_glide_ligand_efficiency_sa>  (87) 
-0.662694

>  <r_i_glide_ligand_efficiency_ln>  (87) 
-1.02775

>  <r_i_glide_gscore>  (87) 
-3.66389

>  <r_i_glide_lipo>  (87) 
-0.394355

>  <r_i_glide_hbond>  (87) 
0

>  <r_i_glide_metal>  (87) 
-0

>  <r_i_glide_rewards>  (87) 
-2.13232

>  <r_i_glide_evdw>  (87) 
-10.8618

>  <r_i_glide_ecoul>  (87) 
-3.96079

>  <r_i_glide_erotb>  (87) 
0

>  <r_i_glide_esite>  (87) 
0

>  <r_i_glide_emodel>  (87) 
-18.4938

>  <r_i_glide_energy>  (87) 
-14.8226

>  <r_i_glide_einternal>  (87) 
0.669152

>  <r_i_glide_intrahb_reward>  (87) 
-0

>  <i_i_glide_confnum>  (87) 
1

>  <i_i_glide_posenum>  (87) 
14

>  <r_i_glide_eff_state_penalty>  (87) 
0

>  <ligand_id>  (87) 
30

>  <original_smiles>  (87) 
CN1C2CC(N)CC1C(O)C(O)C2

>  <smiles>  (87) 
[H]OC1([H])C([H])([H])C2([H])N(C([H])([H])[H])C([H])(C([H])([H])C([H])([N+]([H])([H])[H])C2([H])[H])C1([H])O[H]

$$$$
30:1:0
     RDKit          3D

 32 33  0  0  1  0  0  0  0  0999 V2000
    5.7281   -4.4682    1.8591 C   0  0  0  0  0  0  0  0  0  0  0  0
    4.9501   -3.9016    0.7636 N   0  0  0  0  0  0  0  0  0  0  0  0
    4.2220   -2.6705    1.1114 C   0  0  2  0  0  0  0  0  0  0  0  0
    3.1325   -2.3429    0.0538 C   0  0  0  0  0  0  0  0  0  0  0  0
    3.2457   -3.2215   -1.2213 C   0  0  1  0  0  0  0  0  0  0  0  0
    2.4362   -2.6588   -2.3178 N   0  0  0  0  0  0  0  0  0  0  0  0
    4.7116   -3.4613   -1.6881 C   0  0  0  0  0  0  0  0  0  0  0  0
    5.6904   -3.6984   -0.4931 C   0  0  1  0  0  0  0  0  0  0  0  0
    6.7718   -2.5885   -0.3334 C   0  0  1  0  0  0  0  0  0  0  0  0
    7.5237   -2.3429   -1.5107 O   0  0  0  0  0  0  0  0  0  0  0  0
    6.1607   -1.2578    0.1816 C   0  0  1  0  0  0  0  0  0  0  0  0
    5.4441   -0.6570   -0.8766 O   0  0  0  0  0  0  0  0  0  0  0  0
    5.1961   -1.4948    1.3631 C   0  0  0  0  0  0  0  0  0  0  0  0
    5.1446   -4.5282    2.7767 H   0  0  0  0  0  0  0  0  0  0  0  0
    6.6167   -3.8895    2.0897 H   0  0  0  0  0  0  0  0  0  0  0  0
    6.0470   -5.4796    1.6128 H   0  0  0  0  0  0  0  0  0  0  0  0
    3.6830   -2.8463    2.0452 H   0  0  0  0  0  0  0  0  0  0  0  0
    2.1509   -2.4836    0.5149 H   0  0  0  0  0  0  0  0  0  0  0  0
    3.1384   -1.2743   -0.2004 H   0  0  0  0  0  0  0  0  0  0  0  0
    2.8244   -4.2028   -0.9759 H   0  0  0  0  0  0  0  0  0  0  0  0
    2.8276   -1.7717   -2.6010 H   0  0  0  0  0  0  0  0  0  0  0  0
    1.4929   -2.4793   -1.9843 H   0  0  0  0  0  0  0  0  0  0  0  0
    4.7462   -4.3203   -2.3627 H   0  0  0  0  0  0  0  0  0  0  0  0
    5.0421   -2.6326   -2.3159 H   0  0  0  0  0  0  0  0  0  0  0  0
    6.2083   -4.6330   -0.7194 H   0  0  0  0  0  0  0  0  0  0  0  0
    7.4939   -2.9130    0.4090 H   0  0  0  0  0  0  0  0  0  0  0  0
    7.9603   -3.1382   -1.7860 H   0  0  0  0  0  0  0  0  0  0  0  0
    6.9574   -0.5867    0.5003 H   0  0  0  0  0  0  0  0  0  0  0  0
    5.2691    0.2507   -0.6606 H   0  0  0  0  0  0  0  0  0  0  0  0
    4.6397   -0.5852    1.6159 H   0  0  0  0  0  0  0  0  0  0  0  0
    5.7805   -1.7176    2.2517 H   0  0  0  0  0  0  0  0  0  0  0  0
    2.4177   -3.2925   -3.1005 H   0  0  0  0  0  0  0  0  0  0  0  0
  1  2  1  0
  1 14  1  0
  1 15  1  0
  1 16  1  0
  2  8  1  0
  2  3  1  0
  3 13  1  0
  3  4  1  0
  3 17  1  1
  4  5  1  0
  4 18  1  0
  4 19  1  0
  5  6  1  0
  5  7  1  0
  5 20  1  1
  6 21  1  0
  6 22  1  0
  6 32  1  0
  7  8  1  0
  7 23  1  0
  7 24  1  0
  8  9  1  0
  8 25  1  6
  9 10  1  0
  9 11  1  0
  9 26  1  1
 10 27  1  0
 11 12  1  0
 11 13  1  0
 11 28  1  1
 12 29  1  0
 13 30  1  0
 13 31  1  0
M  CHG  1   6   1
M  END
>  <i_m_ct_stereo_status>  (88) 
1

>  <s_m_source_file>  (88) 
/var/tmp/pbs.5076255.sched01/tmpc_kifbv4/0gx9_4qhc.sdf

>  <i_m_source_file_index>  (88) 
40

>  <i_lp_mmshare_version>  (88) 
48012

>  <i_f3d_flags>  (88) 
0

>  <s_epik_input>  (88) 
W09IXVtDQEBIXShbQ0gyXTEpW0NASF0oW09IXSlbQ0hdKE4oW0NIM10pW0NIXTEyKVtDSDJdW0NAQEhdKFtDSDJdMilbTkgyXQ==

>  <s_epik_cmdline>  (88) 
J2VwaWtfcHl0aG9uJywgJy1waHQnLCAnMi4wJywgJy1waCcsICc3LjAnLCAnLXRuJywgJzgnLCAnLW1hJywgJzIwMCcsICctaW1hZScsICc8aW5maWxlLm1hZT4nLCAnLW9tYWUnLCAnPG91dGZpbGUubWFlPic=

>  <r_epik_Ionization_Penalty>  (88) 
0.143539

>  <r_epik_Ionization_Penalty_Charging>  (88) 
0.00197137

>  <r_epik_Ionization_Penalty_Neutral>  (88) 
0.141567

>  <r_epik_State_Penalty>  (88) 
0.14527

>  <r_epik_Charging_Adjusted_Penalty>  (88) 
0.147242

>  <i_epik_Tot_Q>  (88) 
1

>  <i_epik_Tot_abs_Q>  (88) 
1

>  <s_lp_Force_Field>  (88) 
OPLS3e

>  <r_lp_Energy>  (88) 
22.4822

>  <b_lp_Chiralities_Consistent>  (88) 
1

>  <s_lp_Variant>  (88) 
30:0-2

>  <s_i_glide_gridfile>  (88) 
pfpi4k_grid

>  <i_i_glide_lignum>  (88) 
40

>  <i_i_glide_rotatable_bonds>  (88) 
2

>  <r_i_docking_score>  (88) 
-4.93996

>  <r_i_glide_ligand_efficiency>  (88) 
-0.379997

>  <r_i_glide_ligand_efficiency_sa>  (88) 
-0.8935

>  <r_i_glide_ligand_efficiency_ln>  (88) 
-1.3857

>  <r_i_glide_gscore>  (88) 
-4.93996

>  <r_i_glide_lipo>  (88) 
-0.284858

>  <r_i_glide_hbond>  (88) 
-0.13264

>  <r_i_glide_metal>  (88) 
-0

>  <r_i_glide_rewards>  (88) 
-2.13232

>  <r_i_glide_evdw>  (88) 
-10.0001

>  <r_i_glide_ecoul>  (88) 
-12.3575

>  <r_i_glide_erotb>  (88) 
0

>  <r_i_glide_esite>  (88) 
-0.0365149

>  <r_i_glide_emodel>  (88) 
-31.0019

>  <r_i_glide_energy>  (88) 
-22.3575

>  <r_i_glide_einternal>  (88) 
0.780871

>  <r_i_glide_intrahb_reward>  (88) 
-0

>  <i_i_glide_confnum>  (88) 
3

>  <i_i_glide_posenum>  (88) 
34

>  <r_i_glide_eff_state_penalty>  (88) 
0

>  <ligand_id>  (88) 
30

>  <original_smiles>  (88) 
CN1C2CC(N)CC1C(O)C(O)C2

>  <smiles>  (88) 
[H]OC1([H])C([H])([H])C2([H])N(C([H])([H])[H])C([H])(C([H])([H])C([H])([N+]([H])([H])[H])C2([H])[H])C1([H])O[H]

$$$$
30:1:1
     RDKit          3D

 32 33  0  0  1  0  0  0  0  0999 V2000
    4.5077   -2.0115    3.0895 C   0  0  0  0  0  0  0  0  0  0  0  0
    4.2393   -2.2705    1.6668 N   0  0  0  0  0  0  0  0  0  0  0  0
    4.4578   -1.1145    0.7890 C   0  0  2  0  0  0  0  0  0  0  0  0
    3.8120   -1.3404   -0.6052 C   0  0  0  0  0  0  0  0  0  0  0  0
    3.3144   -2.7952   -0.8077 C   0  0  1  0  0  0  0  0  0  0  0  0
    2.9856   -3.0624   -2.2201 N   0  0  0  0  0  0  0  0  0  0  0  0
    4.3003   -3.8590   -0.2603 C   0  0  0  0  0  0  0  0  0  0  0  0
    4.9302   -3.4409    1.1091 C   0  0  1  0  0  0  0  0  0  0  0  0
    6.4711   -3.2053    1.0313 C   0  0  1  0  0  0  0  0  0  0  0  0
    7.1463   -4.3360    0.5342 O   0  0  0  0  0  0  0  0  0  0  0  0
    6.8724   -1.9057    0.2868 C   0  0  1  0  0  0  0  0  0  0  0  0
    6.7896   -2.0796   -1.1130 O   0  0  0  0  0  0  0  0  0  0  0  0
    5.9605   -0.7327    0.7115 C   0  0  0  0  0  0  0  0  0  0  0  0
    4.0213   -1.0949    3.4196 H   0  0  0  0  0  0  0  0  0  0  0  0
    5.5663   -1.9079    3.3146 H   0  0  0  0  0  0  0  0  0  0  0  0
    4.1162   -2.8201    3.7065 H   0  0  0  0  0  0  0  0  0  0  0  0
    3.9344   -0.2619    1.2265 H   0  0  0  0  0  0  0  0  0  0  0  0
    2.9578   -0.6592   -0.6840 H   0  0  0  0  0  0  0  0  0  0  0  0
    4.4848   -1.0168   -1.4030 H   0  0  0  0  0  0  0  0  0  0  0  0
    2.3785   -2.9002   -0.2525 H   0  0  0  0  0  0  0  0  0  0  0  0
    3.8167   -2.9710   -2.7930 H   0  0  0  0  0  0  0  0  0  0  0  0
    2.2891   -2.3897   -2.5334 H   0  0  0  0  0  0  0  0  0  0  0  0
    3.7744   -4.8106   -0.1312 H   0  0  0  0  0  0  0  0  0  0  0  0
    5.0722   -4.0708   -1.0027 H   0  0  0  0  0  0  0  0  0  0  0  0
    4.7665   -4.2785    1.7933 H   0  0  0  0  0  0  0  0  0  0  0  0
    6.8293   -3.1057    2.0554 H   0  0  0  0  0  0  0  0  0  0  0  0
    6.8639   -4.4908   -0.3655 H   0  0  0  0  0  0  0  0  0  0  0  0
    7.9142   -1.6595    0.5061 H   0  0  0  0  0  0  0  0  0  0  0  0
    5.9085   -2.3624   -1.3227 H   0  0  0  0  0  0  0  0  0  0  0  0
    6.0981    0.1425    0.0746 H   0  0  0  0  0  0  0  0  0  0  0  0
    6.2620   -0.4182    1.7106 H   0  0  0  0  0  0  0  0  0  0  0  0
    2.6237   -3.9981   -2.3281 H   0  0  0  0  0  0  0  0  0  0  0  0
  1  2  1  0
  1 14  1  0
  1 15  1  0
  1 16  1  0
  2  8  1  0
  2  3  1  0
  3 13  1  0
  3  4  1  0
  3 17  1  1
  4  5  1  0
  4 18  1  0
  4 19  1  0
  5  6  1  0
  5  7  1  0
  5 20  1  1
  6 21  1  0
  6 22  1  0
  6 32  1  0
  7  8  1  0
  7 23  1  0
  7 24  1  0
  8  9  1  0
  8 25  1  1
  9 10  1  0
  9 11  1  0
  9 26  1  1
 10 27  1  0
 11 12  1  0
 11 13  1  0
 11 28  1  6
 12 29  1  0
 13 30  1  0
 13 31  1  0
M  CHG  1   6   1
M  END
>  <i_m_ct_stereo_status>  (89) 
1

>  <s_m_source_file>  (89) 
/var/tmp/pbs.5076255.sched01/tmpc_kifbv4/0gx9_4qhc.sdf

>  <i_m_source_file_index>  (89) 
40

>  <i_lp_mmshare_version>  (89) 
48012

>  <i_f3d_flags>  (89) 
0

>  <s_epik_input>  (89) 
W09IXVtDQEBIXShbQ0gyXTEpW0NASF0oW09IXSlbQ0hdKE4oW0NIM10pW0NIXTEyKVtDSDJdW0NAQEhdKFtDSDJdMilbTkgyXQ==

>  <s_epik_cmdline>  (89) 
J2VwaWtfcHl0aG9uJywgJy1waHQnLCAnMi4wJywgJy1waCcsICc3LjAnLCAnLXRuJywgJzgnLCAnLW1hJywgJzIwMCcsICctaW1hZScsICc8aW5maWxlLm1hZT4nLCAnLW9tYWUnLCAnPG91dGZpbGUubWFlPic=

>  <r_epik_Ionization_Penalty>  (89) 
0.143539

>  <r_epik_Ionization_Penalty_Charging>  (89) 
0.00197137

>  <r_epik_Ionization_Penalty_Neutral>  (89) 
0.141567

>  <r_epik_State_Penalty>  (89) 
0.14527

>  <r_epik_Charging_Adjusted_Penalty>  (89) 
0.147242

>  <i_epik_Tot_Q>  (89) 
1

>  <i_epik_Tot_abs_Q>  (89) 
1

>  <s_lp_Force_Field>  (89) 
OPLS3e

>  <r_lp_Energy>  (89) 
22.4822

>  <b_lp_Chiralities_Consistent>  (89) 
1

>  <s_lp_Variant>  (89) 
30:0-2

>  <s_i_glide_gridfile>  (89) 
pfpi4k_grid

>  <i_i_glide_lignum>  (89) 
40

>  <i_i_glide_rotatable_bonds>  (89) 
2

>  <r_i_docking_score>  (89) 
-4.181

>  <r_i_glide_ligand_efficiency>  (89) 
-0.321615

>  <r_i_glide_ligand_efficiency_sa>  (89) 
-0.756226

>  <r_i_glide_ligand_efficiency_ln>  (89) 
-1.17281

>  <r_i_glide_gscore>  (89) 
-4.181

>  <r_i_glide_lipo>  (89) 
-0.280484

>  <r_i_glide_hbond>  (89) 
0

>  <r_i_glide_metal>  (89) 
-0

>  <r_i_glide_rewards>  (89) 
-2.13232

>  <r_i_glide_evdw>  (89) 
-10.4098

>  <r_i_glide_ecoul>  (89) 
-8.21458

>  <r_i_glide_erotb>  (89) 
0

>  <r_i_glide_esite>  (89) 
-0.0155146

>  <r_i_glide_emodel>  (89) 
-26.2555

>  <r_i_glide_energy>  (89) 
-18.6244

>  <r_i_glide_einternal>  (89) 
0.0654942

>  <r_i_glide_intrahb_reward>  (89) 
-0

>  <i_i_glide_confnum>  (89) 
1

>  <i_i_glide_posenum>  (89) 
15

>  <r_i_glide_eff_state_penalty>  (89) 
0

>  <ligand_id>  (89) 
30

>  <original_smiles>  (89) 
CN1C2CC(N)CC1C(O)C(O)C2

>  <smiles>  (89) 
[H]OC1([H])C([H])([H])C2([H])N(C([H])([H])[H])C([H])(C([H])([H])C([H])([N+]([H])([H])[H])C2([H])[H])C1([H])O[H]

$$$$
30:1:2
     RDKit          3D

 32 33  0  0  1  0  0  0  0  0999 V2000
    4.0695   -0.0551   -2.9862 C   0  0  0  0  0  0  0  0  0  0  0  0
    4.8402   -1.1536   -2.4279 N   0  0  0  0  0  0  0  0  0  0  0  0
    4.8727   -2.3588   -3.2451 C   0  0  2  0  0  0  0  0  0  0  0  0
    3.5648   -3.1674   -3.2146 C   0  0  0  0  0  0  0  0  0  0  0  0
    2.5957   -2.7510   -2.0921 C   0  0  1  0  0  0  0  0  0  0  0  0
    1.6654   -3.8430   -1.8018 N   0  0  0  0  0  0  0  0  0  0  0  0
    3.2753   -2.2376   -0.7887 C   0  0  0  0  0  0  0  0  0  0  0  0
    4.6095   -1.4891   -1.0191 C   0  0  1  0  0  0  0  0  0  0  0  0
    5.8297   -2.2950   -0.4975 C   0  0  1  0  0  0  0  0  0  0  0  0
    5.7370   -2.6147    0.8793 O   0  0  0  0  0  0  0  0  0  0  0  0
    6.1258   -3.5638   -1.3204 C   0  0  1  0  0  0  0  0  0  0  0  0
    5.2173   -4.6077   -0.9886 O   0  0  0  0  0  0  0  0  0  0  0  0
    6.0721   -3.2309   -2.8289 C   0  0  0  0  0  0  0  0  0  0  0  0
    4.4004    0.1863   -3.9934 H   0  0  0  0  0  0  0  0  0  0  0  0
    4.2064    0.8396   -2.3916 H   0  0  0  0  0  0  0  0  0  0  0  0
    3.0129   -0.2496   -3.0406 H   0  0  0  0  0  0  0  0  0  0  0  0
    5.0195   -2.0533   -4.2759 H   0  0  0  0  0  0  0  0  0  0  0  0
    3.0473   -3.0777   -4.1707 H   0  0  0  0  0  0  0  0  0  0  0  0
    3.8092   -4.2345   -3.1466 H   0  0  0  0  0  0  0  0  0  0  0  0
    1.9739   -1.9431   -2.4752 H   0  0  0  0  0  0  0  0  0  0  0  0
    2.1903   -4.6363   -1.4520 H   0  0  0  0  0  0  0  0  0  0  0  0
    1.1703   -4.1370   -2.6430 H   0  0  0  0  0  0  0  0  0  0  0  0
    2.6211   -1.5654   -0.2405 H   0  0  0  0  0  0  0  0  0  0  0  0
    3.4140   -3.0654   -0.0911 H   0  0  0  0  0  0  0  0  0  0  0  0
    4.5995   -0.5560   -0.4485 H   0  0  0  0  0  0  0  0  0  0  0  0
    6.7101   -1.6583   -0.5821 H   0  0  0  0  0  0  0  0  0  0  0  0
    4.9358   -3.0834    1.0303 H   0  0  0  0  0  0  0  0  0  0  0  0
    7.1413   -3.8733   -1.0666 H   0  0  0  0  0  0  0  0  0  0  0  0
    5.2941   -4.8193   -0.0693 H   0  0  0  0  0  0  0  0  0  0  0  0
    6.0604   -4.1322   -3.4348 H   0  0  0  0  0  0  0  0  0  0  0  0
    6.9775   -2.6683   -3.0614 H   0  0  0  0  0  0  0  0  0  0  0  0
    1.0126   -3.5031   -1.1242 H   0  0  0  0  0  0  0  0  0  0  0  0
  1  2  1  0
  1 14  1  0
  1 15  1  0
  1 16  1  0
  2  8  1  0
  2  3  1  0
  3 13  1  0
  3  4  1  0
  3 17  1  6
  4  5  1  0
  4 18  1  0
  4 19  1  0
  5  6  1  0
  5  7  1  0
  5 20  1  6
  6 21  1  0
  6 22  1  0
  6 32  1  0
  7  8  1  0
  7 23  1  0
  7 24  1  0
  8  9  1  0
  8 25  1  1
  9 10  1  0
  9 11  1  0
  9 26  1  1
 10 27  1  0
 11 12  1  0
 11 13  1  0
 11 28  1  1
 12 29  1  0
 13 30  1  0
 13 31  1  0
M  CHG  1   6   1
M  END
>  <i_m_ct_stereo_status>  (90) 
1

>  <s_m_source_file>  (90) 
/var/tmp/pbs.5076255.sched01/tmpc_kifbv4/0gx9_4qhc.sdf

>  <i_m_source_file_index>  (90) 
40

>  <i_lp_mmshare_version>  (90) 
48012

>  <i_f3d_flags>  (90) 
0

>  <s_epik_input>  (90) 
W09IXVtDQEBIXShbQ0gyXTEpW0NASF0oW09IXSlbQ0hdKE4oW0NIM10pW0NIXTEyKVtDSDJdW0NAQEhdKFtDSDJdMilbTkgyXQ==

>  <s_epik_cmdline>  (90) 
J2VwaWtfcHl0aG9uJywgJy1waHQnLCAnMi4wJywgJy1waCcsICc3LjAnLCAnLXRuJywgJzgnLCAnLW1hJywgJzIwMCcsICctaW1hZScsICc8aW5maWxlLm1hZT4nLCAnLW9tYWUnLCAnPG91dGZpbGUubWFlPic=

>  <r_epik_Ionization_Penalty>  (90) 
0.143539

>  <r_epik_Ionization_Penalty_Charging>  (90) 
0.00197137

>  <r_epik_Ionization_Penalty_Neutral>  (90) 
0.141567

>  <r_epik_State_Penalty>  (90) 
0.14527

>  <r_epik_Charging_Adjusted_Penalty>  (90) 
0.147242

>  <i_epik_Tot_Q>  (90) 
1

>  <i_epik_Tot_abs_Q>  (90) 
1

>  <s_lp_Force_Field>  (90) 
OPLS3e

>  <r_lp_Energy>  (90) 
22.4822

>  <b_lp_Chiralities_Consistent>  (90) 
1

>  <s_lp_Variant>  (90) 
30:0-2

>  <s_i_glide_gridfile>  (90) 
pfpi4k_grid

>  <i_i_glide_lignum>  (90) 
40

>  <i_i_glide_rotatable_bonds>  (90) 
2

>  <r_i_docking_score>  (90) 
-4.12148

>  <r_i_glide_ligand_efficiency>  (90) 
-0.317037

>  <r_i_glide_ligand_efficiency_sa>  (90) 
-0.74546

>  <r_i_glide_ligand_efficiency_ln>  (90) 
-1.15611

>  <r_i_glide_gscore>  (90) 
-4.12148

>  <r_i_glide_lipo>  (90) 
-0.604461

>  <r_i_glide_hbond>  (90) 
0

>  <r_i_glide_metal>  (90) 
-0

>  <r_i_glide_rewards>  (90) 
-2.13232

>  <r_i_glide_evdw>  (90) 
-9.17364

>  <r_i_glide_ecoul>  (90) 
-5.94134

>  <r_i_glide_erotb>  (90) 
0

>  <r_i_glide_esite>  (90) 
-0.0348144

>  <r_i_glide_emodel>  (90) 
-22.6173

>  <r_i_glide_energy>  (90) 
-15.115

>  <r_i_glide_einternal>  (90) 
0.330237

>  <r_i_glide_intrahb_reward>  (90) 
-0

>  <i_i_glide_confnum>  (90) 
2

>  <i_i_glide_posenum>  (90) 
6

>  <r_i_glide_eff_state_penalty>  (90) 
0

>  <ligand_id>  (90) 
30

>  <original_smiles>  (90) 
CN1C2CC(N)CC1C(O)C(O)C2

>  <smiles>  (90) 
[H]OC1([H])C([H])([H])C2([H])N(C([H])([H])[H])C([H])(C([H])([H])C([H])([N+]([H])([H])[H])C2([H])[H])C1([H])O[H]

$$$$
30:2:0
     RDKit          3D

 33 34  0  0  1  0  0  0  0  0999 V2000
    4.2088   -4.7954   -0.1887 C   0  0  0  0  0  0  0  0  0  0  0  0
    4.0076   -3.8502   -1.3165 N   0  0  2  0  0  0  0  0  0  0  0  0
    5.2213   -3.5330   -2.1082 C   0  0  1  0  0  0  0  0  0  0  0  0
    4.8423   -2.9310   -3.4864 C   0  0  0  0  0  0  0  0  0  0  0  0
    3.3472   -2.6258   -3.6365 C   0  0  1  0  0  0  0  0  0  0  0  0
    2.5869   -3.8458   -3.9368 N   0  0  0  0  0  0  0  0  0  0  0  0
    2.7942   -1.9448   -2.3843 C   0  0  0  0  0  0  0  0  0  0  0  0
    3.2217   -2.6116   -1.0438 C   0  0  2  0  0  0  0  0  0  0  0  0
    4.0321   -1.6170   -0.1729 C   0  0  1  0  0  0  0  0  0  0  0  0
    4.1739   -2.1439    1.1371 O   0  0  0  0  0  0  0  0  0  0  0  0
    5.4141   -1.3334   -0.8164 C   0  0  1  0  0  0  0  0  0  0  0  0
    6.2395   -0.6450    0.0840 O   0  0  0  0  0  0  0  0  0  0  0  0
    6.1427   -2.6087   -1.2888 C   0  0  0  0  0  0  0  0  0  0  0  0
    4.9147   -4.4326    0.5642 H   0  0  0  0  0  0  0  0  0  0  0  0
    4.5578   -5.7579   -0.5796 H   0  0  0  0  0  0  0  0  0  0  0  0
    3.2568   -4.9960    0.2983 H   0  0  0  0  0  0  0  0  0  0  0  0
    5.7486   -4.4600   -2.3132 H   0  0  0  0  0  0  0  0  0  0  0  0
    5.3934   -2.0036   -3.6501 H   0  0  0  0  0  0  0  0  0  0  0  0
    5.1644   -3.5878   -4.2993 H   0  0  0  0  0  0  0  0  0  0  0  0
    3.1960   -1.9606   -4.4892 H   0  0  0  0  0  0  0  0  0  0  0  0
    2.6196   -4.5690   -3.2141 H   0  0  0  0  0  0  0  0  0  0  0  0
    2.9317   -4.2560   -4.7868 H   0  0  0  0  0  0  0  0  0  0  0  0
    3.0348   -0.8813   -2.3987 H   0  0  0  0  0  0  0  0  0  0  0  0
    1.7228   -1.9848   -2.4733 H   0  0  0  0  0  0  0  0  0  0  0  0
    2.3040   -2.8772   -0.5177 H   0  0  0  0  0  0  0  0  0  0  0  0
    3.4808   -0.6798   -0.0736 H   0  0  0  0  0  0  0  0  0  0  0  0
    3.3261   -2.2614    1.5343 H   0  0  0  0  0  0  0  0  0  0  0  0
    5.2580   -0.6821   -1.6774 H   0  0  0  0  0  0  0  0  0  0  0  0
    5.8052    0.1530    0.3438 H   0  0  0  0  0  0  0  0  0  0  0  0
    6.5169   -3.1566   -0.4283 H   0  0  0  0  0  0  0  0  0  0  0  0
    7.0307   -2.3491   -1.8692 H   0  0  0  0  0  0  0  0  0  0  0  0
    1.6140   -3.6367   -4.0871 H   0  0  0  0  0  0  0  0  0  0  0  0
    3.4364   -4.4178   -1.9180 H   0  0  0  0  0  0  0  0  0  0  0  0
  1  2  1  0
  1 14  1  0
  1 15  1  0
  1 16  1  0
  2  8  1  0
  2  3  1  0
  2 33  1  6
  3 13  1  0
  3  4  1  0
  3 17  1  6
  4  5  1  0
  4 18  1  0
  4 19  1  0
  5  6  1  0
  5  7  1  0
  5 20  1  6
  6 21  1  0
  6 22  1  0
  6 32  1  0
  7  8  1  0
  7 23  1  0
  7 24  1  0
  8  9  1  0
  8 25  1  1
  9 10  1  0
  9 11  1  0
  9 26  1  1
 10 27  1  0
 11 12  1  0
 11 13  1  0
 11 28  1  6
 12 29  1  0
 13 30  1  0
 13 31  1  0
M  CHG  2   2   1   6   1
M  END
>  <i_m_ct_stereo_status>  (91) 
1

>  <s_m_source_file>  (91) 
/var/tmp/pbs.5076255.sched01/tmpc_kifbv4/0gx9_4qhc.sdf

>  <i_m_source_file_index>  (91) 
41

>  <i_lp_mmshare_version>  (91) 
48012

>  <i_f3d_flags>  (91) 
0

>  <s_epik_input>  (91) 
W09IXVtDQEBIXShbQ0gyXTEpW0NASF0oW09IXSlbQ0hdKE4oW0NIM10pW0NIXTEyKVtDSDJdW0NAQEhdKFtDSDJdMilbTkgyXQ==

>  <s_epik_cmdline>  (91) 
J2VwaWtfcHl0aG9uJywgJy1waHQnLCAnMi4wJywgJy1waCcsICc3LjAnLCAnLXRuJywgJzgnLCAnLW1hJywgJzIwMCcsICctaW1hZScsICc8aW5maWxlLm1hZT4nLCAnLW9tYWUnLCAnPG91dGZpbGUubWFlPic=

>  <r_epik_Ionization_Penalty>  (91) 
0.995929

>  <r_epik_Ionization_Penalty_Charging>  (91) 
0.995928

>  <r_epik_Ionization_Penalty_Neutral>  (91) 
7.17162e-07

>  <r_epik_State_Penalty>  (91) 
0.973308

>  <r_epik_Charging_Adjusted_Penalty>  (91) 
1.96924

>  <i_epik_Tot_Q>  (91) 
2

>  <i_epik_Tot_abs_Q>  (91) 
2

>  <s_lp_Force_Field>  (91) 
OPLS3e

>  <r_lp_Energy>  (91) 
42.6415

>  <b_lp_Chiralities_Consistent>  (91) 
1

>  <s_lp_Variant>  (91) 
30:0-3

>  <s_i_glide_gridfile>  (91) 
pfpi4k_grid

>  <i_i_glide_lignum>  (91) 
41

>  <i_i_glide_rotatable_bonds>  (91) 
2

>  <r_i_docking_score>  (91) 
-5.16564

>  <r_i_glide_ligand_efficiency>  (91) 
-0.397357

>  <r_i_glide_ligand_efficiency_sa>  (91) 
-0.934319

>  <r_i_glide_ligand_efficiency_ln>  (91) 
-1.44901

>  <r_i_glide_gscore>  (91) 
-5.16564

>  <r_i_glide_lipo>  (91) 
-0.497912

>  <r_i_glide_hbond>  (91) 
0

>  <r_i_glide_metal>  (91) 
-0

>  <r_i_glide_rewards>  (91) 
-2.12545

>  <r_i_glide_evdw>  (91) 
-11.4727

>  <r_i_glide_ecoul>  (91) 
-12.9272

>  <r_i_glide_erotb>  (91) 
0

>  <r_i_glide_esite>  (91) 
-0.0295527

>  <r_i_glide_emodel>  (91) 
-34.1689

>  <r_i_glide_energy>  (91) 
-24.3999

>  <r_i_glide_einternal>  (91) 
0.675038

>  <r_i_glide_intrahb_reward>  (91) 
-0

>  <i_i_glide_confnum>  (91) 
3

>  <i_i_glide_posenum>  (91) 
10

>  <r_i_glide_eff_state_penalty>  (91) 
0

>  <ligand_id>  (91) 
30

>  <original_smiles>  (91) 
CN1C2CC(N)CC1C(O)C(O)C2

>  <smiles>  (91) 
[H]OC1([H])C([H])([H])C2([H])C([H])([H])C([H])([N+]([H])([H])[H])C([H])([H])C([H])(C1([H])O[H])[N+]2([H])C([H])([H])[H]

$$$$
30:2:1
     RDKit          3D

 33 34  0  0  1  0  0  0  0  0999 V2000
    3.8564   -4.7084   -0.0228 C   0  0  0  0  0  0  0  0  0  0  0  0
    3.8519   -3.8202   -1.2119 N   0  0  2  0  0  0  0  0  0  0  0  0
    5.1411   -3.6672   -1.9098 C   0  0  1  0  0  0  0  0  0  0  0  0
    4.9331   -3.1172   -3.3585 C   0  0  0  0  0  0  0  0  0  0  0  0
    3.4855   -2.6751   -3.6510 C   0  0  1  0  0  0  0  0  0  0  0  0
    2.6078   -3.8033   -3.9390 N   0  0  0  0  0  0  0  0  0  0  0  0
    2.9159   -1.8596   -2.4783 C   0  0  0  0  0  0  0  0  0  0  0  0
    3.1753   -2.4966   -1.0764 C   0  0  2  0  0  0  0  0  0  0  0  0
    3.9885   -1.5219   -0.1977 C   0  0  1  0  0  0  0  0  0  0  0  0
    3.9504   -1.9369    1.1639 O   0  0  0  0  0  0  0  0  0  0  0  0
    5.4428   -1.4226   -0.7188 C   0  0  1  0  0  0  0  0  0  0  0  0
    6.2490   -0.7365    0.2160 O   0  0  0  0  0  0  0  0  0  0  0  0
    6.0829   -2.7832   -1.0678 C   0  0  0  0  0  0  0  0  0  0  0  0
    4.5426   -4.3864    0.7740 H   0  0  0  0  0  0  0  0  0  0  0  0
    4.1247   -5.7370   -0.3303 H   0  0  0  0  0  0  0  0  0  0  0  0
    2.8489   -4.7803    0.3980 H   0  0  0  0  0  0  0  0  0  0  0  0
    5.5722   -4.6527   -2.0167 H   0  0  0  0  0  0  0  0  0  0  0  0
    5.5886   -2.2570   -3.5178 H   0  0  0  0  0  0  0  0  0  0  0  0
    5.2600   -3.8563   -4.1030 H   0  0  0  0  0  0  0  0  0  0  0  0
    3.4780   -2.0502   -4.5489 H   0  0  0  0  0  0  0  0  0  0  0  0
    2.5309   -4.4895   -3.1816 H   0  0  0  0  0  0  0  0  0  0  0  0
    2.9894   -4.3122   -4.7351 H   0  0  0  0  0  0  0  0  0  0  0  0
    3.2682   -0.8295   -2.5406 H   0  0  0  0  0  0  0  0  0  0  0  0
    1.8491   -1.7989   -2.6676 H   0  0  0  0  0  0  0  0  0  0  0  0
    2.1993   -2.6688   -0.6080 H   0  0  0  0  0  0  0  0  0  0  0  0
    3.5323   -0.5228   -0.2094 H   0  0  0  0  0  0  0  0  0  0  0  0
    4.5484   -1.4126    1.6513 H   0  0  0  0  0  0  0  0  0  0  0  0
    5.4304   -0.8113   -1.6222 H   0  0  0  0  0  0  0  0  0  0  0  0
    5.8531    0.1024    0.4158 H   0  0  0  0  0  0  0  0  0  0  0  0
    6.3383   -3.3149   -0.1606 H   0  0  0  0  0  0  0  0  0  0  0  0
    7.0429   -2.6442   -1.5920 H   0  0  0  0  0  0  0  0  0  0  0  0
    1.6786   -3.5248   -4.1831 H   0  0  0  0  0  0  0  0  0  0  0  0
    3.2826   -4.3603   -1.8358 H   0  0  0  0  0  0  0  0  0  0  0  0
  1  2  1  0
  1 14  1  0
  1 15  1  0
  1 16  1  0
  2  8  1  0
  2  3  1  0
  2 33  1  6
  3 13  1  0
  3  4  1  0
  3 17  1  6
  4  5  1  0
  4 18  1  0
  4 19  1  0
  5  6  1  0
  5  7  1  0
  5 20  1  6
  6 21  1  0
  6 22  1  0
  6 32  1  0
  7  8  1  0
  7 23  1  0
  7 24  1  0
  8  9  1  0
  8 25  1  1
  9 10  1  0
  9 11  1  0
  9 26  1  1
 10 27  1  0
 11 12  1  0
 11 13  1  0
 11 28  1  6
 12 29  1  0
 13 30  1  0
 13 31  1  0
M  CHG  2   2   1   6   1
M  END
>  <i_m_ct_stereo_status>  (92) 
1

>  <s_m_source_file>  (92) 
/var/tmp/pbs.5076255.sched01/tmpc_kifbv4/0gx9_4qhc.sdf

>  <i_m_source_file_index>  (92) 
41

>  <i_lp_mmshare_version>  (92) 
48012

>  <i_f3d_flags>  (92) 
0

>  <s_epik_input>  (92) 
W09IXVtDQEBIXShbQ0gyXTEpW0NASF0oW09IXSlbQ0hdKE4oW0NIM10pW0NIXTEyKVtDSDJdW0NAQEhdKFtDSDJdMilbTkgyXQ==

>  <s_epik_cmdline>  (92) 
J2VwaWtfcHl0aG9uJywgJy1waHQnLCAnMi4wJywgJy1waCcsICc3LjAnLCAnLXRuJywgJzgnLCAnLW1hJywgJzIwMCcsICctaW1hZScsICc8aW5maWxlLm1hZT4nLCAnLW9tYWUnLCAnPG91dGZpbGUubWFlPic=

>  <r_epik_Ionization_Penalty>  (92) 
0.995929

>  <r_epik_Ionization_Penalty_Charging>  (92) 
0.995928

>  <r_epik_Ionization_Penalty_Neutral>  (92) 
7.17162e-07

>  <r_epik_State_Penalty>  (92) 
0.973308

>  <r_epik_Charging_Adjusted_Penalty>  (92) 
1.96924

>  <i_epik_Tot_Q>  (92) 
2

>  <i_epik_Tot_abs_Q>  (92) 
2

>  <s_lp_Force_Field>  (92) 
OPLS3e

>  <r_lp_Energy>  (92) 
42.6415

>  <b_lp_Chiralities_Consistent>  (92) 
1

>  <s_lp_Variant>  (92) 
30:0-3

>  <s_i_glide_gridfile>  (92) 
pfpi4k_grid

>  <i_i_glide_lignum>  (92) 
41

>  <i_i_glide_rotatable_bonds>  (92) 
2

>  <r_i_docking_score>  (92) 
-4.8429

>  <r_i_glide_ligand_efficiency>  (92) 
-0.372531

>  <r_i_glide_ligand_efficiency_sa>  (92) 
-0.875945

>  <r_i_glide_ligand_efficiency_ln>  (92) 
-1.35848

>  <r_i_glide_gscore>  (92) 
-4.8429

>  <r_i_glide_lipo>  (92) 
-0.464564

>  <r_i_glide_hbond>  (92) 
0

>  <r_i_glide_metal>  (92) 
-0

>  <r_i_glide_rewards>  (92) 
-2.12545

>  <r_i_glide_evdw>  (92) 
-12.7166

>  <r_i_glide_ecoul>  (92) 
-10.6458

>  <r_i_glide_erotb>  (92) 
0

>  <r_i_glide_esite>  (92) 
-0.0201853

>  <r_i_glide_emodel>  (92) 
-32.3374

>  <r_i_glide_energy>  (92) 
-23.3624

>  <r_i_glide_einternal>  (92) 
0.705548

>  <r_i_glide_intrahb_reward>  (92) 
-0

>  <i_i_glide_confnum>  (92) 
3

>  <i_i_glide_posenum>  (92) 
16

>  <r_i_glide_eff_state_penalty>  (92) 
0

>  <ligand_id>  (92) 
30

>  <original_smiles>  (92) 
CN1C2CC(N)CC1C(O)C(O)C2

>  <smiles>  (92) 
[H]OC1([H])C([H])([H])C2([H])C([H])([H])C([H])([N+]([H])([H])[H])C([H])([H])C([H])(C1([H])O[H])[N+]2([H])C([H])([H])[H]

$$$$
30:2:2
     RDKit          3D

 33 34  0  0  1  0  0  0  0  0999 V2000
    3.4260   -4.2278    0.2759 C   0  0  0  0  0  0  0  0  0  0  0  0
    3.6128   -3.4400   -0.9476 N   0  0  2  0  0  0  0  0  0  0  0  0
    4.7888   -3.8179   -1.7878 C   0  0  1  0  0  0  0  0  0  0  0  0
    4.6411   -3.2571   -3.2228 C   0  0  0  0  0  0  0  0  0  0  0  0
    3.4468   -2.3013   -3.4137 C   0  0  1  0  0  0  0  0  0  0  0  0
    2.1756   -3.0506   -3.6057 N   0  0  0  0  0  0  0  0  0  0  0  0
    3.3472   -1.3070   -2.2392 C   0  0  0  0  0  0  0  0  0  0  0  0
    3.5242   -1.9475   -0.8296 C   0  0  2  0  0  0  0  0  0  0  0  0
    4.7756   -1.3830   -0.0995 C   0  0  1  0  0  0  0  0  0  0  0  0
    4.7383   -1.7755    1.2694 O   0  0  0  0  0  0  0  0  0  0  0  0
    6.0819   -1.8573   -0.7667 C   0  0  1  0  0  0  0  0  0  0  0  0
    7.2002   -1.5781    0.0483 O   0  0  0  0  0  0  0  0  0  0  0  0
    6.0813   -3.3625   -1.0798 C   0  0  0  0  0  0  0  0  0  0  0  0
    4.2621   -4.1520    0.9799 H   0  0  0  0  0  0  0  0  0  0  0  0
    3.2456   -5.2744    0.0143 H   0  0  0  0  0  0  0  0  0  0  0  0
    2.5276   -3.9126    0.8061 H   0  0  0  0  0  0  0  0  0  0  0  0
    4.8206   -4.9076   -1.8637 H   0  0  0  0  0  0  0  0  0  0  0  0
    5.5499   -2.7284   -3.5059 H   0  0  0  0  0  0  0  0  0  0  0  0
    4.5840   -4.0686   -3.9473 H   0  0  0  0  0  0  0  0  0  0  0  0
    3.5797   -1.7363   -4.3344 H   0  0  0  0  0  0  0  0  0  0  0  0
    1.9178   -3.6177   -2.7976 H   0  0  0  0  0  0  0  0  0  0  0  0
    2.2336   -3.6643   -4.4092 H   0  0  0  0  0  0  0  0  0  0  0  0
    4.0940   -0.5285   -2.3870 H   0  0  0  0  0  0  0  0  0  0  0  0
    2.4128   -0.7587   -2.3217 H   0  0  0  0  0  0  0  0  0  0  0  0
    2.6415   -1.7153   -0.2275 H   0  0  0  0  0  0  0  0  0  0  0  0
    4.7439   -0.2867   -0.1192 H   0  0  0  0  0  0  0  0  0  0  0  0
    3.9175   -1.5651    1.6509 H   0  0  0  0  0  0  0  0  0  0  0  0
    6.1995   -1.3143   -1.6977 H   0  0  0  0  0  0  0  0  0  0  0  0
    7.0231   -1.8945    0.9100 H   0  0  0  0  0  0  0  0  0  0  0  0
    6.2190   -3.9445   -0.1701 H   0  0  0  0  0  0  0  0  0  0  0  0
    6.9480   -3.5942   -1.7018 H   0  0  0  0  0  0  0  0  0  0  0  0
    1.4253   -2.4034   -3.7922 H   0  0  0  0  0  0  0  0  0  0  0  0
    2.8227   -3.6926   -1.5011 H   0  0  0  0  0  0  0  0  0  0  0  0
  1  2  1  0
  1 14  1  0
  1 15  1  0
  1 16  1  0
  2  8  1  0
  2  3  1  0
  2 33  1  6
  3 13  1  0
  3  4  1  0
  3 17  1  6
  4  5  1  0
  4 18  1  0
  4 19  1  0
  5  6  1  0
  5  7  1  0
  5 20  1  6
  6 21  1  0
  6 22  1  0
  6 32  1  0
  7  8  1  0
  7 23  1  0
  7 24  1  0
  8  9  1  0
  8 25  1  1
  9 10  1  0
  9 11  1  0
  9 26  1  1
 10 27  1  0
 11 12  1  0
 11 13  1  0
 11 28  1  6
 12 29  1  0
 13 30  1  0
 13 31  1  0
M  CHG  2   2   1   6   1
M  END
>  <i_m_ct_stereo_status>  (93) 
1

>  <s_m_source_file>  (93) 
/var/tmp/pbs.5076255.sched01/tmpc_kifbv4/0gx9_4qhc.sdf

>  <i_m_source_file_index>  (93) 
41

>  <i_lp_mmshare_version>  (93) 
48012

>  <i_f3d_flags>  (93) 
0

>  <s_epik_input>  (93) 
W09IXVtDQEBIXShbQ0gyXTEpW0NASF0oW09IXSlbQ0hdKE4oW0NIM10pW0NIXTEyKVtDSDJdW0NAQEhdKFtDSDJdMilbTkgyXQ==

>  <s_epik_cmdline>  (93) 
J2VwaWtfcHl0aG9uJywgJy1waHQnLCAnMi4wJywgJy1waCcsICc3LjAnLCAnLXRuJywgJzgnLCAnLW1hJywgJzIwMCcsICctaW1hZScsICc8aW5maWxlLm1hZT4nLCAnLW9tYWUnLCAnPG91dGZpbGUubWFlPic=

>  <r_epik_Ionization_Penalty>  (93) 
0.995929

>  <r_epik_Ionization_Penalty_Charging>  (93) 
0.995928

>  <r_epik_Ionization_Penalty_Neutral>  (93) 
7.17162e-07

>  <r_epik_State_Penalty>  (93) 
0.973308

>  <r_epik_Charging_Adjusted_Penalty>  (93) 
1.96924

>  <i_epik_Tot_Q>  (93) 
2

>  <i_epik_Tot_abs_Q>  (93) 
2

>  <s_lp_Force_Field>  (93) 
OPLS3e

>  <r_lp_Energy>  (93) 
42.6415

>  <b_lp_Chiralities_Consistent>  (93) 
1

>  <s_lp_Variant>  (93) 
30:0-3

>  <s_i_glide_gridfile>  (93) 
pfpi4k_grid

>  <i_i_glide_lignum>  (93) 
41

>  <i_i_glide_rotatable_bonds>  (93) 
2

>  <r_i_docking_score>  (93) 
-4.67752

>  <r_i_glide_ligand_efficiency>  (93) 
-0.359809

>  <r_i_glide_ligand_efficiency_sa>  (93) 
-0.846031

>  <r_i_glide_ligand_efficiency_ln>  (93) 
-1.31209

>  <r_i_glide_gscore>  (93) 
-4.67752

>  <r_i_glide_lipo>  (93) 
-0.475571

>  <r_i_glide_hbond>  (93) 
0

>  <r_i_glide_metal>  (93) 
-0

>  <r_i_glide_rewards>  (93) 
-2.12545

>  <r_i_glide_evdw>  (93) 
-13.9579

>  <r_i_glide_ecoul>  (93) 
-9.19066

>  <r_i_glide_erotb>  (93) 
0

>  <r_i_glide_esite>  (93) 
0

>  <r_i_glide_emodel>  (93) 
-31.9457

>  <r_i_glide_energy>  (93) 
-23.1486

>  <r_i_glide_einternal>  (93) 
0.335219

>  <r_i_glide_intrahb_reward>  (93) 
-0

>  <i_i_glide_confnum>  (93) 
1

>  <i_i_glide_posenum>  (93) 
38

>  <r_i_glide_eff_state_penalty>  (93) 
0

>  <ligand_id>  (93) 
30

>  <original_smiles>  (93) 
CN1C2CC(N)CC1C(O)C(O)C2

>  <smiles>  (93) 
[H]OC1([H])C([H])([H])C2([H])C([H])([H])C([H])([N+]([H])([H])[H])C([H])([H])C([H])(C1([H])O[H])[N+]2([H])C([H])([H])[H]

$$$$
30:3:0
     RDKit          3D

 33 34  0  0  1  0  0  0  0  0999 V2000
    6.0109   -3.8169   -0.8536 C   0  0  0  0  0  0  0  0  0  0  0  0
    4.7720   -3.3523   -1.5340 N   0  0  1  0  0  0  0  0  0  0  0  0
    3.5034   -3.6610   -0.8168 C   0  0  1  0  0  0  0  0  0  0  0  0
    3.4012   -2.8072    0.4728 C   0  0  0  0  0  0  0  0  0  0  0  0
    3.5624   -1.2986    0.2005 C   0  0  1  0  0  0  0  0  0  0  0  0
    3.6391   -0.5238    1.4465 N   0  0  0  0  0  0  0  0  0  0  0  0
    4.7469   -0.9999   -0.7256 C   0  0  0  0  0  0  0  0  0  0  0  0
    4.7879   -1.9268   -1.9667 C   0  0  2  0  0  0  0  0  0  0  0  0
    3.6303   -1.6515   -2.9872 C   0  0  1  0  0  0  0  0  0  0  0  0
    4.1558   -1.2776   -4.2550 O   0  0  0  0  0  0  0  0  0  0  0  0
    2.6565   -2.8546   -3.1448 C   0  0  1  0  0  0  0  0  0  0  0  0
    3.2921   -3.8518   -3.9276 O   0  0  0  0  0  0  0  0  0  0  0  0
    2.2947   -3.4773   -1.7750 C   0  0  0  0  0  0  0  0  0  0  0  0
    6.1909   -3.3101    0.0955 H   0  0  0  0  0  0  0  0  0  0  0  0
    6.8879   -3.6400   -1.4793 H   0  0  0  0  0  0  0  0  0  0  0  0
    5.9540   -4.8841   -0.6371 H   0  0  0  0  0  0  0  0  0  0  0  0
    3.5267   -4.7137   -0.5318 H   0  0  0  0  0  0  0  0  0  0  0  0
    2.4584   -3.0039    0.9782 H   0  0  0  0  0  0  0  0  0  0  0  0
    4.1672   -3.1342    1.1752 H   0  0  0  0  0  0  0  0  0  0  0  0
    2.6862   -0.9315   -0.3205 H   0  0  0  0  0  0  0  0  0  0  0  0
    4.4625   -0.7779    1.9680 H   0  0  0  0  0  0  0  0  0  0  0  0
    2.8255   -0.7117    2.0068 H   0  0  0  0  0  0  0  0  0  0  0  0
    4.6757    0.0316   -1.0560 H   0  0  0  0  0  0  0  0  0  0  0  0
    5.6877   -1.0827   -0.1802 H   0  0  0  0  0  0  0  0  0  0  0  0
    5.7409   -1.7668   -2.4739 H   0  0  0  0  0  0  0  0  0  0  0  0
    3.0370   -0.8025   -2.6534 H   0  0  0  0  0  0  0  0  0  0  0  0
    4.3958   -0.3648   -4.2464 H   0  0  0  0  0  0  0  0  0  0  0  0
    1.7453   -2.5532   -3.6672 H   0  0  0  0  0  0  0  0  0  0  0  0
    2.9951   -4.7109   -3.6156 H   0  0  0  0  0  0  0  0  0  0  0  0
    1.7578   -4.4133   -1.9114 H   0  0  0  0  0  0  0  0  0  0  0  0
    1.5489   -2.8760   -1.2938 H   0  0  0  0  0  0  0  0  0  0  0  0
    3.6661    0.4632    1.2479 H   0  0  0  0  0  0  0  0  0  0  0  0
    4.6958   -3.8729   -2.4053 H   0  0  0  0  0  0  0  0  0  0  0  0
  1  2  1  0
  1 14  1  0
  1 15  1  0
  1 16  1  0
  2  8  1  0
  2  3  1  0
  2 33  1  6
  3 13  1  0
  3  4  1  0
  3 17  1  1
  4  5  1  0
  4 18  1  0
  4 19  1  0
  5  6  1  0
  5  7  1  0
  5 20  1  6
  6 21  1  0
  6 22  1  0
  6 32  1  0
  7  8  1  0
  7 23  1  0
  7 24  1  0
  8  9  1  0
  8 25  1  6
  9 10  1  0
  9 11  1  0
  9 26  1  1
 10 27  1  0
 11 12  1  0
 11 13  1  0
 11 28  1  6
 12 29  1  0
 13 30  1  0
 13 31  1  0
M  CHG  2   2   1   6   1
M  END
>  <i_m_ct_stereo_status>  (94) 
1

>  <s_m_source_file>  (94) 
/var/tmp/pbs.5076255.sched01/tmpc_kifbv4/0gx9_4qhc.sdf

>  <i_m_source_file_index>  (94) 
42

>  <i_lp_mmshare_version>  (94) 
48012

>  <i_f3d_flags>  (94) 
0

>  <s_epik_input>  (94) 
W09IXVtDQEBIXShbQ0gyXTEpW0NASF0oW09IXSlbQ0hdKE4oW0NIM10pW0NIXTEyKVtDSDJdW0NAQEhdKFtDSDJdMilbTkgyXQ==

>  <s_epik_cmdline>  (94) 
J2VwaWtfcHl0aG9uJywgJy1waHQnLCAnMi4wJywgJy1waCcsICc3LjAnLCAnLXRuJywgJzgnLCAnLW1hJywgJzIwMCcsICctaW1hZScsICc8aW5maWxlLm1hZT4nLCAnLW9tYWUnLCAnPG91dGZpbGUubWFlPic=

>  <r_epik_Ionization_Penalty>  (94) 
0.995929

>  <r_epik_Ionization_Penalty_Charging>  (94) 
0.995928

>  <r_epik_Ionization_Penalty_Neutral>  (94) 
7.17162e-07

>  <r_epik_State_Penalty>  (94) 
0.973308

>  <r_epik_Charging_Adjusted_Penalty>  (94) 
1.96924

>  <i_epik_Tot_Q>  (94) 
2

>  <i_epik_Tot_abs_Q>  (94) 
2

>  <s_lp_Force_Field>  (94) 
OPLS3e

>  <r_lp_Energy>  (94) 
42.6057

>  <b_lp_Chiralities_Consistent>  (94) 
1

>  <s_lp_Variant>  (94) 
30:0-4

>  <s_i_glide_gridfile>  (94) 
pfpi4k_grid

>  <i_i_glide_lignum>  (94) 
42

>  <i_i_glide_rotatable_bonds>  (94) 
2

>  <r_i_docking_score>  (94) 
-5.10829

>  <r_i_glide_ligand_efficiency>  (94) 
-0.392946

>  <r_i_glide_ligand_efficiency_sa>  (94) 
-0.923947

>  <r_i_glide_ligand_efficiency_ln>  (94) 
-1.43292

>  <r_i_glide_gscore>  (94) 
-5.10829

>  <r_i_glide_lipo>  (94) 
-0.30973

>  <r_i_glide_hbond>  (94) 
0

>  <r_i_glide_metal>  (94) 
-0

>  <r_i_glide_rewards>  (94) 
-2.12545

>  <r_i_glide_evdw>  (94) 
-10.7812

>  <r_i_glide_ecoul>  (94) 
-14.2033

>  <r_i_glide_erotb>  (94) 
0

>  <r_i_glide_esite>  (94) 
-0.00356392

>  <r_i_glide_emodel>  (94) 
-33.1356

>  <r_i_glide_energy>  (94) 
-24.9845

>  <r_i_glide_einternal>  (94) 
1.92912

>  <r_i_glide_intrahb_reward>  (94) 
-0

>  <i_i_glide_confnum>  (94) 
1

>  <i_i_glide_posenum>  (94) 
8

>  <r_i_glide_eff_state_penalty>  (94) 
0

>  <ligand_id>  (94) 
30

>  <original_smiles>  (94) 
CN1C2CC(N)CC1C(O)C(O)C2

>  <smiles>  (94) 
[H]OC1([H])C([H])([H])C2([H])C([H])([H])C([H])([N+]([H])([H])[H])C([H])([H])C([H])(C1([H])O[H])[N+]2([H])C([H])([H])[H]

$$$$
30:3:1
     RDKit          3D

 33 34  0  0  1  0  0  0  0  0999 V2000
    5.9039   -4.0254   -1.1214 C   0  0  0  0  0  0  0  0  0  0  0  0
    4.6153   -3.5154   -1.6473 N   0  0  1  0  0  0  0  0  0  0  0  0
    3.4209   -3.8844   -0.8364 C   0  0  1  0  0  0  0  0  0  0  0  0
    3.4548   -3.1425    0.5187 C   0  0  0  0  0  0  0  0  0  0  0  0
    3.5734   -1.6124    0.3351 C   0  0  1  0  0  0  0  0  0  0  0  0
    3.8028   -0.9366    1.6254 N   0  0  0  0  0  0  0  0  0  0  0  0
    4.6737   -1.2339   -0.6847 C   0  0  0  0  0  0  0  0  0  0  0  0
    4.6001   -2.0656   -1.9843 C   0  0  2  0  0  0  0  0  0  0  0  0
    3.3501   -1.7230   -2.8570 C   0  0  1  0  0  0  0  0  0  0  0  0
    3.7526   -1.2241   -4.1258 O   0  0  0  0  0  0  0  0  0  0  0  0
    2.3717   -2.9239   -3.0079 C   0  0  1  0  0  0  0  0  0  0  0  0
    2.9292   -3.8499   -3.9224 O   0  0  0  0  0  0  0  0  0  0  0  0
    2.1220   -3.6373   -1.6530 C   0  0  0  0  0  0  0  0  0  0  0  0
    6.2126   -3.6025   -0.1664 H   0  0  0  0  0  0  0  0  0  0  0  0
    6.7214   -3.8408   -1.8207 H   0  0  0  0  0  0  0  0  0  0  0  0
    5.8139   -5.0966   -0.9599 H   0  0  0  0  0  0  0  0  0  0  0  0
    3.4734   -4.9541   -0.6335 H   0  0  0  0  0  0  0  0  0  0  0  0
    2.5701   -3.3914    1.1067 H   0  0  0  0  0  0  0  0  0  0  0  0
    4.2988   -3.5100    1.1042 H   0  0  0  0  0  0  0  0  0  0  0  0
    2.6172   -1.2467   -0.0274 H   0  0  0  0  0  0  0  0  0  0  0  0
    4.6830   -1.2345    2.0197 H   0  0  0  0  0  0  0  0  0  0  0  0
    3.0560   -1.1678    2.2633 H   0  0  0  0  0  0  0  0  0  0  0  0
    4.6118   -0.1771   -0.9335 H   0  0  0  0  0  0  0  0  0  0  0  0
    5.6575   -1.3763   -0.2369 H   0  0  0  0  0  0  0  0  0  0  0  0
    5.4991   -1.8664   -2.5687 H   0  0  0  0  0  0  0  0  0  0  0  0
    2.8026   -0.9029   -2.3914 H   0  0  0  0  0  0  0  0  0  0  0  0
    2.9829   -1.0866   -4.6538 H   0  0  0  0  0  0  0  0  0  0  0  0
    1.4186   -2.5970   -3.4164 H   0  0  0  0  0  0  0  0  0  0  0  0
    2.7325   -4.7321   -3.6002 H   0  0  0  0  0  0  0  0  0  0  0  0
    1.5579   -4.5614   -1.7897 H   0  0  0  0  0  0  0  0  0  0  0  0
    1.4315   -3.0556   -1.0511 H   0  0  0  0  0  0  0  0  0  0  0  0
    3.8152    0.0645    1.4913 H   0  0  0  0  0  0  0  0  0  0  0  0
    4.4500   -3.9721   -2.5413 H   0  0  0  0  0  0  0  0  0  0  0  0
  1  2  1  0
  1 14  1  0
  1 15  1  0
  1 16  1  0
  2  8  1  0
  2  3  1  0
  2 33  1  6
  3 13  1  0
  3  4  1  0
  3 17  1  1
  4  5  1  0
  4 18  1  0
  4 19  1  0
  5  6  1  0
  5  7  1  0
  5 20  1  6
  6 21  1  0
  6 22  1  0
  6 32  1  0
  7  8  1  0
  7 23  1  0
  7 24  1  0
  8  9  1  0
  8 25  1  6
  9 10  1  0
  9 11  1  0
  9 26  1  1
 10 27  1  0
 11 12  1  0
 11 13  1  0
 11 28  1  6
 12 29  1  0
 13 30  1  0
 13 31  1  0
M  CHG  2   2   1   6   1
M  END
>  <i_m_ct_stereo_status>  (95) 
1

>  <s_m_source_file>  (95) 
/var/tmp/pbs.5076255.sched01/tmpc_kifbv4/0gx9_4qhc.sdf

>  <i_m_source_file_index>  (95) 
42

>  <i_lp_mmshare_version>  (95) 
48012

>  <i_f3d_flags>  (95) 
0

>  <s_epik_input>  (95) 
W09IXVtDQEBIXShbQ0gyXTEpW0NASF0oW09IXSlbQ0hdKE4oW0NIM10pW0NIXTEyKVtDSDJdW0NAQEhdKFtDSDJdMilbTkgyXQ==

>  <s_epik_cmdline>  (95) 
J2VwaWtfcHl0aG9uJywgJy1waHQnLCAnMi4wJywgJy1waCcsICc3LjAnLCAnLXRuJywgJzgnLCAnLW1hJywgJzIwMCcsICctaW1hZScsICc8aW5maWxlLm1hZT4nLCAnLW9tYWUnLCAnPG91dGZpbGUubWFlPic=

>  <r_epik_Ionization_Penalty>  (95) 
0.995929

>  <r_epik_Ionization_Penalty_Charging>  (95) 
0.995928

>  <r_epik_Ionization_Penalty_Neutral>  (95) 
7.17162e-07

>  <r_epik_State_Penalty>  (95) 
0.973308

>  <r_epik_Charging_Adjusted_Penalty>  (95) 
1.96924

>  <i_epik_Tot_Q>  (95) 
2

>  <i_epik_Tot_abs_Q>  (95) 
2

>  <s_lp_Force_Field>  (95) 
OPLS3e

>  <r_lp_Energy>  (95) 
42.6057

>  <b_lp_Chiralities_Consistent>  (95) 
1

>  <s_lp_Variant>  (95) 
30:0-4

>  <s_i_glide_gridfile>  (95) 
pfpi4k_grid

>  <i_i_glide_lignum>  (95) 
42

>  <i_i_glide_rotatable_bonds>  (95) 
2

>  <r_i_docking_score>  (95) 
-5.08076

>  <r_i_glide_ligand_efficiency>  (95) 
-0.390828

>  <r_i_glide_ligand_efficiency_sa>  (95) 
-0.918967

>  <r_i_glide_ligand_efficiency_ln>  (95) 
-1.4252

>  <r_i_glide_gscore>  (95) 
-5.08076

>  <r_i_glide_lipo>  (95) 
-0.226628

>  <r_i_glide_hbond>  (95) 
0

>  <r_i_glide_metal>  (95) 
-0

>  <r_i_glide_rewards>  (95) 
-2.12545

>  <r_i_glide_evdw>  (95) 
-11.9791

>  <r_i_glide_ecoul>  (95) 
-14.1463

>  <r_i_glide_erotb>  (95) 
0

>  <r_i_glide_esite>  (95) 
-0.00778167

>  <r_i_glide_emodel>  (95) 
-34.3665

>  <r_i_glide_energy>  (95) 
-26.1254

>  <r_i_glide_einternal>  (95) 
1.7313

>  <r_i_glide_intrahb_reward>  (95) 
-0

>  <i_i_glide_confnum>  (95) 
1

>  <i_i_glide_posenum>  (95) 
4

>  <r_i_glide_eff_state_penalty>  (95) 
0

>  <ligand_id>  (95) 
30

>  <original_smiles>  (95) 
CN1C2CC(N)CC1C(O)C(O)C2

>  <smiles>  (95) 
[H]OC1([H])C([H])([H])C2([H])C([H])([H])C([H])([N+]([H])([H])[H])C([H])([H])C([H])(C1([H])O[H])[N+]2([H])C([H])([H])[H]

$$$$
30:3:2
     RDKit          3D

 33 34  0  0  1  0  0  0  0  0999 V2000
    6.5499   -2.8418   -1.4904 C   0  0  0  0  0  0  0  0  0  0  0  0
    5.1525   -2.5512   -1.9239 N   0  0  1  0  0  0  0  0  0  0  0  0
    4.0992   -3.4678   -1.4044 C   0  0  1  0  0  0  0  0  0  0  0  0
    3.9244   -3.2546    0.1220 C   0  0  0  0  0  0  0  0  0  0  0  0
    3.6195   -1.7794    0.4682 C   0  0  1  0  0  0  0  0  0  0  0  0
    3.6409   -1.5648    1.9248 N   0  0  0  0  0  0  0  0  0  0  0  0
    4.5764   -0.8105   -0.2490 C   0  0  0  0  0  0  0  0  0  0  0  0
    4.7405   -1.1375   -1.7551 C   0  0  2  0  0  0  0  0  0  0  0  0
    3.4642   -0.8588   -2.6133 C   0  0  1  0  0  0  0  0  0  0  0  0
    3.7397    0.1384   -3.5819 O   0  0  0  0  0  0  0  0  0  0  0  0
    2.8428   -2.1317   -3.2432 C   0  0  1  0  0  0  0  0  0  0  0  0
    3.6314   -2.6114   -4.3199 O   0  0  0  0  0  0  0  0  0  0  0  0
    2.7669   -3.2590   -2.2053 C   0  0  0  0  0  0  0  0  0  0  0  0
    6.6957   -2.7207   -0.4207 H   0  0  0  0  0  0  0  0  0  0  0  0
    7.2707   -2.2108   -2.0018 H   0  0  0  0  0  0  0  0  0  0  0  0
    6.8114   -3.8534   -1.7415 H   0  0  0  0  0  0  0  0  0  0  0  0
    4.4324   -4.4924   -1.5681 H   0  0  0  0  0  0  0  0  0  0  0  0
    3.1337   -3.9050    0.4958 H   0  0  0  0  0  0  0  0  0  0  0  0
    4.8298   -3.5822    0.6339 H   0  0  0  0  0  0  0  0  0  0  0  0
    2.6201   -1.5544    0.1310 H   0  0  0  0  0  0  0  0  0  0  0  0
    4.5626   -1.7412    2.2928 H   0  0  0  0  0  0  0  0  0  0  0  0
    2.9852   -2.1780    2.3734 H   0  0  0  0  0  0  0  0  0  0  0  0
    4.2210    0.2082   -0.1149 H   0  0  0  0  0  0  0  0  0  0  0  0
    5.5590   -0.8332    0.2239 H   0  0  0  0  0  0  0  0  0  0  0  0
    5.5413   -0.5034   -2.1422 H   0  0  0  0  0  0  0  0  0  0  0  0
    2.6707   -0.4831   -1.9784 H   0  0  0  0  0  0  0  0  0  0  0  0
    3.1147    0.8591   -3.4932 H   0  0  0  0  0  0  0  0  0  0  0  0
    1.8368   -1.9319   -3.6281 H   0  0  0  0  0  0  0  0  0  0  0  0
    3.1900   -3.3815   -4.6675 H   0  0  0  0  0  0  0  0  0  0  0  0
    2.4632   -4.1508   -2.7474 H   0  0  0  0  0  0  0  0  0  0  0  0
    1.9380   -3.0951   -1.5169 H   0  0  0  0  0  0  0  0  0  0  0  0
    3.3864   -0.6095    2.1312 H   0  0  0  0  0  0  0  0  0  0  0  0
    5.1135   -2.6879   -2.9262 H   0  0  0  0  0  0  0  0  0  0  0  0
  1  2  1  0
  1 14  1  0
  1 15  1  0
  1 16  1  0
  2  8  1  0
  2  3  1  0
  2 33  1  6
  3 13  1  0
  3  4  1  0
  3 17  1  1
  4  5  1  0
  4 18  1  0
  4 19  1  0
  5  6  1  0
  5  7  1  0
  5 20  1  6
  6 21  1  0
  6 22  1  0
  6 32  1  0
  7  8  1  0
  7 23  1  0
  7 24  1  0
  8  9  1  0
  8 25  1  6
  9 10  1  0
  9 11  1  0
  9 26  1  1
 10 27  1  0
 11 12  1  0
 11 13  1  0
 11 28  1  6
 12 29  1  0
 13 30  1  0
 13 31  1  0
M  CHG  2   2   1   6   1
M  END
>  <i_m_ct_stereo_status>  (96) 
1

>  <s_m_source_file>  (96) 
/var/tmp/pbs.5076255.sched01/tmpc_kifbv4/0gx9_4qhc.sdf

>  <i_m_source_file_index>  (96) 
42

>  <i_lp_mmshare_version>  (96) 
48012

>  <i_f3d_flags>  (96) 
0

>  <s_epik_input>  (96) 
W09IXVtDQEBIXShbQ0gyXTEpW0NASF0oW09IXSlbQ0hdKE4oW0NIM10pW0NIXTEyKVtDSDJdW0NAQEhdKFtDSDJdMilbTkgyXQ==

>  <s_epik_cmdline>  (96) 
J2VwaWtfcHl0aG9uJywgJy1waHQnLCAnMi4wJywgJy1waCcsICc3LjAnLCAnLXRuJywgJzgnLCAnLW1hJywgJzIwMCcsICctaW1hZScsICc8aW5maWxlLm1hZT4nLCAnLW9tYWUnLCAnPG91dGZpbGUubWFlPic=

>  <r_epik_Ionization_Penalty>  (96) 
0.995929

>  <r_epik_Ionization_Penalty_Charging>  (96) 
0.995928

>  <r_epik_Ionization_Penalty_Neutral>  (96) 
7.17162e-07

>  <r_epik_State_Penalty>  (96) 
0.973308

>  <r_epik_Charging_Adjusted_Penalty>  (96) 
1.96924

>  <i_epik_Tot_Q>  (96) 
2

>  <i_epik_Tot_abs_Q>  (96) 
2

>  <s_lp_Force_Field>  (96) 
OPLS3e

>  <r_lp_Energy>  (96) 
42.6057

>  <b_lp_Chiralities_Consistent>  (96) 
1

>  <s_lp_Variant>  (96) 
30:0-4

>  <s_i_glide_gridfile>  (96) 
pfpi4k_grid

>  <i_i_glide_lignum>  (96) 
42

>  <i_i_glide_rotatable_bonds>  (96) 
2

>  <r_i_docking_score>  (96) 
-4.63954

>  <r_i_glide_ligand_efficiency>  (96) 
-0.356888

>  <r_i_glide_ligand_efficiency_sa>  (96) 
-0.839163

>  <r_i_glide_ligand_efficiency_ln>  (96) 
-1.30143

>  <r_i_glide_gscore>  (96) 
-4.63954

>  <r_i_glide_lipo>  (96) 
-0.142624

>  <r_i_glide_hbond>  (96) 
0

>  <r_i_glide_metal>  (96) 
-0

>  <r_i_glide_rewards>  (96) 
-2.12545

>  <r_i_glide_evdw>  (96) 
-11.7396

>  <r_i_glide_ecoul>  (96) 
-11.8388

>  <r_i_glide_erotb>  (96) 
0

>  <r_i_glide_esite>  (96) 
-0.00867476

>  <r_i_glide_emodel>  (96) 
-30.9687

>  <r_i_glide_energy>  (96) 
-23.5784

>  <r_i_glide_einternal>  (96) 
1.85248

>  <r_i_glide_intrahb_reward>  (96) 
-0

>  <i_i_glide_confnum>  (96) 
2

>  <i_i_glide_posenum>  (96) 
20

>  <r_i_glide_eff_state_penalty>  (96) 
0

>  <ligand_id>  (96) 
30

>  <original_smiles>  (96) 
CN1C2CC(N)CC1C(O)C(O)C2

>  <smiles>  (96) 
[H]OC1([H])C([H])([H])C2([H])C([H])([H])C([H])([N+]([H])([H])[H])C([H])([H])C([H])(C1([H])O[H])[N+]2([H])C([H])([H])[H]

$$$$
30:4:0
     RDKit          3D

 33 34  0  0  1  0  0  0  0  0999 V2000
    4.0634   -5.3104    0.2336 C   0  0  0  0  0  0  0  0  0  0  0  0
    4.9111   -4.1050    0.4565 N   0  0  2  0  0  0  0  0  0  0  0  0
    4.2407   -2.9397    1.0965 C   0  0  2  0  0  0  0  0  0  0  0  0
    3.2986   -2.1836    0.1085 C   0  0  0  0  0  0  0  0  0  0  0  0
    3.4799   -2.5362   -1.4008 C   0  0  1  0  0  0  0  0  0  0  0  0
    3.0097   -1.4337   -2.2567 N   0  0  0  0  0  0  0  0  0  0  0  0
    4.9054   -2.9739   -1.8082 C   0  0  0  0  0  0  0  0  0  0  0  0
    5.7484   -3.6595   -0.6921 C   0  0  1  0  0  0  0  0  0  0  0  0
    6.9150   -2.7883   -0.1425 C   0  0  1  0  0  0  0  0  0  0  0  0
    7.8026   -2.3340   -1.1466 O   0  0  0  0  0  0  0  0  0  0  0  0
    6.4104   -1.5873    0.7038 C   0  0  1  0  0  0  0  0  0  0  0  0
    5.8345   -0.6522   -0.1537 O   0  0  0  0  0  0  0  0  0  0  0  0
    5.3325   -2.0280    1.7199 C   0  0  0  0  0  0  0  0  0  0  0  0
    3.2446   -5.1457   -0.4562 H   0  0  0  0  0  0  0  0  0  0  0  0
    3.6171   -5.6562    1.1716 H   0  0  0  0  0  0  0  0  0  0  0  0
    4.6503   -6.1472   -0.1559 H   0  0  0  0  0  0  0  0  0  0  0  0
    3.6285   -3.3043    1.9225 H   0  0  0  0  0  0  0  0  0  0  0  0
    2.2624   -2.3728    0.3892 H   0  0  0  0  0  0  0  0  0  0  0  0
    3.3879   -1.1072    0.2644 H   0  0  0  0  0  0  0  0  0  0  0  0
    2.8081   -3.3664   -1.6159 H   0  0  0  0  0  0  0  0  0  0  0  0
    3.5997   -0.6203   -2.1351 H   0  0  0  0  0  0  0  0  0  0  0  0
    2.0567   -1.2064   -1.9489 H   0  0  0  0  0  0  0  0  0  0  0  0
    4.8337   -3.6482   -2.6594 H   0  0  0  0  0  0  0  0  0  0  0  0
    5.4513   -2.1209   -2.2117 H   0  0  0  0  0  0  0  0  0  0  0  0
    6.2001   -4.5478   -1.1130 H   0  0  0  0  0  0  0  0  0  0  0  0
    7.5101   -3.4096    0.5242 H   0  0  0  0  0  0  0  0  0  0  0  0
    8.1681   -3.0597   -1.6358 H   0  0  0  0  0  0  0  0  0  0  0  0
    7.2395   -1.1120    1.2324 H   0  0  0  0  0  0  0  0  0  0  0  0
    5.4966    0.0874    0.3457 H   0  0  0  0  0  0  0  0  0  0  0  0
    4.8841   -1.1712    2.2215 H   0  0  0  0  0  0  0  0  0  0  0  0
    5.8251   -2.5869    2.5136 H   0  0  0  0  0  0  0  0  0  0  0  0
    3.0011   -1.7160   -3.2293 H   0  0  0  0  0  0  0  0  0  0  0  0
    5.5786   -4.4072    1.1484 H   0  0  0  0  0  0  0  0  0  0  0  0
  1  2  1  0
  1 14  1  0
  1 15  1  0
  1 16  1  0
  2  8  1  0
  2  3  1  0
  2 33  1  1
  3 13  1  0
  3  4  1  0
  3 17  1  1
  4  5  1  0
  4 18  1  0
  4 19  1  0
  5  6  1  0
  5  7  1  0
  5 20  1  6
  6 21  1  0
  6 22  1  0
  6 32  1  0
  7  8  1  0
  7 23  1  0
  7 24  1  0
  8  9  1  0
  8 25  1  6
  9 10  1  0
  9 11  1  0
  9 26  1  1
 10 27  1  0
 11 12  1  0
 11 13  1  0
 11 28  1  1
 12 29  1  0
 13 30  1  0
 13 31  1  0
M  CHG  2   2   1   6   1
M  END
>  <i_m_ct_stereo_status>  (97) 
1

>  <s_m_source_file>  (97) 
/var/tmp/pbs.5076255.sched01/tmpc_kifbv4/0gx9_4qhc.sdf

>  <i_m_source_file_index>  (97) 
43

>  <i_lp_mmshare_version>  (97) 
48012

>  <i_f3d_flags>  (97) 
0

>  <s_epik_input>  (97) 
W09IXVtDQEBIXShbQ0gyXTEpW0NASF0oW09IXSlbQ0hdKE4oW0NIM10pW0NIXTEyKVtDSDJdW0NAQEhdKFtDSDJdMilbTkgyXQ==

>  <s_epik_cmdline>  (97) 
J2VwaWtfcHl0aG9uJywgJy1waHQnLCAnMi4wJywgJy1waCcsICc3LjAnLCAnLXRuJywgJzgnLCAnLW1hJywgJzIwMCcsICctaW1hZScsICc8aW5maWxlLm1hZT4nLCAnLW9tYWUnLCAnPG91dGZpbGUubWFlPic=

>  <r_epik_Ionization_Penalty>  (97) 
0.995929

>  <r_epik_Ionization_Penalty_Charging>  (97) 
0.995928

>  <r_epik_Ionization_Penalty_Neutral>  (97) 
7.17162e-07

>  <r_epik_State_Penalty>  (97) 
0.973308

>  <r_epik_Charging_Adjusted_Penalty>  (97) 
1.96924

>  <i_epik_Tot_Q>  (97) 
2

>  <i_epik_Tot_abs_Q>  (97) 
2

>  <s_lp_Force_Field>  (97) 
OPLS3e

>  <r_lp_Energy>  (97) 
45.0363

>  <b_lp_Chiralities_Consistent>  (97) 
1

>  <s_lp_Variant>  (97) 
30:0-5

>  <s_i_glide_gridfile>  (97) 
pfpi4k_grid

>  <i_i_glide_lignum>  (97) 
43

>  <i_i_glide_rotatable_bonds>  (97) 
2

>  <r_i_docking_score>  (97) 
-5.04681

>  <r_i_glide_ligand_efficiency>  (97) 
-0.388216

>  <r_i_glide_ligand_efficiency_sa>  (97) 
-0.912826

>  <r_i_glide_ligand_efficiency_ln>  (97) 
-1.41568

>  <r_i_glide_gscore>  (97) 
-5.04681

>  <r_i_glide_lipo>  (97) 
-0.2997

>  <r_i_glide_hbond>  (97) 
-0.2

>  <r_i_glide_metal>  (97) 
-0

>  <r_i_glide_rewards>  (97) 
-2.12545

>  <r_i_glide_evdw>  (97) 
-10.104

>  <r_i_glide_ecoul>  (97) 
-12.1964

>  <r_i_glide_erotb>  (97) 
0

>  <r_i_glide_esite>  (97) 
-0.0869995

>  <r_i_glide_emodel>  (97) 
-31.5654

>  <r_i_glide_energy>  (97) 
-22.3004

>  <r_i_glide_einternal>  (97) 
0.701448

>  <r_i_glide_intrahb_reward>  (97) 
-0

>  <i_i_glide_confnum>  (97) 
1

>  <i_i_glide_posenum>  (97) 
7

>  <r_i_glide_eff_state_penalty>  (97) 
0

>  <ligand_id>  (97) 
30

>  <original_smiles>  (97) 
CN1C2CC(N)CC1C(O)C(O)C2

>  <smiles>  (97) 
[H]OC1([H])C([H])([H])C2([H])C([H])([H])C([H])([N+]([H])([H])[H])C([H])([H])C([H])(C1([H])O[H])[N+]2([H])C([H])([H])[H]

$$$$
30:4:1
     RDKit          3D

 33 34  0  0  1  0  0  0  0  0999 V2000
    2.3216   -2.0944    1.6812 C   0  0  0  0  0  0  0  0  0  0  0  0
    3.7790   -1.9824    1.3473 N   0  0  2  0  0  0  0  0  0  0  0  0
    4.1468   -0.9929    0.3034 C   0  0  2  0  0  0  0  0  0  0  0  0
    3.8037   -1.4679   -1.1343 C   0  0  0  0  0  0  0  0  0  0  0  0
    3.4699   -2.9819   -1.2779 C   0  0  1  0  0  0  0  0  0  0  0  0
    3.6880   -3.4528   -2.6614 N   0  0  0  0  0  0  0  0  0  0  0  0
    4.1763   -3.9092   -0.2634 C   0  0  0  0  0  0  0  0  0  0  0  0
    4.5221   -3.2574    1.1121 C   0  0  1  0  0  0  0  0  0  0  0  0
    6.0405   -2.9885    1.3194 C   0  0  1  0  0  0  0  0  0  0  0  0
    6.7950   -4.1684    1.2076 O   0  0  0  0  0  0  0  0  0  0  0  0
    6.6157   -1.8307    0.4438 C   0  0  1  0  0  0  0  0  0  0  0  0
    6.8059   -2.2191   -0.8899 O   0  0  0  0  0  0  0  0  0  0  0  0
    5.6477   -0.6263    0.4897 C   0  0  0  0  0  0  0  0  0  0  0  0
    1.7502   -2.4580    0.8341 H   0  0  0  0  0  0  0  0  0  0  0  0
    1.9016   -1.1262    1.9710 H   0  0  0  0  0  0  0  0  0  0  0  0
    2.1462   -2.7756    2.5205 H   0  0  0  0  0  0  0  0  0  0  0  0
    3.5887   -0.0778    0.4942 H   0  0  0  0  0  0  0  0  0  0  0  0
    2.9451   -0.9093   -1.4991 H   0  0  0  0  0  0  0  0  0  0  0  0
    4.5902   -1.1564   -1.8355 H   0  0  0  0  0  0  0  0  0  0  0  0
    2.3986   -3.0859   -1.1227 H   0  0  0  0  0  0  0  0  0  0  0  0
    4.6633   -3.4123   -2.9141 H   0  0  0  0  0  0  0  0  0  0  0  0
    3.1434   -2.9040   -3.3069 H   0  0  0  0  0  0  0  0  0  0  0  0
    3.5393   -4.7748   -0.0824 H   0  0  0  0  0  0  0  0  0  0  0  0
    5.0780   -4.3492   -0.6926 H   0  0  0  0  0  0  0  0  0  0  0  0
    4.2302   -3.9611    1.9068 H   0  0  0  0  0  0  0  0  0  0  0  0
    6.1606   -2.6630    2.3566 H   0  0  0  0  0  0  0  0  0  0  0  0
    7.7194   -3.9978    1.3761 H   0  0  0  0  0  0  0  0  0  0  0  0
    7.5966   -1.5290    0.8157 H   0  0  0  0  0  0  0  0  0  0  0  0
    6.0493   -2.6912   -1.1990 H   0  0  0  0  0  0  0  0  0  0  0  0
    5.9720    0.1364   -0.2317 H   0  0  0  0  0  0  0  0  0  0  0  0
    5.7700   -0.1507    1.4616 H   0  0  0  0  0  0  0  0  0  0  0  0
    3.3788   -4.4303   -2.7239 H   0  0  0  0  0  0  0  0  0  0  0  0
    4.1883   -1.6123    2.1880 H   0  0  0  0  0  0  0  0  0  0  0  0
  1  2  1  0
  1 14  1  0
  1 15  1  0
  1 16  1  0
  2  8  1  0
  2  3  1  0
  2 33  1  1
  3 13  1  0
  3  4  1  0
  3 17  1  1
  4  5  1  0
  4 18  1  0
  4 19  1  0
  5  6  1  0
  5  7  1  0
  5 20  1  1
  6 21  1  0
  6 22  1  0
  6 32  1  0
  7  8  1  0
  7 23  1  0
  7 24  1  0
  8  9  1  0
  8 25  1  1
  9 10  1  0
  9 11  1  0
  9 26  1  1
 10 27  1  0
 11 12  1  0
 11 13  1  0
 11 28  1  1
 12 29  1  0
 13 30  1  0
 13 31  1  0
M  CHG  2   2   1   6   1
M  END
>  <i_m_ct_stereo_status>  (98) 
1

>  <s_m_source_file>  (98) 
/var/tmp/pbs.5076255.sched01/tmpc_kifbv4/0gx9_4qhc.sdf

>  <i_m_source_file_index>  (98) 
43

>  <i_lp_mmshare_version>  (98) 
48012

>  <i_f3d_flags>  (98) 
0

>  <s_epik_input>  (98) 
W09IXVtDQEBIXShbQ0gyXTEpW0NASF0oW09IXSlbQ0hdKE4oW0NIM10pW0NIXTEyKVtDSDJdW0NAQEhdKFtDSDJdMilbTkgyXQ==

>  <s_epik_cmdline>  (98) 
J2VwaWtfcHl0aG9uJywgJy1waHQnLCAnMi4wJywgJy1waCcsICc3LjAnLCAnLXRuJywgJzgnLCAnLW1hJywgJzIwMCcsICctaW1hZScsICc8aW5maWxlLm1hZT4nLCAnLW9tYWUnLCAnPG91dGZpbGUubWFlPic=

>  <r_epik_Ionization_Penalty>  (98) 
0.995929

>  <r_epik_Ionization_Penalty_Charging>  (98) 
0.995928

>  <r_epik_Ionization_Penalty_Neutral>  (98) 
7.17162e-07

>  <r_epik_State_Penalty>  (98) 
0.973308

>  <r_epik_Charging_Adjusted_Penalty>  (98) 
1.96924

>  <i_epik_Tot_Q>  (98) 
2

>  <i_epik_Tot_abs_Q>  (98) 
2

>  <s_lp_Force_Field>  (98) 
OPLS3e

>  <r_lp_Energy>  (98) 
45.0363

>  <b_lp_Chiralities_Consistent>  (98) 
1

>  <s_lp_Variant>  (98) 
30:0-5

>  <s_i_glide_gridfile>  (98) 
pfpi4k_grid

>  <i_i_glide_lignum>  (98) 
43

>  <i_i_glide_rotatable_bonds>  (98) 
2

>  <r_i_docking_score>  (98) 
-4.766

>  <r_i_glide_ligand_efficiency>  (98) 
-0.366615

>  <r_i_glide_ligand_efficiency_sa>  (98) 
-0.862035

>  <r_i_glide_ligand_efficiency_ln>  (98) 
-1.3369

>  <r_i_glide_gscore>  (98) 
-4.766

>  <r_i_glide_lipo>  (98) 
-0.287488

>  <r_i_glide_hbond>  (98) 
0

>  <r_i_glide_metal>  (98) 
-0

>  <r_i_glide_rewards>  (98) 
-2.12545

>  <r_i_glide_evdw>  (98) 
-11.1355

>  <r_i_glide_ecoul>  (98) 
-11.6605

>  <r_i_glide_erotb>  (98) 
0

>  <r_i_glide_esite>  (98) 
-0.0472089

>  <r_i_glide_emodel>  (98) 
-31.6933

>  <r_i_glide_energy>  (98) 
-22.796

>  <r_i_glide_einternal>  (98) 
0.38564

>  <r_i_glide_intrahb_reward>  (98) 
-0

>  <i_i_glide_confnum>  (98) 
2

>  <i_i_glide_posenum>  (98) 
12

>  <r_i_glide_eff_state_penalty>  (98) 
0

>  <ligand_id>  (98) 
30

>  <original_smiles>  (98) 
CN1C2CC(N)CC1C(O)C(O)C2

>  <smiles>  (98) 
[H]OC1([H])C([H])([H])C2([H])C([H])([H])C([H])([N+]([H])([H])[H])C([H])([H])C([H])(C1([H])O[H])[N+]2([H])C([H])([H])[H]

$$$$
30:4:2
     RDKit          3D

 33 34  0  0  1  0  0  0  0  0999 V2000
    6.3590   -1.4378   -0.1764 C   0  0  0  0  0  0  0  0  0  0  0  0
    5.3482   -1.6909   -1.2654 N   0  0  2  0  0  0  0  0  0  0  0  0
    3.9637   -1.2650   -0.9951 C   0  0  2  0  0  0  0  0  0  0  0  0
    3.2463   -2.1935    0.0253 C   0  0  0  0  0  0  0  0  0  0  0  0
    3.9506   -3.5542    0.3002 C   0  0  1  0  0  0  0  0  0  0  0  0
    2.9603   -4.5574    0.7418 N   0  0  0  0  0  0  0  0  0  0  0  0
    4.7840   -4.1120   -0.8727 C   0  0  0  0  0  0  0  0  0  0  0  0
    5.3591   -3.0625   -1.8596 C   0  0  1  0  0  0  0  0  0  0  0  0
    4.6247   -3.0110   -3.2395 C   0  0  1  0  0  0  0  0  0  0  0  0
    4.6208   -4.2448   -3.9500 O   0  0  0  0  0  0  0  0  0  0  0  0
    3.2036   -2.4145   -3.2069 C   0  0  1  0  0  0  0  0  0  0  0  0
    2.2725   -3.3367   -2.6531 O   0  0  0  0  0  0  0  0  0  0  0  0
    3.2322   -1.1156   -2.3824 C   0  0  0  0  0  0  0  0  0  0  0  0
    6.1591   -1.9725    0.7593 H   0  0  0  0  0  0  0  0  0  0  0  0
    6.3933   -0.3685    0.0944 H   0  0  0  0  0  0  0  0  0  0  0  0
    7.3675   -1.7256   -0.4707 H   0  0  0  0  0  0  0  0  0  0  0  0
    4.0025   -0.2602   -0.5537 H   0  0  0  0  0  0  0  0  0  0  0  0
    3.1073   -1.6583    0.9761 H   0  0  0  0  0  0  0  0  0  0  0  0
    2.2402   -2.3719   -0.2978 H   0  0  0  0  0  0  0  0  0  0  0  0
    4.6038   -3.4122    1.1624 H   0  0  0  0  0  0  0  0  0  0  0  0
    2.3126   -4.7501   -0.0053 H   0  0  0  0  0  0  0  0  0  0  0  0
    2.4544   -4.2098    1.5455 H   0  0  0  0  0  0  0  0  0  0  0  0
    5.5764   -4.7518   -0.4883 H   0  0  0  0  0  0  0  0  0  0  0  0
    4.1673   -4.7761   -1.4684 H   0  0  0  0  0  0  0  0  0  0  0  0
    6.3955   -3.3371   -2.0746 H   0  0  0  0  0  0  0  0  0  0  0  0
    5.2038   -2.3356   -3.8601 H   0  0  0  0  0  0  0  0  0  0  0  0
    4.2364   -4.9328   -3.4294 H   0  0  0  0  0  0  0  0  0  0  0  0
    2.8827   -2.1757   -4.2238 H   0  0  0  0  0  0  0  0  0  0  0  0
    2.3581   -4.1853   -3.0948 H   0  0  0  0  0  0  0  0  0  0  0  0
    2.2175   -0.7028   -2.3262 H   0  0  0  0  0  0  0  0  0  0  0  0
    3.7584   -0.3473   -2.9470 H   0  0  0  0  0  0  0  0  0  0  0  0
    3.4213   -5.4158    1.0015 H   0  0  0  0  0  0  0  0  0  0  0  0
    5.6001   -1.1035   -2.0449 H   0  0  0  0  0  0  0  0  0  0  0  0
  1  2  1  0
  1 14  1  0
  1 15  1  0
  1 16  1  0
  2  8  1  0
  2  3  1  0
  2 33  1  6
  3 13  1  0
  3  4  1  0
  3 17  1  1
  4  5  1  0
  4 18  1  0
  4 19  1  0
  5  6  1  0
  5  7  1  0
  5 20  1  1
  6 21  1  0
  6 22  1  0
  6 32  1  0
  7  8  1  0
  7 23  1  0
  7 24  1  0
  8  9  1  0
  8 25  1  6
  9 10  1  0
  9 11  1  0
  9 26  1  6
 10 27  1  0
 11 12  1  0
 11 13  1  0
 11 28  1  6
 12 29  1  0
 13 30  1  0
 13 31  1  0
M  CHG  2   2   1   6   1
M  END
>  <i_m_ct_stereo_status>  (99) 
1

>  <s_m_source_file>  (99) 
/var/tmp/pbs.5076255.sched01/tmpc_kifbv4/0gx9_4qhc.sdf

>  <i_m_source_file_index>  (99) 
43

>  <i_lp_mmshare_version>  (99) 
48012

>  <i_f3d_flags>  (99) 
0

>  <s_epik_input>  (99) 
W09IXVtDQEBIXShbQ0gyXTEpW0NASF0oW09IXSlbQ0hdKE4oW0NIM10pW0NIXTEyKVtDSDJdW0NAQEhdKFtDSDJdMilbTkgyXQ==

>  <s_epik_cmdline>  (99) 
J2VwaWtfcHl0aG9uJywgJy1waHQnLCAnMi4wJywgJy1waCcsICc3LjAnLCAnLXRuJywgJzgnLCAnLW1hJywgJzIwMCcsICctaW1hZScsICc8aW5maWxlLm1hZT4nLCAnLW9tYWUnLCAnPG91dGZpbGUubWFlPic=

>  <r_epik_Ionization_Penalty>  (99) 
0.995929

>  <r_epik_Ionization_Penalty_Charging>  (99) 
0.995928

>  <r_epik_Ionization_Penalty_Neutral>  (99) 
7.17162e-07

>  <r_epik_State_Penalty>  (99) 
0.973308

>  <r_epik_Charging_Adjusted_Penalty>  (99) 
1.96924

>  <i_epik_Tot_Q>  (99) 
2

>  <i_epik_Tot_abs_Q>  (99) 
2

>  <s_lp_Force_Field>  (99) 
OPLS3e

>  <r_lp_Energy>  (99) 
45.0363

>  <b_lp_Chiralities_Consistent>  (99) 
1

>  <s_lp_Variant>  (99) 
30:0-5

>  <s_i_glide_gridfile>  (99) 
pfpi4k_grid

>  <i_i_glide_lignum>  (99) 
43

>  <i_i_glide_rotatable_bonds>  (99) 
2

>  <r_i_docking_score>  (99) 
-4.55026

>  <r_i_glide_ligand_efficiency>  (99) 
-0.35002

>  <r_i_glide_ligand_efficiency_sa>  (99) 
-0.823014

>  <r_i_glide_ligand_efficiency_ln>  (99) 
-1.27639

>  <r_i_glide_gscore>  (99) 
-4.55026

>  <r_i_glide_lipo>  (99) 
-0.352982

>  <r_i_glide_hbond>  (99) 
0

>  <r_i_glide_metal>  (99) 
-0

>  <r_i_glide_rewards>  (99) 
-2.12545

>  <r_i_glide_evdw>  (99) 
-13.5101

>  <r_i_glide_ecoul>  (99) 
-8.90328

>  <r_i_glide_erotb>  (99) 
0

>  <r_i_glide_esite>  (99) 
-0.0608306

>  <r_i_glide_emodel>  (99) 
-30.751

>  <r_i_glide_energy>  (99) 
-22.4134

>  <r_i_glide_einternal>  (99) 
0.494962

>  <r_i_glide_intrahb_reward>  (99) 
-0

>  <i_i_glide_confnum>  (99) 
2

>  <i_i_glide_posenum>  (99) 
2

>  <r_i_glide_eff_state_penalty>  (99) 
0

>  <ligand_id>  (99) 
30

>  <original_smiles>  (99) 
CN1C2CC(N)CC1C(O)C(O)C2

>  <smiles>  (99) 
[H]OC1([H])C([H])([H])C2([H])C([H])([H])C([H])([N+]([H])([H])[H])C([H])([H])C([H])(C1([H])O[H])[N+]2([H])C([H])([H])[H]

$$$$
30:5:0
     RDKit          3D

 33 34  0  0  1  0  0  0  0  0999 V2000
    1.9493   -3.0120   -2.4823 C   0  0  0  0  0  0  0  0  0  0  0  0
    2.9574   -3.4560   -1.4913 N   0  0  1  0  0  0  0  0  0  0  0  0
    4.3300   -3.6511   -2.0183 C   0  0  2  0  0  0  0  0  0  0  0  0
    5.1520   -4.5292   -1.0362 C   0  0  0  0  0  0  0  0  0  0  0  0
    4.4637   -4.8060    0.3188 C   0  0  1  0  0  0  0  0  0  0  0  0
    5.4174   -5.3466    1.3032 N   0  0  0  0  0  0  0  0  0  0  0  0
    3.7516   -3.5568    0.8766 C   0  0  0  0  0  0  0  0  0  0  0  0
    3.0105   -2.7182   -0.2012 C   0  0  1  0  0  0  0  0  0  0  0  0
    3.6555   -1.3117   -0.4156 C   0  0  1  0  0  0  0  0  0  0  0  0
    3.7395   -0.5846    0.8031 O   0  0  0  0  0  0  0  0  0  0  0  0
    5.0201   -1.3320   -1.1267 C   0  0  1  0  0  0  0  0  0  0  0  0
    6.0358   -1.6883   -0.2164 O   0  0  0  0  0  0  0  0  0  0  0  0
    5.0017   -2.2945   -2.3332 C   0  0  0  0  0  0  0  0  0  0  0  0
    2.1202   -1.9966   -2.8380 H   0  0  0  0  0  0  0  0  0  0  0  0
    0.9500   -3.0492   -2.0431 H   0  0  0  0  0  0  0  0  0  0  0  0
    1.9419   -3.6752   -3.3457 H   0  0  0  0  0  0  0  0  0  0  0  0
    4.2462   -4.2116   -2.9554 H   0  0  0  0  0  0  0  0  0  0  0  0
    5.3176   -5.4885   -1.5125 H   0  0  0  0  0  0  0  0  0  0  0  0
    6.1451   -4.1007   -0.8904 H   0  0  0  0  0  0  0  0  0  0  0  0
    3.7080   -5.5719    0.1533 H   0  0  0  0  0  0  0  0  0  0  0  0
    6.1261   -4.6529    1.4956 H   0  0  0  0  0  0  0  0  0  0  0  0
    5.8574   -6.1773    0.9392 H   0  0  0  0  0  0  0  0  0  0  0  0
    3.0324   -3.8690    1.6427 H   0  0  0  0  0  0  0  0  0  0  0  0
    4.4655   -2.9379    1.4194 H   0  0  0  0  0  0  0  0  0  0  0  0
    1.9879   -2.6041    0.1507 H   0  0  0  0  0  0  0  0  0  0  0  0
    3.0046   -0.7373   -1.0691 H   0  0  0  0  0  0  0  0  0  0  0  0
    2.8571   -0.3981    1.1015 H   0  0  0  0  0  0  0  0  0  0  0  0
    5.2435   -0.3232   -1.4849 H   0  0  0  0  0  0  0  0  0  0  0  0
    5.8384   -1.2425    0.6021 H   0  0  0  0  0  0  0  0  0  0  0  0
    6.0129   -2.4580   -2.7212 H   0  0  0  0  0  0  0  0  0  0  0  0
    4.4499   -1.8211   -3.1389 H   0  0  0  0  0  0  0  0  0  0  0  0
    4.9371   -5.5748    2.1629 H   0  0  0  0  0  0  0  0  0  0  0  0
    2.6430   -4.3898   -1.2747 H   0  0  0  0  0  0  0  0  0  0  0  0
  1  2  1  0
  1 14  1  0
  1 15  1  0
  1 16  1  0
  2  8  1  0
  2  3  1  0
  2 33  1  1
  3 13  1  0
  3  4  1  0
  3 17  1  6
  4  5  1  0
  4 18  1  0
  4 19  1  0
  5  6  1  0
  5  7  1  0
  5 20  1  6
  6 21  1  0
  6 22  1  0
  6 32  1  0
  7  8  1  0
  7 23  1  0
  7 24  1  0
  8  9  1  0
  8 25  1  1
  9 10  1  0
  9 11  1  0
  9 26  1  6
 10 27  1  0
 11 12  1  0
 11 13  1  0
 11 28  1  6
 12 29  1  0
 13 30  1  0
 13 31  1  0
M  CHG  2   2   1   6   1
M  END
>  <i_m_ct_stereo_status>  (100) 
1

>  <s_m_source_file>  (100) 
/var/tmp/pbs.5076255.sched01/tmp68k5m_u8/43t0xmz28c.sdf

>  <i_m_source_file_index>  (100) 
1

>  <i_lp_mmshare_version>  (100) 
48012

>  <i_f3d_flags>  (100) 
0

>  <s_epik_input>  (100) 
W09IXVtDQEBIXShbQ0gyXTEpW0NASF0oW09IXSlbQ0hdKE4oW0NIM10pW0NIXTEyKVtDSDJdW0NAQEhdKFtDSDJdMilbTkgyXQ==

>  <s_epik_cmdline>  (100) 
J2VwaWtfcHl0aG9uJywgJy1waHQnLCAnMi4wJywgJy1waCcsICc3LjAnLCAnLXRuJywgJzgnLCAnLW1hJywgJzIwMCcsICctaW1hZScsICc8aW5maWxlLm1hZT4nLCAnLW9tYWUnLCAnPG91dGZpbGUubWFlPic=

>  <r_epik_Ionization_Penalty>  (100) 
0.995929

>  <r_epik_Ionization_Penalty_Charging>  (100) 
0.995928

>  <r_epik_Ionization_Penalty_Neutral>  (100) 
7.17162e-07

>  <r_epik_State_Penalty>  (100) 
0.973308

>  <r_epik_Charging_Adjusted_Penalty>  (100) 
1.96924

>  <i_epik_Tot_Q>  (100) 
2

>  <i_epik_Tot_abs_Q>  (100) 
2

>  <s_lp_Force_Field>  (100) 
OPLS3e

>  <r_lp_Energy>  (100) 
45.3868

>  <b_lp_Chiralities_Consistent>  (100) 
1

>  <s_lp_Variant>  (100) 
30:0-6

>  <s_i_glide_gridfile>  (100) 
pfpi4k_grid

>  <i_i_glide_lignum>  (100) 
1

>  <i_i_glide_rotatable_bonds>  (100) 
2

>  <r_i_docking_score>  (100) 
-4.30329

>  <r_i_glide_ligand_efficiency>  (100) 
-0.331022

>  <r_i_glide_ligand_efficiency_sa>  (100) 
-0.778344

>  <r_i_glide_ligand_efficiency_ln>  (100) 
-1.20711

>  <r_i_glide_gscore>  (100) 
-4.30329

>  <r_i_glide_lipo>  (100) 
-0.205654

>  <r_i_glide_hbond>  (100) 
0

>  <r_i_glide_metal>  (100) 
-0

>  <r_i_glide_rewards>  (100) 
-2.12545

>  <r_i_glide_evdw>  (100) 
-12.2193

>  <r_i_glide_ecoul>  (100) 
-9.07482

>  <r_i_glide_erotb>  (100) 
0

>  <r_i_glide_esite>  (100) 
0

>  <r_i_glide_emodel>  (100) 
-27.4397

>  <r_i_glide_energy>  (100) 
-21.2941

>  <r_i_glide_einternal>  (100) 
0.808911

>  <r_i_glide_intrahb_reward>  (100) 
-0

>  <i_i_glide_confnum>  (100) 
2

>  <i_i_glide_posenum>  (100) 
27

>  <r_i_glide_eff_state_penalty>  (100) 
0

>  <ligand_id>  (100) 
30

>  <original_smiles>  (100) 
CN1C2CC(N)CC1C(O)C(O)C2

>  <smiles>  (100) 
[H]OC1([H])C([H])([H])C2([H])C([H])([H])C([H])([N+]([H])([H])[H])C([H])([H])C([H])(C1([H])O[H])[N+]2([H])C([H])([H])[H]

$$$$
30:5:1
     RDKit          3D

 33 34  0  0  1  0  0  0  0  0999 V2000
    2.0393   -2.9411   -2.5444 C   0  0  0  0  0  0  0  0  0  0  0  0
    2.9830   -3.4572   -1.5117 N   0  0  1  0  0  0  0  0  0  0  0  0
    4.3752   -3.6501   -1.9867 C   0  0  2  0  0  0  0  0  0  0  0  0
    5.1447   -4.5897   -1.0086 C   0  0  0  0  0  0  0  0  0  0  0  0
    4.3934   -4.8779    0.3126 C   0  0  1  0  0  0  0  0  0  0  0  0
    5.2888   -5.4756    1.3222 N   0  0  0  0  0  0  0  0  0  0  0  0
    3.6739   -3.6345    0.8820 C   0  0  0  0  0  0  0  0  0  0  0  0
    2.9862   -2.7578   -0.2039 C   0  0  1  0  0  0  0  0  0  0  0  0
    3.6435   -1.3450   -0.3450 C   0  0  1  0  0  0  0  0  0  0  0  0
    3.6685   -0.6461    0.8854 O   0  0  0  0  0  0  0  0  0  0  0  0
    5.0497   -1.3553   -0.9950 C   0  0  1  0  0  0  0  0  0  0  0  0
    6.0618   -1.7846   -0.1039 O   0  0  0  0  0  0  0  0  0  0  0  0
    5.0756   -2.2814   -2.2331 C   0  0  0  0  0  0  0  0  0  0  0  0
    2.2325   -1.9103   -2.8523 H   0  0  0  0  0  0  0  0  0  0  0  0
    1.0173   -2.9929   -2.1581 H   0  0  0  0  0  0  0  0  0  0  0  0
    2.0523   -3.5719   -3.4375 H   0  0  0  0  0  0  0  0  0  0  0  0
    4.3309   -4.1627   -2.9524 H   0  0  0  0  0  0  0  0  0  0  0  0
    5.3540   -5.5364   -1.5094 H   0  0  0  0  0  0  0  0  0  0  0  0
    6.1503   -4.2046   -0.8247 H   0  0  0  0  0  0  0  0  0  0  0  0
    3.6309   -5.6210    0.0960 H   0  0  0  0  0  0  0  0  0  0  0  0
    6.0060   -4.8147    1.5839 H   0  0  0  0  0  0  0  0  0  0  0  0
    5.7273   -6.3010    0.9481 H   0  0  0  0  0  0  0  0  0  0  0  0
    2.9103   -3.9667    1.5966 H   0  0  0  0  0  0  0  0  0  0  0  0
    4.3560   -3.0393    1.4902 H   0  0  0  0  0  0  0  0  0  0  0  0
    1.9535   -2.6457    0.1051 H   0  0  0  0  0  0  0  0  0  0  0  0
    3.0012   -0.7525   -0.9993 H   0  0  0  0  0  0  0  0  0  0  0  0
    2.7781   -0.4168    1.1380 H   0  0  0  0  0  0  0  0  0  0  0  0
    5.3332   -0.3395   -1.2974 H   0  0  0  0  0  0  0  0  0  0  0  0
    5.7741   -2.5702    0.3399 H   0  0  0  0  0  0  0  0  0  0  0  0
    6.1017   -2.4451   -2.5792 H   0  0  0  0  0  0  0  0  0  0  0  0
    4.5690   -1.7670   -3.0502 H   0  0  0  0  0  0  0  0  0  0  0  0
    4.7645   -5.7292    2.1488 H   0  0  0  0  0  0  0  0  0  0  0  0
    2.6414   -4.3875   -1.3571 H   0  0  0  0  0  0  0  0  0  0  0  0
  1  2  1  0
  1 14  1  0
  1 15  1  0
  1 16  1  0
  2  8  1  0
  2  3  1  0
  2 33  1  1
  3 13  1  0
  3  4  1  0
  3 17  1  6
  4  5  1  0
  4 18  1  0
  4 19  1  0
  5  6  1  0
  5  7  1  0
  5 20  1  6
  6 21  1  0
  6 22  1  0
  6 32  1  0
  7  8  1  0
  7 23  1  0
  7 24  1  0
  8  9  1  0
  8 25  1  1
  9 10  1  0
  9 11  1  0
  9 26  1  6
 10 27  1  0
 11 12  1  0
 11 13  1  0
 11 28  1  6
 12 29  1  0
 13 30  1  0
 13 31  1  0
M  CHG  2   2   1   6   1
M  END
>  <i_m_ct_stereo_status>  (101) 
1

>  <s_m_source_file>  (101) 
/var/tmp/pbs.5076255.sched01/tmp68k5m_u8/43t0xmz28c.sdf

>  <i_m_source_file_index>  (101) 
1

>  <i_lp_mmshare_version>  (101) 
48012

>  <i_f3d_flags>  (101) 
0

>  <s_epik_input>  (101) 
W09IXVtDQEBIXShbQ0gyXTEpW0NASF0oW09IXSlbQ0hdKE4oW0NIM10pW0NIXTEyKVtDSDJdW0NAQEhdKFtDSDJdMilbTkgyXQ==

>  <s_epik_cmdline>  (101) 
J2VwaWtfcHl0aG9uJywgJy1waHQnLCAnMi4wJywgJy1waCcsICc3LjAnLCAnLXRuJywgJzgnLCAnLW1hJywgJzIwMCcsICctaW1hZScsICc8aW5maWxlLm1hZT4nLCAnLW9tYWUnLCAnPG91dGZpbGUubWFlPic=

>  <r_epik_Ionization_Penalty>  (101) 
0.995929

>  <r_epik_Ionization_Penalty_Charging>  (101) 
0.995928

>  <r_epik_Ionization_Penalty_Neutral>  (101) 
7.17162e-07

>  <r_epik_State_Penalty>  (101) 
0.973308

>  <r_epik_Charging_Adjusted_Penalty>  (101) 
1.96924

>  <i_epik_Tot_Q>  (101) 
2

>  <i_epik_Tot_abs_Q>  (101) 
2

>  <s_lp_Force_Field>  (101) 
OPLS3e

>  <r_lp_Energy>  (101) 
45.3868

>  <b_lp_Chiralities_Consistent>  (101) 
1

>  <s_lp_Variant>  (101) 
30:0-6

>  <s_i_glide_gridfile>  (101) 
pfpi4k_grid

>  <i_i_glide_lignum>  (101) 
1

>  <i_i_glide_rotatable_bonds>  (101) 
2

>  <r_i_docking_score>  (101) 
-4.21469

>  <r_i_glide_ligand_efficiency>  (101) 
-0.324207

>  <r_i_glide_ligand_efficiency_sa>  (101) 
-0.762318

>  <r_i_glide_ligand_efficiency_ln>  (101) 
-1.18226

>  <r_i_glide_gscore>  (101) 
-4.21469

>  <r_i_glide_lipo>  (101) 
-0.164532

>  <r_i_glide_hbond>  (101) 
0

>  <r_i_glide_metal>  (101) 
-0

>  <r_i_glide_rewards>  (101) 
-2.12545

>  <r_i_glide_evdw>  (101) 
-12.0517

>  <r_i_glide_ecoul>  (101) 
-8.81412

>  <r_i_glide_erotb>  (101) 
0

>  <r_i_glide_esite>  (101) 
0

>  <r_i_glide_emodel>  (101) 
-27.097

>  <r_i_glide_energy>  (101) 
-20.8658

>  <r_i_glide_einternal>  (101) 
0.479425

>  <r_i_glide_intrahb_reward>  (101) 
-0

>  <i_i_glide_confnum>  (101) 
2

>  <i_i_glide_posenum>  (101) 
40

>  <r_i_glide_eff_state_penalty>  (101) 
0

>  <ligand_id>  (101) 
30

>  <original_smiles>  (101) 
CN1C2CC(N)CC1C(O)C(O)C2

>  <smiles>  (101) 
[H]OC1([H])C([H])([H])C2([H])C([H])([H])C([H])([N+]([H])([H])[H])C([H])([H])C([H])(C1([H])O[H])[N+]2([H])C([H])([H])[H]

$$$$
30:5:2
     RDKit          3D

 33 34  0  0  1  0  0  0  0  0999 V2000
    3.3567   -0.9752   -2.5635 C   0  0  0  0  0  0  0  0  0  0  0  0
    3.6562   -2.1259   -1.6653 N   0  0  1  0  0  0  0  0  0  0  0  0
    4.9331   -2.8419   -1.9451 C   0  0  2  0  0  0  0  0  0  0  0  0
    4.9331   -4.2499   -1.2793 C   0  0  0  0  0  0  0  0  0  0  0  0
    3.7786   -4.4681   -0.2816 C   0  0  1  0  0  0  0  0  0  0  0  0
    4.0028   -5.6547    0.5619 N   0  0  0  0  0  0  0  0  0  0  0  0
    3.4719   -3.2146    0.5706 C   0  0  0  0  0  0  0  0  0  0  0  0
    3.5461   -1.8667   -0.2004 C   0  0  1  0  0  0  0  0  0  0  0  0
    4.7195   -0.9527    0.2732 C   0  0  1  0  0  0  0  0  0  0  0  0
    4.6409   -0.6583    1.6623 O   0  0  0  0  0  0  0  0  0  0  0  0
    6.1178   -1.4749   -0.0891 C   0  0  1  0  0  0  0  0  0  0  0  0
    6.5730   -2.5281    0.7382 O   0  0  0  0  0  0  0  0  0  0  0  0
    6.1532   -1.9569   -1.5587 C   0  0  0  0  0  0  0  0  0  0  0  0
    4.0628   -0.1484   -2.4677 H   0  0  0  0  0  0  0  0  0  0  0  0
    2.3555   -0.5819   -2.3653 H   0  0  0  0  0  0  0  0  0  0  0  0
    3.3575   -1.2871   -3.6105 H   0  0  0  0  0  0  0  0  0  0  0  0
    4.9813   -3.0139   -3.0279 H   0  0  0  0  0  0  0  0  0  0  0  0
    4.8844   -5.0096   -2.0521 H   0  0  0  0  0  0  0  0  0  0  0  0
    5.8939   -4.4299   -0.8038 H   0  0  0  0  0  0  0  0  0  0  0  0
    2.8810   -4.6572   -0.8582 H   0  0  0  0  0  0  0  0  0  0  0  0
    4.8076   -5.5127    1.1495 H   0  0  0  0  0  0  0  0  0  0  0  0
    4.1645   -6.4590   -0.0234 H   0  0  0  0  0  0  0  0  0  0  0  0
    2.4485   -3.3129    0.9598 H   0  0  0  0  0  0  0  0  0  0  0  0
    4.0902   -3.1832    1.4668 H   0  0  0  0  0  0  0  0  0  0  0  0
    2.6256   -1.3322   -0.0003 H   0  0  0  0  0  0  0  0  0  0  0  0
    4.5999    0.0131   -0.2290 H   0  0  0  0  0  0  0  0  0  0  0  0
    3.7981   -0.2845    1.8583 H   0  0  0  0  0  0  0  0  0  0  0  0
    6.8435   -0.6703    0.0463 H   0  0  0  0  0  0  0  0  0  0  0  0
    5.9124   -3.1919    0.8169 H   0  0  0  0  0  0  0  0  0  0  0  0
    7.0830   -2.4843   -1.7905 H   0  0  0  0  0  0  0  0  0  0  0  0
    6.1253   -1.0844   -2.2093 H   0  0  0  0  0  0  0  0  0  0  0  0
    3.1976   -5.8323    1.1424 H   0  0  0  0  0  0  0  0  0  0  0  0
    2.9107   -2.7715   -1.8703 H   0  0  0  0  0  0  0  0  0  0  0  0
  1  2  1  0
  1 14  1  0
  1 15  1  0
  1 16  1  0
  2  8  1  0
  2  3  1  0
  2 33  1  6
  3 13  1  0
  3  4  1  0
  3 17  1  6
  4  5  1  0
  4 18  1  0
  4 19  1  0
  5  6  1  0
  5  7  1  0
  5 20  1  6
  6 21  1  0
  6 22  1  0
  6 32  1  0
  7  8  1  0
  7 23  1  0
  7 24  1  0
  8  9  1  0
  8 25  1  6
  9 10  1  0
  9 11  1  0
  9 26  1  6
 10 27  1  0
 11 12  1  0
 11 13  1  0
 11 28  1  6
 12 29  1  0
 13 30  1  0
 13 31  1  0
M  CHG  2   2   1   6   1
M  END
>  <i_m_ct_stereo_status>  (102) 
1

>  <s_m_source_file>  (102) 
/var/tmp/pbs.5076255.sched01/tmp68k5m_u8/43t0xmz28c.sdf

>  <i_m_source_file_index>  (102) 
1

>  <i_lp_mmshare_version>  (102) 
48012

>  <i_f3d_flags>  (102) 
0

>  <s_epik_input>  (102) 
W09IXVtDQEBIXShbQ0gyXTEpW0NASF0oW09IXSlbQ0hdKE4oW0NIM10pW0NIXTEyKVtDSDJdW0NAQEhdKFtDSDJdMilbTkgyXQ==

>  <s_epik_cmdline>  (102) 
J2VwaWtfcHl0aG9uJywgJy1waHQnLCAnMi4wJywgJy1waCcsICc3LjAnLCAnLXRuJywgJzgnLCAnLW1hJywgJzIwMCcsICctaW1hZScsICc8aW5maWxlLm1hZT4nLCAnLW9tYWUnLCAnPG91dGZpbGUubWFlPic=

>  <r_epik_Ionization_Penalty>  (102) 
0.995929

>  <r_epik_Ionization_Penalty_Charging>  (102) 
0.995928

>  <r_epik_Ionization_Penalty_Neutral>  (102) 
7.17162e-07

>  <r_epik_State_Penalty>  (102) 
0.973308

>  <r_epik_Charging_Adjusted_Penalty>  (102) 
1.96924

>  <i_epik_Tot_Q>  (102) 
2

>  <i_epik_Tot_abs_Q>  (102) 
2

>  <s_lp_Force_Field>  (102) 
OPLS3e

>  <r_lp_Energy>  (102) 
45.3868

>  <b_lp_Chiralities_Consistent>  (102) 
1

>  <s_lp_Variant>  (102) 
30:0-6

>  <s_i_glide_gridfile>  (102) 
pfpi4k_grid

>  <i_i_glide_lignum>  (102) 
1

>  <i_i_glide_rotatable_bonds>  (102) 
2

>  <r_i_docking_score>  (102) 
-3.88849

>  <r_i_glide_ligand_efficiency>  (102) 
-0.299115

>  <r_i_glide_ligand_efficiency_sa>  (102) 
-0.703318

>  <r_i_glide_ligand_efficiency_ln>  (102) 
-1.09076

>  <r_i_glide_gscore>  (102) 
-3.88849

>  <r_i_glide_lipo>  (102) 
-0.09801

>  <r_i_glide_hbond>  (102) 
0

>  <r_i_glide_metal>  (102) 
-0

>  <r_i_glide_rewards>  (102) 
-2.12545

>  <r_i_glide_evdw>  (102) 
-12.15

>  <r_i_glide_ecoul>  (102) 
-6.70385

>  <r_i_glide_erotb>  (102) 
0

>  <r_i_glide_esite>  (102) 
-0.0519528

>  <r_i_glide_emodel>  (102) 
-24.6684

>  <r_i_glide_energy>  (102) 
-18.8538

>  <r_i_glide_einternal>  (102) 
0.33496

>  <r_i_glide_intrahb_reward>  (102) 
-0

>  <i_i_glide_confnum>  (102) 
2

>  <i_i_glide_posenum>  (102) 
1

>  <r_i_glide_eff_state_penalty>  (102) 
0

>  <ligand_id>  (102) 
30

>  <original_smiles>  (102) 
CN1C2CC(N)CC1C(O)C(O)C2

>  <smiles>  (102) 
[H]OC1([H])C([H])([H])C2([H])C([H])([H])C([H])([N+]([H])([H])[H])C([H])([H])C([H])(C1([H])O[H])[N+]2([H])C([H])([H])[H]

$$$$
30:6:0
     RDKit          3D

 32 33  0  0  1  0  0  0  0  0999 V2000
    3.3995   -1.5065    1.5250 C   0  0  0  0  0  0  0  0  0  0  0  0
    3.1741   -1.9865    0.1223 N   0  0  2  0  0  0  0  0  0  0  0  0
    2.8867   -3.4350   -0.0409 C   0  0  1  0  0  0  0  0  0  0  0  0
    2.1155   -3.6060   -1.3766 C   0  0  0  0  0  0  0  0  0  0  0  0
    2.9420   -3.0734   -2.5669 C   0  0  1  0  0  0  0  0  0  0  0  0
    2.1040   -3.0634   -3.7508 N   0  0  0  0  0  0  0  0  0  0  0  0
    3.4414   -1.6409   -2.2941 C   0  0  0  0  0  0  0  0  0  0  0  0
    4.1346   -1.5306   -0.9098 C   0  0  2  0  0  0  0  0  0  0  0  0
    5.4786   -2.3208   -0.8937 C   0  0  1  0  0  0  0  0  0  0  0  0
    6.5173   -1.4670   -0.4852 O   0  0  0  0  0  0  0  0  0  0  0  0
    5.5219   -3.6280   -0.0542 C   0  0  1  0  0  0  0  0  0  0  0  0
    5.9937   -3.3815    1.2611 O   0  0  0  0  0  0  0  0  0  0  0  0
    4.1576   -4.3323    0.0310 C   0  0  0  0  0  0  0  0  0  0  0  0
    4.2904   -1.9430    1.9958 H   0  0  0  0  0  0  0  0  0  0  0  0
    2.5434   -1.7292    2.1513 H   0  0  0  0  0  0  0  0  0  0  0  0
    3.5003   -0.4285    1.5534 H   0  0  0  0  0  0  0  0  0  0  0  0
    2.2112   -3.7465    0.7495 H   0  0  0  0  0  0  0  0  0  0  0  0
    1.8111   -4.6413   -1.5205 H   0  0  0  0  0  0  0  0  0  0  0  0
    1.1775   -3.0615   -1.3311 H   0  0  0  0  0  0  0  0  0  0  0  0
    3.7832   -3.7425   -2.7498 H   0  0  0  0  0  0  0  0  0  0  0  0
    2.5920   -2.8111   -4.6013 H   0  0  0  0  0  0  0  0  0  0  0  0
    1.6296   -3.9396   -3.8942 H   0  0  0  0  0  0  0  0  0  0  0  0
    4.1005   -1.3046   -3.0954 H   0  0  0  0  0  0  0  0  0  0  0  0
    2.6087   -0.9408   -2.3231 H   0  0  0  0  0  0  0  0  0  0  0  0
    4.3112   -0.4644   -0.7636 H   0  0  0  0  0  0  0  0  0  0  0  0
    5.7300   -2.5967   -1.9237 H   0  0  0  0  0  0  0  0  0  0  0  0
    6.4284   -1.3564    0.4569 H   0  0  0  0  0  0  0  0  0  0  0  0
    6.2361   -4.3043   -0.5326 H   0  0  0  0  0  0  0  0  0  0  0  0
    6.0020   -4.2029    1.7650 H   0  0  0  0  0  0  0  0  0  0  0  0
    4.1133   -4.9707    0.9134 H   0  0  0  0  0  0  0  0  0  0  0  0
    4.1318   -5.0509   -0.7888 H   0  0  0  0  0  0  0  0  0  0  0  0
    2.3083   -1.5387   -0.1831 H   0  0  0  0  0  0  0  0  0  0  0  0
  1  2  1  0
  1 14  1  0
  1 15  1  0
  1 16  1  0
  2  8  1  0
  2  3  1  0
  2 32  1  6
  3 13  1  0
  3  4  1  0
  3 17  1  1
  4  5  1  0
  4 18  1  0
  4 19  1  0
  5  6  1  0
  5  7  1  0
  5 20  1  6
  6 21  1  0
  6 22  1  0
  7  8  1  0
  7 23  1  0
  7 24  1  0
  8  9  1  0
  8 25  1  1
  9 10  1  0
  9 11  1  0
  9 26  1  6
 10 27  1  0
 11 12  1  0
 11 13  1  0
 11 28  1  6
 12 29  1  0
 13 30  1  0
 13 31  1  0
M  CHG  1   2   1
M  END
>  <i_m_ct_stereo_status>  (103) 
1

>  <s_m_source_file>  (103) 
/var/tmp/pbs.5076255.sched01/tmp68k5m_u8/43t0xmz28c.sdf

>  <i_m_source_file_index>  (103) 
2

>  <i_lp_mmshare_version>  (103) 
48012

>  <i_f3d_flags>  (103) 
0

>  <s_epik_input>  (103) 
W09IXVtDQEBIXShbQ0gyXTEpW0NASF0oW09IXSlbQ0hdKE4oW0NIM10pW0NIXTEyKVtDSDJdW0NAQEhdKFtDSDJdMilbTkgyXQ==

>  <s_epik_cmdline>  (103) 
J2VwaWtfcHl0aG9uJywgJy1waHQnLCAnMi4wJywgJy1waCcsICc3LjAnLCAnLXRuJywgJzgnLCAnLW1hJywgJzIwMCcsICctaW1hZScsICc8aW5maWxlLm1hZT4nLCAnLW9tYWUnLCAnPG91dGZpbGUubWFlPic=

>  <r_epik_Ionization_Penalty>  (103) 
1.37348

>  <r_epik_Ionization_Penalty_Charging>  (103) 
0.136242

>  <r_epik_Ionization_Penalty_Neutral>  (103) 
1.23723

>  <r_epik_State_Penalty>  (103) 
2.2099

>  <r_epik_Charging_Adjusted_Penalty>  (103) 
2.34614

>  <i_epik_Tot_Q>  (103) 
1

>  <i_epik_Tot_abs_Q>  (103) 
1

>  <s_lp_Force_Field>  (103) 
OPLS3e

>  <r_lp_Energy>  (103) 
38.2592

>  <b_lp_Chiralities_Consistent>  (103) 
1

>  <s_lp_Variant>  (103) 
30:0-7

>  <s_i_glide_gridfile>  (103) 
pfpi4k_grid

>  <i_i_glide_lignum>  (103) 
2

>  <i_i_glide_rotatable_bonds>  (103) 
2

>  <r_i_docking_score>  (103) 
-4.88813

>  <r_i_glide_ligand_efficiency>  (103) 
-0.37601

>  <r_i_glide_ligand_efficiency_sa>  (103) 
-0.884125

>  <r_i_glide_ligand_efficiency_ln>  (103) 
-1.37116

>  <r_i_glide_gscore>  (103) 
-4.88813

>  <r_i_glide_lipo>  (103) 
-0.0644936

>  <r_i_glide_hbond>  (103) 
-0.563125

>  <r_i_glide_metal>  (103) 
-0

>  <r_i_glide_rewards>  (103) 
-2.13232

>  <r_i_glide_evdw>  (103) 
-11.7648

>  <r_i_glide_ecoul>  (103) 
-9.76307

>  <r_i_glide_erotb>  (103) 
0

>  <r_i_glide_esite>  (103) 
-0.0754845

>  <r_i_glide_emodel>  (103) 
-28.9431

>  <r_i_glide_energy>  (103) 
-21.5279

>  <r_i_glide_einternal>  (103) 
0.334093

>  <r_i_glide_intrahb_reward>  (103) 
-0

>  <i_i_glide_confnum>  (103) 
2

>  <i_i_glide_posenum>  (103) 
1

>  <r_i_glide_eff_state_penalty>  (103) 
0

>  <ligand_id>  (103) 
30

>  <original_smiles>  (103) 
CN1C2CC(N)CC1C(O)C(O)C2

>  <smiles>  (103) 
[H]OC1([H])C([H])([H])C2([H])C([H])([H])C([H])(N([H])[H])C([H])([H])C([H])(C1([H])O[H])[N+]2([H])C([H])([H])[H]

$$$$
30:6:1
     RDKit          3D

 32 33  0  0  1  0  0  0  0  0999 V2000
    2.7622   -3.1300   -0.4909 C   0  0  0  0  0  0  0  0  0  0  0  0
    3.0361   -2.3678   -1.7380 N   0  0  2  0  0  0  0  0  0  0  0  0
    3.2734   -3.1819   -2.9483 C   0  0  1  0  0  0  0  0  0  0  0  0
    2.9676   -2.3201   -4.1730 C   0  0  0  0  0  0  0  0  0  0  0  0
    3.8187   -1.0301   -4.1958 C   0  0  1  0  0  0  0  0  0  0  0  0
    3.3313   -0.1127   -5.2224 N   0  0  0  0  0  0  0  0  0  0  0  0
    3.7169   -0.3137   -2.8362 C   0  0  0  0  0  0  0  0  0  0  0  0
    3.9768   -1.2467   -1.6422 C   0  0  2  0  0  0  0  0  0  0  0  0
    5.4457   -1.7121   -1.6160 C   0  0  1  0  0  0  0  0  0  0  0  0
    6.0185   -1.4042   -0.3607 O   0  0  0  0  0  0  0  0  0  0  0  0
    5.7097   -3.1872   -1.9919 C   0  0  1  0  0  0  0  0  0  0  0  0
    5.6426   -3.9965   -0.8336 O   0  0  0  0  0  0  0  0  0  0  0  0
    4.7101   -3.7598   -3.0136 C   0  0  0  0  0  0  0  0  0  0  0  0
    3.5898   -3.7388   -0.1312 H   0  0  0  0  0  0  0  0  0  0  0  0
    1.9001   -3.7853   -0.6209 H   0  0  0  0  0  0  0  0  0  0  0  0
    2.4642   -2.4614    0.3232 H   0  0  0  0  0  0  0  0  0  0  0  0
    2.5283   -3.9612   -2.9885 H   0  0  0  0  0  0  0  0  0  0  0  0
    3.1011   -2.9029   -5.0779 H   0  0  0  0  0  0  0  0  0  0  0  0
    1.9119   -2.0608   -4.1876 H   0  0  0  0  0  0  0  0  0  0  0  0
    4.8576   -1.2818   -4.4094 H   0  0  0  0  0  0  0  0  0  0  0  0
    3.9376    0.6898   -5.3408 H   0  0  0  0  0  0  0  0  0  0  0  0
    3.2257   -0.5681   -6.1224 H   0  0  0  0  0  0  0  0  0  0  0  0
    4.3779    0.5436   -2.8222 H   0  0  0  0  0  0  0  0  0  0  0  0
    2.7102    0.0963   -2.7575 H   0  0  0  0  0  0  0  0  0  0  0  0
    3.7303   -0.6620   -0.7566 H   0  0  0  0  0  0  0  0  0  0  0  0
    6.0013   -1.1142   -2.3106 H   0  0  0  0  0  0  0  0  0  0  0  0
    5.6255   -1.9536    0.3082 H   0  0  0  0  0  0  0  0  0  0  0  0
    6.7189   -3.2694   -2.4091 H   0  0  0  0  0  0  0  0  0  0  0  0
    5.5500   -4.9074   -1.0688 H   0  0  0  0  0  0  0  0  0  0  0  0
    4.6940   -4.8439   -2.9426 H   0  0  0  0  0  0  0  0  0  0  0  0
    5.1371   -3.5921   -4.0001 H   0  0  0  0  0  0  0  0  0  0  0  0
    2.1473   -1.9000   -1.8790 H   0  0  0  0  0  0  0  0  0  0  0  0
  1  2  1  0
  1 14  1  0
  1 15  1  0
  1 16  1  0
  2  8  1  0
  2  3  1  0
  2 32  1  6
  3 13  1  0
  3  4  1  0
  3 17  1  1
  4  5  1  0
  4 18  1  0
  4 19  1  0
  5  6  1  0
  5  7  1  0
  5 20  1  6
  6 21  1  0
  6 22  1  0
  7  8  1  0
  7 23  1  0
  7 24  1  0
  8  9  1  0
  8 25  1  1
  9 10  1  0
  9 11  1  0
  9 26  1  6
 10 27  1  0
 11 12  1  0
 11 13  1  0
 11 28  1  6
 12 29  1  0
 13 30  1  0
 13 31  1  0
M  CHG  1   2   1
M  END
>  <i_m_ct_stereo_status>  (104) 
1

>  <s_m_source_file>  (104) 
/var/tmp/pbs.5076255.sched01/tmp68k5m_u8/43t0xmz28c.sdf

>  <i_m_source_file_index>  (104) 
2

>  <i_lp_mmshare_version>  (104) 
48012

>  <i_f3d_flags>  (104) 
0

>  <s_epik_input>  (104) 
W09IXVtDQEBIXShbQ0gyXTEpW0NASF0oW09IXSlbQ0hdKE4oW0NIM10pW0NIXTEyKVtDSDJdW0NAQEhdKFtDSDJdMilbTkgyXQ==

>  <s_epik_cmdline>  (104) 
J2VwaWtfcHl0aG9uJywgJy1waHQnLCAnMi4wJywgJy1waCcsICc3LjAnLCAnLXRuJywgJzgnLCAnLW1hJywgJzIwMCcsICctaW1hZScsICc8aW5maWxlLm1hZT4nLCAnLW9tYWUnLCAnPG91dGZpbGUubWFlPic=

>  <r_epik_Ionization_Penalty>  (104) 
1.37348

>  <r_epik_Ionization_Penalty_Charging>  (104) 
0.136242

>  <r_epik_Ionization_Penalty_Neutral>  (104) 
1.23723

>  <r_epik_State_Penalty>  (104) 
2.2099

>  <r_epik_Charging_Adjusted_Penalty>  (104) 
2.34614

>  <i_epik_Tot_Q>  (104) 
1

>  <i_epik_Tot_abs_Q>  (104) 
1

>  <s_lp_Force_Field>  (104) 
OPLS3e

>  <r_lp_Energy>  (104) 
38.2592

>  <b_lp_Chiralities_Consistent>  (104) 
1

>  <s_lp_Variant>  (104) 
30:0-7

>  <s_i_glide_gridfile>  (104) 
pfpi4k_grid

>  <i_i_glide_lignum>  (104) 
2

>  <i_i_glide_rotatable_bonds>  (104) 
2

>  <r_i_docking_score>  (104) 
-4.33445

>  <r_i_glide_ligand_efficiency>  (104) 
-0.333419

>  <r_i_glide_ligand_efficiency_sa>  (104) 
-0.783981

>  <r_i_glide_ligand_efficiency_ln>  (104) 
-1.21585

>  <r_i_glide_gscore>  (104) 
-4.33445

>  <r_i_glide_lipo>  (104) 
-0.337308

>  <r_i_glide_hbond>  (104) 
-0.269446

>  <r_i_glide_metal>  (104) 
-0

>  <r_i_glide_rewards>  (104) 
-2.13232

>  <r_i_glide_evdw>  (104) 
-16.4422

>  <r_i_glide_ecoul>  (104) 
-4.71044

>  <r_i_glide_erotb>  (104) 
0

>  <r_i_glide_esite>  (104) 
-0.0667003

>  <r_i_glide_emodel>  (104) 
-26.7321

>  <r_i_glide_energy>  (104) 
-21.1527

>  <r_i_glide_einternal>  (104) 
0.755882

>  <r_i_glide_intrahb_reward>  (104) 
-0

>  <i_i_glide_confnum>  (104) 
4

>  <i_i_glide_posenum>  (104) 
7

>  <r_i_glide_eff_state_penalty>  (104) 
0

>  <ligand_id>  (104) 
30

>  <original_smiles>  (104) 
CN1C2CC(N)CC1C(O)C(O)C2

>  <smiles>  (104) 
[H]OC1([H])C([H])([H])C2([H])C([H])([H])C([H])(N([H])[H])C([H])([H])C([H])(C1([H])O[H])[N+]2([H])C([H])([H])[H]

$$$$
30:6:2
     RDKit          3D

 32 33  0  0  1  0  0  0  0  0999 V2000
    3.2940   -4.2123   -0.0183 C   0  0  0  0  0  0  0  0  0  0  0  0
    3.6659   -3.4466   -1.2308 N   0  0  2  0  0  0  0  0  0  0  0  0
    4.9145   -3.8862   -1.8897 C   0  0  1  0  0  0  0  0  0  0  0  0
    4.9640   -3.3443   -3.3430 C   0  0  0  0  0  0  0  0  0  0  0  0
    3.8425   -2.3306   -3.6721 C   0  0  1  0  0  0  0  0  0  0  0  0
    2.5967   -3.0560   -3.9150 N   0  0  0  0  0  0  0  0  0  0  0  0
    3.6090   -1.3199   -2.5266 C   0  0  0  0  0  0  0  0  0  0  0  0
    3.6138   -1.9654   -1.1102 C   0  0  2  0  0  0  0  0  0  0  0  0
    4.7829   -1.4357   -0.2443 C   0  0  1  0  0  0  0  0  0  0  0  0
    4.5855   -1.8324    1.1059 O   0  0  0  0  0  0  0  0  0  0  0  0
    6.1405   -1.9575   -0.7588 C   0  0  1  0  0  0  0  0  0  0  0  0
    7.1752   -1.6623    0.1525 O   0  0  0  0  0  0  0  0  0  0  0  0
    6.1297   -3.4692   -1.0385 C   0  0  0  0  0  0  0  0  0  0  0  0
    4.0500   -4.1245    0.7661 H   0  0  0  0  0  0  0  0  0  0  0  0
    3.1396   -5.2674   -0.2559 H   0  0  0  0  0  0  0  0  0  0  0  0
    2.3536   -3.8560    0.4063 H   0  0  0  0  0  0  0  0  0  0  0  0
    4.9186   -4.9726   -1.9474 H   0  0  0  0  0  0  0  0  0  0  0  0
    5.9260   -2.8719   -3.5202 H   0  0  0  0  0  0  0  0  0  0  0  0
    4.9425   -4.1698   -4.0526 H   0  0  0  0  0  0  0  0  0  0  0  0
    4.0865   -1.7951   -4.5886 H   0  0  0  0  0  0  0  0  0  0  0  0
    1.8784   -2.4346   -4.2726 H   0  0  0  0  0  0  0  0  0  0  0  0
    2.7120   -3.7661   -4.6193 H   0  0  0  0  0  0  0  0  0  0  0  0
    4.3735   -0.5489   -2.5948 H   0  0  0  0  0  0  0  0  0  0  0  0
    2.6783   -0.7781   -2.6868 H   0  0  0  0  0  0  0  0  0  0  0  0
    2.6765   -1.7024   -0.6175 H   0  0  0  0  0  0  0  0  0  0  0  0
    4.7932   -0.3423   -0.2620 H   0  0  0  0  0  0  0  0  0  0  0  0
    3.7460   -1.5194    1.4119 H   0  0  0  0  0  0  0  0  0  0  0  0
    6.3721   -1.4568   -1.6924 H   0  0  0  0  0  0  0  0  0  0  0  0
    6.9144   -1.9964    1.0018 H   0  0  0  0  0  0  0  0  0  0  0  0
    6.1372   -4.0302   -0.1063 H   0  0  0  0  0  0  0  0  0  0  0  0
    7.0574   -3.7396   -1.5480 H   0  0  0  0  0  0  0  0  0  0  0  0
    2.9542   -3.6463   -1.9185 H   0  0  0  0  0  0  0  0  0  0  0  0
  1  2  1  0
  1 14  1  0
  1 15  1  0
  1 16  1  0
  2  8  1  0
  2  3  1  0
  2 32  1  6
  3 13  1  0
  3  4  1  0
  3 17  1  6
  4  5  1  0
  4 18  1  0
  4 19  1  0
  5  6  1  0
  5  7  1  0
  5 20  1  6
  6 21  1  0
  6 22  1  0
  7  8  1  0
  7 23  1  0
  7 24  1  0
  8  9  1  0
  8 25  1  1
  9 10  1  0
  9 11  1  0
  9 26  1  1
 10 27  1  0
 11 12  1  0
 11 13  1  0
 11 28  1  6
 12 29  1  0
 13 30  1  0
 13 31  1  0
M  CHG  1   2   1
M  END
>  <i_m_ct_stereo_status>  (105) 
1

>  <s_m_source_file>  (105) 
/var/tmp/pbs.5076255.sched01/tmp68k5m_u8/43t0xmz28c.sdf

>  <i_m_source_file_index>  (105) 
2

>  <i_lp_mmshare_version>  (105) 
48012

>  <i_f3d_flags>  (105) 
0

>  <s_epik_input>  (105) 
W09IXVtDQEBIXShbQ0gyXTEpW0NASF0oW09IXSlbQ0hdKE4oW0NIM10pW0NIXTEyKVtDSDJdW0NAQEhdKFtDSDJdMilbTkgyXQ==

>  <s_epik_cmdline>  (105) 
J2VwaWtfcHl0aG9uJywgJy1waHQnLCAnMi4wJywgJy1waCcsICc3LjAnLCAnLXRuJywgJzgnLCAnLW1hJywgJzIwMCcsICctaW1hZScsICc8aW5maWxlLm1hZT4nLCAnLW9tYWUnLCAnPG91dGZpbGUubWFlPic=

>  <r_epik_Ionization_Penalty>  (105) 
1.37348

>  <r_epik_Ionization_Penalty_Charging>  (105) 
0.136242

>  <r_epik_Ionization_Penalty_Neutral>  (105) 
1.23723

>  <r_epik_State_Penalty>  (105) 
2.2099

>  <r_epik_Charging_Adjusted_Penalty>  (105) 
2.34614

>  <i_epik_Tot_Q>  (105) 
1

>  <i_epik_Tot_abs_Q>  (105) 
1

>  <s_lp_Force_Field>  (105) 
OPLS3e

>  <r_lp_Energy>  (105) 
38.2592

>  <b_lp_Chiralities_Consistent>  (105) 
1

>  <s_lp_Variant>  (105) 
30:0-7

>  <s_i_glide_gridfile>  (105) 
pfpi4k_grid

>  <i_i_glide_lignum>  (105) 
2

>  <i_i_glide_rotatable_bonds>  (105) 
2

>  <r_i_docking_score>  (105) 
-4.10188

>  <r_i_glide_ligand_efficiency>  (105) 
-0.315529

>  <r_i_glide_ligand_efficiency_sa>  (105) 
-0.741914

>  <r_i_glide_ligand_efficiency_ln>  (105) 
-1.15061

>  <r_i_glide_gscore>  (105) 
-4.10188

>  <r_i_glide_lipo>  (105) 
-0.561812

>  <r_i_glide_hbond>  (105) 
-0.0219061

>  <r_i_glide_metal>  (105) 
-0

>  <r_i_glide_rewards>  (105) 
-2.13232

>  <r_i_glide_evdw>  (105) 
-17.0541

>  <r_i_glide_ecoul>  (105) 
-3.55422

>  <r_i_glide_erotb>  (105) 
0

>  <r_i_glide_esite>  (105) 
0

>  <r_i_glide_emodel>  (105) 
-26.4204

>  <r_i_glide_energy>  (105) 
-20.6083

>  <r_i_glide_einternal>  (105) 
0.34501

>  <r_i_glide_intrahb_reward>  (105) 
-0

>  <i_i_glide_confnum>  (105) 
3

>  <i_i_glide_posenum>  (105) 
31

>  <r_i_glide_eff_state_penalty>  (105) 
0

>  <ligand_id>  (105) 
30

>  <original_smiles>  (105) 
CN1C2CC(N)CC1C(O)C(O)C2

>  <smiles>  (105) 
[H]OC1([H])C([H])([H])C2([H])C([H])([H])C([H])(N([H])[H])C([H])([H])C([H])(C1([H])O[H])[N+]2([H])C([H])([H])[H]

$$$$
30:7:0
     RDKit          3D

 32 33  0  0  1  0  0  0  0  0999 V2000
    5.0169   -3.9352   -3.6626 C   0  0  0  0  0  0  0  0  0  0  0  0
    4.1038   -3.5074   -2.5728 N   0  0  1  0  0  0  0  0  0  0  0  0
    4.5109   -2.2984   -1.8023 C   0  0  1  0  0  0  0  0  0  0  0  0
    4.3243   -1.0439   -2.6800 C   0  0  0  0  0  0  0  0  0  0  0  0
    2.8873   -0.9141   -3.2213 C   0  0  1  0  0  0  0  0  0  0  0  0
    2.8758    0.0799   -4.2774 N   0  0  0  0  0  0  0  0  0  0  0  0
    2.4005   -2.2457   -3.8248 C   0  0  0  0  0  0  0  0  0  0  0  0
    2.6704   -3.4525   -2.9293 C   0  0  2  0  0  0  0  0  0  0  0  0
    1.8170   -3.4717   -1.6419 C   0  0  1  0  0  0  0  0  0  0  0  0
    1.0200   -4.6215   -1.5150 O   0  0  0  0  0  0  0  0  0  0  0  0
    2.6329   -3.2885   -0.3200 C   0  0  1  0  0  0  0  0  0  0  0  0
    3.2802   -4.5021    0.0435 O   0  0  0  0  0  0  0  0  0  0  0  0
    3.7221   -2.2124   -0.4674 C   0  0  0  0  0  0  0  0  0  0  0  0
    5.0195   -3.2260   -4.4811 H   0  0  0  0  0  0  0  0  0  0  0  0
    4.7039   -4.9058   -4.0583 H   0  0  0  0  0  0  0  0  0  0  0  0
    6.0339   -4.0231   -3.2834 H   0  0  0  0  0  0  0  0  0  0  0  0
    5.5612   -2.4005   -1.5459 H   0  0  0  0  0  0  0  0  0  0  0  0
    4.6077   -0.1369   -2.1405 H   0  0  0  0  0  0  0  0  0  0  0  0
    4.9870   -1.1229   -3.5427 H   0  0  0  0  0  0  0  0  0  0  0  0
    2.2053   -0.6158   -2.4329 H   0  0  0  0  0  0  0  0  0  0  0  0
    1.9098    0.1977   -4.5599 H   0  0  0  0  0  0  0  0  0  0  0  0
    3.1379    0.9643   -3.8524 H   0  0  0  0  0  0  0  0  0  0  0  0
    1.3549   -2.2527   -4.1254 H   0  0  0  0  0  0  0  0  0  0  0  0
    2.9574   -2.4512   -4.7314 H   0  0  0  0  0  0  0  0  0  0  0  0
    2.3604   -4.2654   -3.5633 H   0  0  0  0  0  0  0  0  0  0  0  0
    1.0866   -2.6822   -1.8091 H   0  0  0  0  0  0  0  0  0  0  0  0
    0.6060   -4.7740   -2.3668 H   0  0  0  0  0  0  0  0  0  0  0  0
    1.9675   -3.0258    0.5124 H   0  0  0  0  0  0  0  0  0  0  0  0
    3.1962   -5.1538   -0.6483 H   0  0  0  0  0  0  0  0  0  0  0  0
    4.4022   -2.2762    0.3797 H   0  0  0  0  0  0  0  0  0  0  0  0
    3.2367   -1.2455   -0.3696 H   0  0  0  0  0  0  0  0  0  0  0  0
    4.1530   -4.2597   -1.8981 H   0  0  0  0  0  0  0  0  0  0  0  0
  1  2  1  0
  1 14  1  0
  1 15  1  0
  1 16  1  0
  2  8  1  0
  2  3  1  0
  2 32  1  1
  3 13  1  0
  3  4  1  0
  3 17  1  1
  4  5  1  0
  4 18  1  0
  4 19  1  0
  5  6  1  0
  5  7  1  0
  5 20  1  1
  6 21  1  0
  6 22  1  0
  7  8  1  0
  7 23  1  0
  7 24  1  0
  8  9  1  0
  8 25  1  6
  9 10  1  0
  9 11  1  0
  9 26  1  6
 10 27  1  0
 11 12  1  0
 11 13  1  0
 11 28  1  1
 12 29  1  0
 13 30  1  0
 13 31  1  0
M  CHG  1   2   1
M  END
>  <i_m_ct_stereo_status>  (106) 
1

>  <s_m_source_file>  (106) 
/var/tmp/pbs.5076255.sched01/tmp68k5m_u8/43t0xmz28c.sdf

>  <i_m_source_file_index>  (106) 
3

>  <i_lp_mmshare_version>  (106) 
48012

>  <i_f3d_flags>  (106) 
0

>  <s_epik_input>  (106) 
W09IXVtDQEBIXShbQ0gyXTEpW0NASF0oW09IXSlbQ0hdKE4oW0NIM10pW0NIXTEyKVtDSDJdW0NAQEhdKFtDSDJdMilbTkgyXQ==

>  <s_epik_cmdline>  (106) 
J2VwaWtfcHl0aG9uJywgJy1waHQnLCAnMi4wJywgJy1waCcsICc3LjAnLCAnLXRuJywgJzgnLCAnLW1hJywgJzIwMCcsICctaW1hZScsICc8aW5maWxlLm1hZT4nLCAnLW9tYWUnLCAnPG91dGZpbGUubWFlPic=

>  <r_epik_Ionization_Penalty>  (106) 
1.37348

>  <r_epik_Ionization_Penalty_Charging>  (106) 
0.136242

>  <r_epik_Ionization_Penalty_Neutral>  (106) 
1.23723

>  <r_epik_State_Penalty>  (106) 
2.2099

>  <r_epik_Charging_Adjusted_Penalty>  (106) 
2.34614

>  <i_epik_Tot_Q>  (106) 
1

>  <i_epik_Tot_abs_Q>  (106) 
1

>  <s_lp_Force_Field>  (106) 
OPLS3e

>  <r_lp_Energy>  (106) 
37.6739

>  <b_lp_Chiralities_Consistent>  (106) 
1

>  <s_lp_Variant>  (106) 
30:0-8

>  <s_i_glide_gridfile>  (106) 
pfpi4k_grid

>  <i_i_glide_lignum>  (106) 
3

>  <i_i_glide_rotatable_bonds>  (106) 
2

>  <r_i_docking_score>  (106) 
-5.27313

>  <r_i_glide_ligand_efficiency>  (106) 
-0.405625

>  <r_i_glide_ligand_efficiency_sa>  (106) 
-0.953761

>  <r_i_glide_ligand_efficiency_ln>  (106) 
-1.47916

>  <r_i_glide_gscore>  (106) 
-5.27313

>  <r_i_glide_lipo>  (106) 
-0.366616

>  <r_i_glide_hbond>  (106) 
-0.182524

>  <r_i_glide_metal>  (106) 
-0

>  <r_i_glide_rewards>  (106) 
-2.13232

>  <r_i_glide_evdw>  (106) 
-8.64666

>  <r_i_glide_ecoul>  (106) 
-14.1094

>  <r_i_glide_erotb>  (106) 
0

>  <r_i_glide_esite>  (106) 
-0.0429229

>  <r_i_glide_emodel>  (106) 
-29.3628

>  <r_i_glide_energy>  (106) 
-22.7561

>  <r_i_glide_einternal>  (106) 
1.10124

>  <r_i_glide_intrahb_reward>  (106) 
-0

>  <i_i_glide_confnum>  (106) 
2

>  <i_i_glide_posenum>  (106) 
11

>  <r_i_glide_eff_state_penalty>  (106) 
0

>  <ligand_id>  (106) 
30

>  <original_smiles>  (106) 
CN1C2CC(N)CC1C(O)C(O)C2

>  <smiles>  (106) 
[H]OC1([H])C([H])([H])C2([H])C([H])([H])C([H])(N([H])[H])C([H])([H])C([H])(C1([H])O[H])[N+]2([H])C([H])([H])[H]

$$$$
30:7:1
     RDKit          3D

 32 33  0  0  1  0  0  0  0  0999 V2000
    5.1060   -3.8387   -3.7201 C   0  0  0  0  0  0  0  0  0  0  0  0
    4.2105   -3.4567   -2.6053 N   0  0  1  0  0  0  0  0  0  0  0  0
    4.5642   -2.2038   -1.8795 C   0  0  1  0  0  0  0  0  0  0  0  0
    4.3243   -0.9450   -2.7528 C   0  0  0  0  0  0  0  0  0  0  0  0
    2.8799   -0.8799   -3.2360 C   0  0  1  0  0  0  0  0  0  0  0  0
    2.8184    0.1470   -4.2714 N   0  0  0  0  0  0  0  0  0  0  0  0
    2.4495   -2.2378   -3.8368 C   0  0  0  0  0  0  0  0  0  0  0  0
    2.7670   -3.4374   -2.9428 C   0  0  2  0  0  0  0  0  0  0  0  0
    1.9215   -3.4478   -1.6567 C   0  0  1  0  0  0  0  0  0  0  0  0
    1.1227   -4.6176   -1.5062 O   0  0  0  0  0  0  0  0  0  0  0  0
    2.7545   -3.2425   -0.3484 C   0  0  1  0  0  0  0  0  0  0  0  0
    3.4779   -4.4071    0.0492 O   0  0  0  0  0  0  0  0  0  0  0  0
    3.7996   -2.1250   -0.5266 C   0  0  0  0  0  0  0  0  0  0  0  0
    5.0073   -3.1161   -4.5351 H   0  0  0  0  0  0  0  0  0  0  0  0
    4.8458   -4.8257   -4.1347 H   0  0  0  0  0  0  0  0  0  0  0  0
    6.1564   -3.8628   -3.4157 H   0  0  0  0  0  0  0  0  0  0  0  0
    5.6306   -2.2271   -1.6364 H   0  0  0  0  0  0  0  0  0  0  0  0
    4.5857   -0.0155   -2.2301 H   0  0  0  0  0  0  0  0  0  0  0  0
    4.9804   -0.9993   -3.6194 H   0  0  0  0  0  0  0  0  0  0  0  0
    2.2113   -0.5650   -2.4226 H   0  0  0  0  0  0  0  0  0  0  0  0
    1.8668    0.2010   -4.6044 H   0  0  0  0  0  0  0  0  0  0  0  0
    3.0368    1.0544   -3.8598 H   0  0  0  0  0  0  0  0  0  0  0  0
    1.4008   -2.2480   -4.1574 H   0  0  0  0  0  0  0  0  0  0  0  0
    3.0192   -2.3896   -4.7412 H   0  0  0  0  0  0  0  0  0  0  0  0
    2.4573   -4.2685   -3.5655 H   0  0  0  0  0  0  0  0  0  0  0  0
    1.1771   -2.6635   -1.8236 H   0  0  0  0  0  0  0  0  0  0  0  0
    1.5985   -5.3630   -1.8772 H   0  0  0  0  0  0  0  0  0  0  0  0
    2.0962   -2.9711    0.4831 H   0  0  0  0  0  0  0  0  0  0  0  0
    3.4187   -5.1121   -0.5926 H   0  0  0  0  0  0  0  0  0  0  0  0
    4.5040   -2.1463    0.3071 H   0  0  0  0  0  0  0  0  0  0  0  0
    3.2870   -1.1677   -0.4205 H   0  0  0  0  0  0  0  0  0  0  0  0
    4.3088   -4.1710   -1.9077 H   0  0  0  0  0  0  0  0  0  0  0  0
  1  2  1  0
  1 14  1  0
  1 15  1  0
  1 16  1  0
  2  8  1  0
  2  3  1  0
  2 32  1  1
  3 13  1  0
  3  4  1  0
  3 17  1  1
  4  5  1  0
  4 18  1  0
  4 19  1  0
  5  6  1  0
  5  7  1  0
  5 20  1  1
  6 21  1  0
  6 22  1  0
  7  8  1  0
  7 23  1  0
  7 24  1  0
  8  9  1  0
  8 25  1  6
  9 10  1  0
  9 11  1  0
  9 26  1  6
 10 27  1  0
 11 12  1  0
 11 13  1  0
 11 28  1  1
 12 29  1  0
 13 30  1  0
 13 31  1  0
M  CHG  1   2   1
M  END
>  <i_m_ct_stereo_status>  (107) 
1

>  <s_m_source_file>  (107) 
/var/tmp/pbs.5076255.sched01/tmp68k5m_u8/43t0xmz28c.sdf

>  <i_m_source_file_index>  (107) 
3

>  <i_lp_mmshare_version>  (107) 
48012

>  <i_f3d_flags>  (107) 
0

>  <s_epik_input>  (107) 
W09IXVtDQEBIXShbQ0gyXTEpW0NASF0oW09IXSlbQ0hdKE4oW0NIM10pW0NIXTEyKVtDSDJdW0NAQEhdKFtDSDJdMilbTkgyXQ==

>  <s_epik_cmdline>  (107) 
J2VwaWtfcHl0aG9uJywgJy1waHQnLCAnMi4wJywgJy1waCcsICc3LjAnLCAnLXRuJywgJzgnLCAnLW1hJywgJzIwMCcsICctaW1hZScsICc8aW5maWxlLm1hZT4nLCAnLW9tYWUnLCAnPG91dGZpbGUubWFlPic=

>  <r_epik_Ionization_Penalty>  (107) 
1.37348

>  <r_epik_Ionization_Penalty_Charging>  (107) 
0.136242

>  <r_epik_Ionization_Penalty_Neutral>  (107) 
1.23723

>  <r_epik_State_Penalty>  (107) 
2.2099

>  <r_epik_Charging_Adjusted_Penalty>  (107) 
2.34614

>  <i_epik_Tot_Q>  (107) 
1

>  <i_epik_Tot_abs_Q>  (107) 
1

>  <s_lp_Force_Field>  (107) 
OPLS3e

>  <r_lp_Energy>  (107) 
37.6739

>  <b_lp_Chiralities_Consistent>  (107) 
1

>  <s_lp_Variant>  (107) 
30:0-8

>  <s_i_glide_gridfile>  (107) 
pfpi4k_grid

>  <i_i_glide_lignum>  (107) 
3

>  <i_i_glide_rotatable_bonds>  (107) 
2

>  <r_i_docking_score>  (107) 
-5.02901

>  <r_i_glide_ligand_efficiency>  (107) 
-0.386847

>  <r_i_glide_ligand_efficiency_sa>  (107) 
-0.909607

>  <r_i_glide_ligand_efficiency_ln>  (107) 
-1.41068

>  <r_i_glide_gscore>  (107) 
-5.02901

>  <r_i_glide_lipo>  (107) 
-0.44847

>  <r_i_glide_hbond>  (107) 
-0.228192

>  <r_i_glide_metal>  (107) 
-0

>  <r_i_glide_rewards>  (107) 
-2.13232

>  <r_i_glide_evdw>  (107) 
-7.76572

>  <r_i_glide_ecoul>  (107) 
-11.9883

>  <r_i_glide_erotb>  (107) 
0

>  <r_i_glide_esite>  (107) 
-0.0335003

>  <r_i_glide_emodel>  (107) 
-25.8572

>  <r_i_glide_energy>  (107) 
-19.754

>  <r_i_glide_einternal>  (107) 
1.19788

>  <r_i_glide_intrahb_reward>  (107) 
-0

>  <i_i_glide_confnum>  (107) 
2

>  <i_i_glide_posenum>  (107) 
18

>  <r_i_glide_eff_state_penalty>  (107) 
0

>  <ligand_id>  (107) 
30

>  <original_smiles>  (107) 
CN1C2CC(N)CC1C(O)C(O)C2

>  <smiles>  (107) 
[H]OC1([H])C([H])([H])C2([H])C([H])([H])C([H])(N([H])[H])C([H])([H])C([H])(C1([H])O[H])[N+]2([H])C([H])([H])[H]

$$$$
30:7:2
     RDKit          3D

 32 33  0  0  1  0  0  0  0  0999 V2000
    2.9752   -1.2649    0.8078 C   0  0  0  0  0  0  0  0  0  0  0  0
    3.8856   -2.1293    0.0030 N   0  0  1  0  0  0  0  0  0  0  0  0
    4.6336   -3.1742    0.7552 C   0  0  1  0  0  0  0  0  0  0  0  0
    3.6509   -4.2798    1.1999 C   0  0  0  0  0  0  0  0  0  0  0  0
    2.8887   -4.8749    0.0001 C   0  0  1  0  0  0  0  0  0  0  0  0
    1.8146   -5.7279    0.4846 N   0  0  0  0  0  0  0  0  0  0  0  0
    2.2956   -3.7893   -0.9267 C   0  0  0  0  0  0  0  0  0  0  0  0
    3.3176   -2.6816   -1.2578 C   0  0  2  0  0  0  0  0  0  0  0  0
    4.4608   -3.1795   -2.1977 C   0  0  1  0  0  0  0  0  0  0  0  0
    4.4643   -2.4627   -3.4174 O   0  0  0  0  0  0  0  0  0  0  0  0
    5.8690   -3.1774   -1.5456 C   0  0  1  0  0  0  0  0  0  0  0  0
    6.4588   -1.8723   -1.5274 O   0  0  0  0  0  0  0  0  0  0  0  0
    5.8257   -3.7077   -0.0957 C   0  0  0  0  0  0  0  0  0  0  0  0
    2.1087   -1.7954    1.2027 H   0  0  0  0  0  0  0  0  0  0  0  0
    2.6125   -0.4385    0.2047 H   0  0  0  0  0  0  0  0  0  0  0  0
    3.5012   -0.8180    1.6553 H   0  0  0  0  0  0  0  0  0  0  0  0
    5.0500   -2.7088    1.6471 H   0  0  0  0  0  0  0  0  0  0  0  0
    4.1856   -5.0623    1.7398 H   0  0  0  0  0  0  0  0  0  0  0  0
    2.9479   -3.8611    1.9226 H   0  0  0  0  0  0  0  0  0  0  0  0
    3.5889   -5.4904   -0.5684 H   0  0  0  0  0  0  0  0  0  0  0  0
    1.4658   -6.2452   -0.3109 H   0  0  0  0  0  0  0  0  0  0  0  0
    2.2068   -6.4136    1.1065 H   0  0  0  0  0  0  0  0  0  0  0  0
    1.8836   -4.2272   -1.8448 H   0  0  0  0  0  0  0  0  0  0  0  0
    1.4502   -3.2962   -0.4599 H   0  0  0  0  0  0  0  0  0  0  0  0
    2.7743   -1.8785   -1.7702 H   0  0  0  0  0  0  0  0  0  0  0  0
    4.2598   -4.2201   -2.4855 H   0  0  0  0  0  0  0  0  0  0  0  0
    4.4939   -1.5364   -3.2193 H   0  0  0  0  0  0  0  0  0  0  0  0
    6.5514   -3.7918   -2.1316 H   0  0  0  0  0  0  0  0  0  0  0  0
    5.8828   -1.2430   -1.1440 H   0  0  0  0  0  0  0  0  0  0  0  0
    6.7637   -3.4907    0.4184 H   0  0  0  0  0  0  0  0  0  0  0  0
    5.7871   -4.8016   -0.1235 H   0  0  0  0  0  0  0  0  0  0  0  0
    4.5789   -1.4627   -0.2892 H   0  0  0  0  0  0  0  0  0  0  0  0
  1  2  1  0
  1 14  1  0
  1 15  1  0
  1 16  1  0
  2  8  1  0
  2  3  1  0
  2 32  1  6
  3 13  1  0
  3  4  1  0
  3 17  1  1
  4  5  1  0
  4 18  1  0
  4 19  1  0
  5  6  1  0
  5  7  1  0
  5 20  1  6
  6 21  1  0
  6 22  1  0
  7  8  1  0
  7 23  1  0
  7 24  1  0
  8  9  1  0
  8 25  1  6
  9 10  1  0
  9 11  1  0
  9 26  1  6
 10 27  1  0
 11 12  1  0
 11 13  1  0
 11 28  1  6
 12 29  1  0
 13 30  1  0
 13 31  1  0
M  CHG  1   2   1
M  END
>  <i_m_ct_stereo_status>  (108) 
1

>  <s_m_source_file>  (108) 
/var/tmp/pbs.5076255.sched01/tmp68k5m_u8/43t0xmz28c.sdf

>  <i_m_source_file_index>  (108) 
3

>  <i_lp_mmshare_version>  (108) 
48012

>  <i_f3d_flags>  (108) 
0

>  <s_epik_input>  (108) 
W09IXVtDQEBIXShbQ0gyXTEpW0NASF0oW09IXSlbQ0hdKE4oW0NIM10pW0NIXTEyKVtDSDJdW0NAQEhdKFtDSDJdMilbTkgyXQ==

>  <s_epik_cmdline>  (108) 
J2VwaWtfcHl0aG9uJywgJy1waHQnLCAnMi4wJywgJy1waCcsICc3LjAnLCAnLXRuJywgJzgnLCAnLW1hJywgJzIwMCcsICctaW1hZScsICc8aW5maWxlLm1hZT4nLCAnLW9tYWUnLCAnPG91dGZpbGUubWFlPic=

>  <r_epik_Ionization_Penalty>  (108) 
1.37348

>  <r_epik_Ionization_Penalty_Charging>  (108) 
0.136242

>  <r_epik_Ionization_Penalty_Neutral>  (108) 
1.23723

>  <r_epik_State_Penalty>  (108) 
2.2099

>  <r_epik_Charging_Adjusted_Penalty>  (108) 
2.34614

>  <i_epik_Tot_Q>  (108) 
1

>  <i_epik_Tot_abs_Q>  (108) 
1

>  <s_lp_Force_Field>  (108) 
OPLS3e

>  <r_lp_Energy>  (108) 
37.6739

>  <b_lp_Chiralities_Consistent>  (108) 
1

>  <s_lp_Variant>  (108) 
30:0-8

>  <s_i_glide_gridfile>  (108) 
pfpi4k_grid

>  <i_i_glide_lignum>  (108) 
3

>  <i_i_glide_rotatable_bonds>  (108) 
2

>  <r_i_docking_score>  (108) 
-4.28747

>  <r_i_glide_ligand_efficiency>  (108) 
-0.329805

>  <r_i_glide_ligand_efficiency_sa>  (108) 
-0.775483

>  <r_i_glide_ligand_efficiency_ln>  (108) 
-1.20267

>  <r_i_glide_gscore>  (108) 
-4.28747

>  <r_i_glide_lipo>  (108) 
-0.193047

>  <r_i_glide_hbond>  (108) 
-0.0800529

>  <r_i_glide_metal>  (108) 
-0

>  <r_i_glide_rewards>  (108) 
-2.13232

>  <r_i_glide_evdw>  (108) 
-10.8513

>  <r_i_glide_ecoul>  (108) 
-8.72038

>  <r_i_glide_erotb>  (108) 
0

>  <r_i_glide_esite>  (108) 
-0.0314249

>  <r_i_glide_emodel>  (108) 
-25.8046

>  <r_i_glide_energy>  (108) 
-19.5717

>  <r_i_glide_einternal>  (108) 
0.321011

>  <r_i_glide_intrahb_reward>  (108) 
-0

>  <i_i_glide_confnum>  (108) 
2

>  <i_i_glide_posenum>  (108) 
3

>  <r_i_glide_eff_state_penalty>  (108) 
0

>  <ligand_id>  (108) 
30

>  <original_smiles>  (108) 
CN1C2CC(N)CC1C(O)C(O)C2

>  <smiles>  (108) 
[H]OC1([H])C([H])([H])C2([H])C([H])([H])C([H])(N([H])[H])C([H])([H])C([H])(C1([H])O[H])[N+]2([H])C([H])([H])[H]

$$$$
30:8:0
     RDKit          3D

 32 33  0  0  1  0  0  0  0  0999 V2000
    2.5907   -4.6985   -0.0597 C   0  0  0  0  0  0  0  0  0  0  0  0
    3.7472   -3.7710    0.0918 N   0  0  2  0  0  0  0  0  0  0  0  0
    3.4777   -2.3303   -0.1757 C   0  0  2  0  0  0  0  0  0  0  0  0
    3.3726   -2.0210   -1.6860 C   0  0  0  0  0  0  0  0  0  0  0  0
    3.8630   -3.1394   -2.6329 C   0  0  1  0  0  0  0  0  0  0  0  0
    4.2036   -2.5876   -3.9267 N   0  0  0  0  0  0  0  0  0  0  0  0
    5.0184   -4.0177   -2.0823 C   0  0  0  0  0  0  0  0  0  0  0  0
    5.0237   -4.1985   -0.5381 C   0  0  1  0  0  0  0  0  0  0  0  0
    6.1697   -3.4573    0.2218 C   0  0  1  0  0  0  0  0  0  0  0  0
    7.4569   -3.8239   -0.2467 O   0  0  0  0  0  0  0  0  0  0  0  0
    6.0039   -1.9190    0.1966 C   0  0  1  0  0  0  0  0  0  0  0  0
    6.2643   -1.4495   -1.0960 O   0  0  0  0  0  0  0  0  0  0  0  0
    4.5569   -1.5058    0.5795 C   0  0  0  0  0  0  0  0  0  0  0  0
    2.1497   -4.6628   -1.0517 H   0  0  0  0  0  0  0  0  0  0  0  0
    1.8169   -4.4161    0.6529 H   0  0  0  0  0  0  0  0  0  0  0  0
    2.8551   -5.7367    0.1616 H   0  0  0  0  0  0  0  0  0  0  0  0
    2.5372   -2.0767    0.3030 H   0  0  0  0  0  0  0  0  0  0  0  0
    2.3320   -1.8544   -1.9422 H   0  0  0  0  0  0  0  0  0  0  0  0
    3.8424   -1.0639   -1.8978 H   0  0  0  0  0  0  0  0  0  0  0  0
    3.0074   -3.7991   -2.8118 H   0  0  0  0  0  0  0  0  0  0  0  0
    4.9665   -1.9197   -3.8313 H   0  0  0  0  0  0  0  0  0  0  0  0
    3.4029   -2.0522   -4.2555 H   0  0  0  0  0  0  0  0  0  0  0  0
    4.9629   -4.9985   -2.5495 H   0  0  0  0  0  0  0  0  0  0  0  0
    5.9756   -3.6576   -2.4499 H   0  0  0  0  0  0  0  0  0  0  0  0
    5.1797   -5.2667   -0.3248 H   0  0  0  0  0  0  0  0  0  0  0  0
    6.1481   -3.7700    1.2609 H   0  0  0  0  0  0  0  0  0  0  0  0
    7.5643   -3.5061   -1.1325 H   0  0  0  0  0  0  0  0  0  0  0  0
    6.7100   -1.4547    0.8933 H   0  0  0  0  0  0  0  0  0  0  0  0
    5.5770   -1.7871   -1.6720 H   0  0  0  0  0  0  0  0  0  0  0  0
    4.4111   -0.4324    0.4170 H   0  0  0  0  0  0  0  0  0  0  0  0
    4.4321   -1.6423    1.6554 H   0  0  0  0  0  0  0  0  0  0  0  0
    3.9453   -3.8165    1.0838 H   0  0  0  0  0  0  0  0  0  0  0  0
  1  2  1  0
  1 14  1  0
  1 15  1  0
  1 16  1  0
  2  8  1  0
  2  3  1  0
  2 32  1  1
  3 13  1  0
  3  4  1  0
  3 17  1  1
  4  5  1  0
  4 18  1  0
  4 19  1  0
  5  6  1  0
  5  7  1  0
  5 20  1  6
  6 21  1  0
  6 22  1  0
  7  8  1  0
  7 23  1  0
  7 24  1  0
  8  9  1  0
  8 25  1  6
  9 10  1  0
  9 11  1  0
  9 26  1  1
 10 27  1  0
 11 12  1  0
 11 13  1  0
 11 28  1  1
 12 29  1  0
 13 30  1  0
 13 31  1  0
M  CHG  1   2   1
M  END
>  <i_m_ct_stereo_status>  (109) 
1

>  <s_m_source_file>  (109) 
/var/tmp/pbs.5076255.sched01/tmp68k5m_u8/43t0xmz28c.sdf

>  <i_m_source_file_index>  (109) 
4

>  <i_lp_mmshare_version>  (109) 
48012

>  <i_f3d_flags>  (109) 
0

>  <s_epik_input>  (109) 
W09IXVtDQEBIXShbQ0gyXTEpW0NASF0oW09IXSlbQ0hdKE4oW0NIM10pW0NIXTEyKVtDSDJdW0NAQEhdKFtDSDJdMilbTkgyXQ==

>  <s_epik_cmdline>  (109) 
J2VwaWtfcHl0aG9uJywgJy1waHQnLCAnMi4wJywgJy1waCcsICc3LjAnLCAnLXRuJywgJzgnLCAnLW1hJywgJzIwMCcsICctaW1hZScsICc8aW5maWxlLm1hZT4nLCAnLW9tYWUnLCAnPG91dGZpbGUubWFlPic=

>  <r_epik_Ionization_Penalty>  (109) 
1.37348

>  <r_epik_Ionization_Penalty_Charging>  (109) 
0.136242

>  <r_epik_Ionization_Penalty_Neutral>  (109) 
1.23723

>  <r_epik_State_Penalty>  (109) 
2.2099

>  <r_epik_Charging_Adjusted_Penalty>  (109) 
2.34614

>  <i_epik_Tot_Q>  (109) 
1

>  <i_epik_Tot_abs_Q>  (109) 
1

>  <s_lp_Force_Field>  (109) 
OPLS3e

>  <r_lp_Energy>  (109) 
40.8476

>  <b_lp_Chiralities_Consistent>  (109) 
1

>  <s_lp_Variant>  (109) 
30:0-9

>  <s_i_glide_gridfile>  (109) 
pfpi4k_grid

>  <i_i_glide_lignum>  (109) 
4

>  <i_i_glide_rotatable_bonds>  (109) 
2

>  <r_i_docking_score>  (109) 
-4.28665

>  <r_i_glide_ligand_efficiency>  (109) 
-0.329742

>  <r_i_glide_ligand_efficiency_sa>  (109) 
-0.775334

>  <r_i_glide_ligand_efficiency_ln>  (109) 
-1.20244

>  <r_i_glide_gscore>  (109) 
-4.28665

>  <r_i_glide_lipo>  (109) 
-0.171444

>  <r_i_glide_hbond>  (109) 
-0.167986

>  <r_i_glide_metal>  (109) 
-0

>  <r_i_glide_rewards>  (109) 
-2.13232

>  <r_i_glide_evdw>  (109) 
-11.2688

>  <r_i_glide_ecoul>  (109) 
-8.33482

>  <r_i_glide_erotb>  (109) 
0

>  <r_i_glide_esite>  (109) 
-0.00123376

>  <r_i_glide_emodel>  (109) 
-25.2755

>  <r_i_glide_energy>  (109) 
-19.6036

>  <r_i_glide_einternal>  (109) 
0.0224679

>  <r_i_glide_intrahb_reward>  (109) 
-0

>  <i_i_glide_confnum>  (109) 
2

>  <i_i_glide_posenum>  (109) 
18

>  <r_i_glide_eff_state_penalty>  (109) 
0

>  <ligand_id>  (109) 
30

>  <original_smiles>  (109) 
CN1C2CC(N)CC1C(O)C(O)C2

>  <smiles>  (109) 
[H]OC1([H])C([H])([H])C2([H])C([H])([H])C([H])(N([H])[H])C([H])([H])C([H])(C1([H])O[H])[N+]2([H])C([H])([H])[H]

$$$$
30:8:1
     RDKit          3D

 32 33  0  0  1  0  0  0  0  0999 V2000
    2.8691   -4.8278    0.2020 C   0  0  0  0  0  0  0  0  0  0  0  0
    3.7591   -3.6351    0.0884 N   0  0  2  0  0  0  0  0  0  0  0  0
    3.1077   -2.3567   -0.2912 C   0  0  2  0  0  0  0  0  0  0  0  0
    2.8077   -2.2612   -1.8157 C   0  0  0  0  0  0  0  0  0  0  0  0
    3.4502   -3.3348   -2.6838 C   0  0  1  0  0  0  0  0  0  0  0  0
    3.5202   -2.8710   -4.0593 N   0  0  0  0  0  0  0  0  0  0  0  0
    4.8277   -3.8289   -2.2128 C   0  0  0  0  0  0  0  0  0  0  0  0
    5.0311   -3.8148   -0.6744 C   0  0  1  0  0  0  0  0  0  0  0  0
    6.0114   -2.6983   -0.1754 C   0  0  1  0  0  0  0  0  0  0  0  0
    7.3058   -2.7843   -0.7602 O   0  0  0  0  0  0  0  0  0  0  0  0
    5.4437   -1.2562   -0.3118 C   0  0  1  0  0  0  0  0  0  0  0  0
    5.4205   -0.8056   -1.6406 O   0  0  0  0  0  0  0  0  0  0  0  0
    3.9968   -1.2034    0.2450 C   0  0  0  0  0  0  0  0  0  0  0  0
    2.3488   -5.0755   -0.7150 H   0  0  0  0  0  0  0  0  0  0  0  0
    2.0819   -4.6691    0.9378 H   0  0  0  0  0  0  0  0  0  0  0  0
    3.4123   -5.7261    0.5150 H   0  0  0  0  0  0  0  0  0  0  0  0
    2.1820   -2.2906    0.2801 H   0  0  0  0  0  0  0  0  0  0  0  0
    1.7539   -2.4275   -1.9911 H   0  0  0  0  0  0  0  0  0  0  0  0
    2.9642   -1.2455   -2.1737 H   0  0  0  0  0  0  0  0  0  0  0  0
    2.7409   -4.1556   -2.6744 H   0  0  0  0  0  0  0  0  0  0  0  0
    4.0560   -2.0200   -4.1058 H   0  0  0  0  0  0  0  0  0  0  0  0
    2.5881   -2.6410   -4.3773 H   0  0  0  0  0  0  0  0  0  0  0  0
    4.9988   -4.8362   -2.5872 H   0  0  0  0  0  0  0  0  0  0  0  0
    5.6115   -3.2523   -2.7003 H   0  0  0  0  0  0  0  0  0  0  0  0
    5.4715   -4.7717   -0.3726 H   0  0  0  0  0  0  0  0  0  0  0  0
    6.1690   -2.8692    0.8918 H   0  0  0  0  0  0  0  0  0  0  0  0
    7.6173   -3.6798   -0.6913 H   0  0  0  0  0  0  0  0  0  0  0  0
    6.0705   -0.5565    0.2521 H   0  0  0  0  0  0  0  0  0  0  0  0
    4.7847   -1.3157   -2.1194 H   0  0  0  0  0  0  0  0  0  0  0  0
    3.5257   -0.2459    0.0312 H   0  0  0  0  0  0  0  0  0  0  0  0
    4.0342   -1.2526    1.3333 H   0  0  0  0  0  0  0  0  0  0  0  0
    4.0556   -3.4932    1.0452 H   0  0  0  0  0  0  0  0  0  0  0  0
  1  2  1  0
  1 14  1  0
  1 15  1  0
  1 16  1  0
  2  8  1  0
  2  3  1  0
  2 32  1  1
  3 13  1  0
  3  4  1  0
  3 17  1  1
  4  5  1  0
  4 18  1  0
  4 19  1  0
  5  6  1  0
  5  7  1  0
  5 20  1  6
  6 21  1  0
  6 22  1  0
  7  8  1  0
  7 23  1  0
  7 24  1  0
  8  9  1  0
  8 25  1  1
  9 10  1  0
  9 11  1  0
  9 26  1  1
 10 27  1  0
 11 12  1  0
 11 13  1  0
 11 28  1  1
 12 29  1  0
 13 30  1  0
 13 31  1  0
M  CHG  1   2   1
M  END
>  <i_m_ct_stereo_status>  (110) 
1

>  <s_m_source_file>  (110) 
/var/tmp/pbs.5076255.sched01/tmp68k5m_u8/43t0xmz28c.sdf

>  <i_m_source_file_index>  (110) 
4

>  <i_lp_mmshare_version>  (110) 
48012

>  <i_f3d_flags>  (110) 
0

>  <s_epik_input>  (110) 
W09IXVtDQEBIXShbQ0gyXTEpW0NASF0oW09IXSlbQ0hdKE4oW0NIM10pW0NIXTEyKVtDSDJdW0NAQEhdKFtDSDJdMilbTkgyXQ==

>  <s_epik_cmdline>  (110) 
J2VwaWtfcHl0aG9uJywgJy1waHQnLCAnMi4wJywgJy1waCcsICc3LjAnLCAnLXRuJywgJzgnLCAnLW1hJywgJzIwMCcsICctaW1hZScsICc8aW5maWxlLm1hZT4nLCAnLW9tYWUnLCAnPG91dGZpbGUubWFlPic=

>  <r_epik_Ionization_Penalty>  (110) 
1.37348

>  <r_epik_Ionization_Penalty_Charging>  (110) 
0.136242

>  <r_epik_Ionization_Penalty_Neutral>  (110) 
1.23723

>  <r_epik_State_Penalty>  (110) 
2.2099

>  <r_epik_Charging_Adjusted_Penalty>  (110) 
2.34614

>  <i_epik_Tot_Q>  (110) 
1

>  <i_epik_Tot_abs_Q>  (110) 
1

>  <s_lp_Force_Field>  (110) 
OPLS3e

>  <r_lp_Energy>  (110) 
40.8476

>  <b_lp_Chiralities_Consistent>  (110) 
1

>  <s_lp_Variant>  (110) 
30:0-9

>  <s_i_glide_gridfile>  (110) 
pfpi4k_grid

>  <i_i_glide_lignum>  (110) 
4

>  <i_i_glide_rotatable_bonds>  (110) 
2

>  <r_i_docking_score>  (110) 
-3.94409

>  <r_i_glide_ligand_efficiency>  (110) 
-0.303392

>  <r_i_glide_ligand_efficiency_sa>  (110) 
-0.713376

>  <r_i_glide_ligand_efficiency_ln>  (110) 
-1.10635

>  <r_i_glide_gscore>  (110) 
-3.94409

>  <r_i_glide_lipo>  (110) 
-0.0659125

>  <r_i_glide_hbond>  (110) 
-0.151899

>  <r_i_glide_metal>  (110) 
-0

>  <r_i_glide_rewards>  (110) 
-2.13232

>  <r_i_glide_evdw>  (110) 
-11.1815

>  <r_i_glide_ecoul>  (110) 
-6.89923

>  <r_i_glide_erotb>  (110) 
0

>  <r_i_glide_esite>  (110) 
0

>  <r_i_glide_emodel>  (110) 
-22.9461

>  <r_i_glide_energy>  (110) 
-18.0807

>  <r_i_glide_einternal>  (110) 
0.637603

>  <r_i_glide_intrahb_reward>  (110) 
-0

>  <i_i_glide_confnum>  (110) 
2

>  <i_i_glide_posenum>  (110) 
17

>  <r_i_glide_eff_state_penalty>  (110) 
0

>  <ligand_id>  (110) 
30

>  <original_smiles>  (110) 
CN1C2CC(N)CC1C(O)C(O)C2

>  <smiles>  (110) 
[H]OC1([H])C([H])([H])C2([H])C([H])([H])C([H])(N([H])[H])C([H])([H])C([H])(C1([H])O[H])[N+]2([H])C([H])([H])[H]

$$$$
30:8:2
     RDKit          3D

 32 33  0  0  1  0  0  0  0  0999 V2000
    3.8610   -0.6713   -3.0353 C   0  0  0  0  0  0  0  0  0  0  0  0
    4.8675   -1.2099   -2.0659 N   0  0  2  0  0  0  0  0  0  0  0  0
    5.3659   -2.5924   -2.3175 C   0  0  2  0  0  0  0  0  0  0  0  0
    4.3216   -3.6744   -1.9346 C   0  0  0  0  0  0  0  0  0  0  0  0
    3.1390   -3.1641   -1.0638 C   0  0  1  0  0  0  0  0  0  0  0  0
    2.5489   -4.2725   -0.3273 N   0  0  0  0  0  0  0  0  0  0  0  0
    3.4875   -2.0056   -0.0961 C   0  0  0  0  0  0  0  0  0  0  0  0
    4.5766   -1.0302   -0.6149 C   0  0  1  0  0  0  0  0  0  0  0  0
    5.9127   -1.1332    0.1703 C   0  0  1  0  0  0  0  0  0  0  0  0
    5.7343   -0.8949    1.5434 O   0  0  0  0  0  0  0  0  0  0  0  0
    6.6927   -2.4521   -0.0852 C   0  0  1  0  0  0  0  0  0  0  0  0
    6.1177   -3.5283    0.6201 O   0  0  0  0  0  0  0  0  0  0  0  0
    6.7352   -2.7753   -1.6037 C   0  0  0  0  0  0  0  0  0  0  0  0
    2.9074   -1.1961   -3.0320 H   0  0  0  0  0  0  0  0  0  0  0  0
    4.2592   -0.7130   -4.0501 H   0  0  0  0  0  0  0  0  0  0  0  0
    3.6705    0.3815   -2.8324 H   0  0  0  0  0  0  0  0  0  0  0  0
    5.5641   -2.6929   -3.3813 H   0  0  0  0  0  0  0  0  0  0  0  0
    3.9210   -4.0842   -2.8611 H   0  0  0  0  0  0  0  0  0  0  0  0
    4.8238   -4.5209   -1.4580 H   0  0  0  0  0  0  0  0  0  0  0  0
    2.3638   -2.8098   -1.7374 H   0  0  0  0  0  0  0  0  0  0  0  0
    3.2135   -4.6604    0.3252 H   0  0  0  0  0  0  0  0  0  0  0  0
    2.3613   -5.0022   -0.9937 H   0  0  0  0  0  0  0  0  0  0  0  0
    2.6158   -1.4061    0.0908 H   0  0  0  0  0  0  0  0  0  0  0  0
    3.7530   -2.4008    0.8901 H   0  0  0  0  0  0  0  0  0  0  0  0
    4.2245   -0.0162   -0.4570 H   0  0  0  0  0  0  0  0  0  0  0  0
    6.5523   -0.3082   -0.1537 H   0  0  0  0  0  0  0  0  0  0  0  0
    5.2195   -1.5938    1.9363 H   0  0  0  0  0  0  0  0  0  0  0  0
    7.7206   -2.3493    0.2967 H   0  0  0  0  0  0  0  0  0  0  0  0
    5.2452   -3.6909    0.2863 H   0  0  0  0  0  0  0  0  0  0  0  0
    7.1340   -3.7739   -1.7622 H   0  0  0  0  0  0  0  0  0  0  0  0
    7.4651   -2.1206   -2.0781 H   0  0  0  0  0  0  0  0  0  0  0  0
    5.6604   -0.6125   -2.2232 H   0  0  0  0  0  0  0  0  0  0  0  0
  1  2  1  0
  1 14  1  0
  1 15  1  0
  1 16  1  0
  2  8  1  0
  2  3  1  0
  2 32  1  6
  3 13  1  0
  3  4  1  0
  3 17  1  6
  4  5  1  0
  4 18  1  0
  4 19  1  0
  5  6  1  0
  5  7  1  0
  5 20  1  6
  6 21  1  0
  6 22  1  0
  7  8  1  0
  7 23  1  0
  7 24  1  0
  8  9  1  0
  8 25  1  6
  9 10  1  0
  9 11  1  0
  9 26  1  6
 10 27  1  0
 11 12  1  0
 11 13  1  0
 11 28  1  1
 12 29  1  0
 13 30  1  0
 13 31  1  0
M  CHG  1   2   1
M  END
>  <i_m_ct_stereo_status>  (111) 
1

>  <s_m_source_file>  (111) 
/var/tmp/pbs.5076255.sched01/tmp68k5m_u8/43t0xmz28c.sdf

>  <i_m_source_file_index>  (111) 
4

>  <i_lp_mmshare_version>  (111) 
48012

>  <i_f3d_flags>  (111) 
0

>  <s_epik_input>  (111) 
W09IXVtDQEBIXShbQ0gyXTEpW0NASF0oW09IXSlbQ0hdKE4oW0NIM10pW0NIXTEyKVtDSDJdW0NAQEhdKFtDSDJdMilbTkgyXQ==

>  <s_epik_cmdline>  (111) 
J2VwaWtfcHl0aG9uJywgJy1waHQnLCAnMi4wJywgJy1waCcsICc3LjAnLCAnLXRuJywgJzgnLCAnLW1hJywgJzIwMCcsICctaW1hZScsICc8aW5maWxlLm1hZT4nLCAnLW9tYWUnLCAnPG91dGZpbGUubWFlPic=

>  <r_epik_Ionization_Penalty>  (111) 
1.37348

>  <r_epik_Ionization_Penalty_Charging>  (111) 
0.136242

>  <r_epik_Ionization_Penalty_Neutral>  (111) 
1.23723

>  <r_epik_State_Penalty>  (111) 
2.2099

>  <r_epik_Charging_Adjusted_Penalty>  (111) 
2.34614

>  <i_epik_Tot_Q>  (111) 
1

>  <i_epik_Tot_abs_Q>  (111) 
1

>  <s_lp_Force_Field>  (111) 
OPLS3e

>  <r_lp_Energy>  (111) 
40.8476

>  <b_lp_Chiralities_Consistent>  (111) 
1

>  <s_lp_Variant>  (111) 
30:0-9

>  <s_i_glide_gridfile>  (111) 
pfpi4k_grid

>  <i_i_glide_lignum>  (111) 
4

>  <i_i_glide_rotatable_bonds>  (111) 
2

>  <r_i_docking_score>  (111) 
-3.92697

>  <r_i_glide_ligand_efficiency>  (111) 
-0.302074

>  <r_i_glide_ligand_efficiency_sa>  (111) 
-0.710278

>  <r_i_glide_ligand_efficiency_ln>  (111) 
-1.10155

>  <r_i_glide_gscore>  (111) 
-3.92697

>  <r_i_glide_lipo>  (111) 
-0.291802

>  <r_i_glide_hbond>  (111) 
-0.319087

>  <r_i_glide_metal>  (111) 
-0

>  <r_i_glide_rewards>  (111) 
-2.13232

>  <r_i_glide_evdw>  (111) 
-14.6559

>  <r_i_glide_ecoul>  (111) 
-2.71136

>  <r_i_glide_erotb>  (111) 
0

>  <r_i_glide_esite>  (111) 
-0.0442597

>  <r_i_glide_emodel>  (111) 
-22.5964

>  <r_i_glide_energy>  (111) 
-17.3672

>  <r_i_glide_einternal>  (111) 
0.0453955

>  <r_i_glide_intrahb_reward>  (111) 
-0

>  <i_i_glide_confnum>  (111) 
1

>  <i_i_glide_posenum>  (111) 
1

>  <r_i_glide_eff_state_penalty>  (111) 
0

>  <ligand_id>  (111) 
30

>  <original_smiles>  (111) 
CN1C2CC(N)CC1C(O)C(O)C2

>  <smiles>  (111) 
[H]OC1([H])C([H])([H])C2([H])C([H])([H])C([H])(N([H])[H])C([H])([H])C([H])(C1([H])O[H])[N+]2([H])C([H])([H])[H]

$$$$
30:9:0
     RDKit          3D

 32 33  0  0  1  0  0  0  0  0999 V2000
    2.7099   -1.8161    1.2693 C   0  0  0  0  0  0  0  0  0  0  0  0
    3.1778   -1.8179   -0.1344 N   0  0  1  0  0  0  0  0  0  0  0  0
    4.3015   -0.8970   -0.4360 C   0  0  2  0  0  0  0  0  0  0  0  0
    4.4306   -0.6732   -1.9659 C   0  0  0  0  0  0  0  0  0  0  0  0
    3.5110   -1.6000   -2.7980 C   0  0  1  0  0  0  0  0  0  0  0  0
    3.9201   -1.5886   -4.1969 N   0  0  0  0  0  0  0  0  0  0  0  0
    3.4993   -3.0541   -2.2775 C   0  0  0  0  0  0  0  0  0  0  0  0
    3.4461   -3.1520   -0.7347 C   0  0  1  0  0  0  0  0  0  0  0  0
    4.7408   -3.7768   -0.1289 C   0  0  1  0  0  0  0  0  0  0  0  0
    5.0211   -5.0341   -0.7211 O   0  0  0  0  0  0  0  0  0  0  0  0
    5.9770   -2.8531   -0.1977 C   0  0  1  0  0  0  0  0  0  0  0  0
    6.5131   -2.8541   -1.5081 O   0  0  0  0  0  0  0  0  0  0  0  0
    5.6168   -1.4178    0.2170 C   0  0  0  0  0  0  0  0  0  0  0  0
    3.4575   -2.2066    1.9687 H   0  0  0  0  0  0  0  0  0  0  0  0
    1.7962   -2.4164    1.3738 H   0  0  0  0  0  0  0  0  0  0  0  0
    2.4582   -0.7957    1.5758 H   0  0  0  0  0  0  0  0  0  0  0  0
    4.0797    0.0646    0.0292 H   0  0  0  0  0  0  0  0  0  0  0  0
    4.2128    0.3661   -2.2395 H   0  0  0  0  0  0  0  0  0  0  0  0
    5.4746   -0.7897   -2.2793 H   0  0  0  0  0  0  0  0  0  0  0  0
    2.4915   -1.2113   -2.7505 H   0  0  0  0  0  0  0  0  0  0  0  0
    4.8815   -1.9155   -4.2445 H   0  0  0  0  0  0  0  0  0  0  0  0
    3.9265   -0.6331   -4.5273 H   0  0  0  0  0  0  0  0  0  0  0  0
    2.6330   -3.5721   -2.7103 H   0  0  0  0  0  0  0  0  0  0  0  0
    4.3651   -3.5928   -2.6736 H   0  0  0  0  0  0  0  0  0  0  0  0
    2.6097   -3.8087   -0.4791 H   0  0  0  0  0  0  0  0  0  0  0  0
    4.5425   -3.9737    0.9211 H   0  0  0  0  0  0  0  0  0  0  0  0
    4.2908   -5.3318   -1.2477 H   0  0  0  0  0  0  0  0  0  0  0  0
    6.7546   -3.2452    0.4700 H   0  0  0  0  0  0  0  0  0  0  0  0
    6.5038   -3.7504   -1.8162 H   0  0  0  0  0  0  0  0  0  0  0  0
    6.4487   -0.7284    0.0160 H   0  0  0  0  0  0  0  0  0  0  0  0
    5.5015   -1.3965    1.2961 H   0  0  0  0  0  0  0  0  0  0  0  0
    2.3753   -1.4583   -0.6410 H   0  0  0  0  0  0  0  0  0  0  0  0
  1  2  1  0
  1 14  1  0
  1 15  1  0
  1 16  1  0
  2  8  1  0
  2  3  1  0
  2 32  1  6
  3 13  1  0
  3  4  1  0
  3 17  1  1
  4  5  1  0
  4 18  1  0
  4 19  1  0
  5  6  1  0
  5  7  1  0
  5 20  1  6
  6 21  1  0
  6 22  1  0
  7  8  1  0
  7 23  1  0
  7 24  1  0
  8  9  1  0
  8 25  1  6
  9 10  1  0
  9 11  1  0
  9 26  1  1
 10 27  1  0
 11 12  1  0
 11 13  1  0
 11 28  1  1
 12 29  1  0
 13 30  1  0
 13 31  1  0
M  CHG  1   2   1
M  END
>  <i_m_ct_stereo_status>  (112) 
1

>  <s_m_source_file>  (112) 
/var/tmp/pbs.5076255.sched01/tmp68k5m_u8/43t0xmz28c.sdf

>  <i_m_source_file_index>  (112) 
5

>  <i_lp_mmshare_version>  (112) 
48012

>  <i_f3d_flags>  (112) 
0

>  <s_epik_input>  (112) 
W09IXVtDQEBIXShbQ0gyXTEpW0NASF0oW09IXSlbQ0hdKE4oW0NIM10pW0NIXTEyKVtDSDJdW0NAQEhdKFtDSDJdMilbTkgyXQ==

>  <s_epik_cmdline>  (112) 
J2VwaWtfcHl0aG9uJywgJy1waHQnLCAnMi4wJywgJy1waCcsICc3LjAnLCAnLXRuJywgJzgnLCAnLW1hJywgJzIwMCcsICctaW1hZScsICc8aW5maWxlLm1hZT4nLCAnLW9tYWUnLCAnPG91dGZpbGUubWFlPic=

>  <r_epik_Ionization_Penalty>  (112) 
1.37348

>  <r_epik_Ionization_Penalty_Charging>  (112) 
0.136242

>  <r_epik_Ionization_Penalty_Neutral>  (112) 
1.23723

>  <r_epik_State_Penalty>  (112) 
2.2099

>  <r_epik_Charging_Adjusted_Penalty>  (112) 
2.34614

>  <i_epik_Tot_Q>  (112) 
1

>  <i_epik_Tot_abs_Q>  (112) 
1

>  <s_lp_Force_Field>  (112) 
OPLS3e

>  <r_lp_Energy>  (112) 
41.0235

>  <b_lp_Chiralities_Consistent>  (112) 
1

>  <s_lp_Variant>  (112) 
30:0-10

>  <s_i_glide_gridfile>  (112) 
pfpi4k_grid

>  <i_i_glide_lignum>  (112) 
5

>  <i_i_glide_rotatable_bonds>  (112) 
2

>  <r_i_docking_score>  (112) 
-5.01274

>  <r_i_glide_ligand_efficiency>  (112) 
-0.385596

>  <r_i_glide_ligand_efficiency_sa>  (112) 
-0.906665

>  <r_i_glide_ligand_efficiency_ln>  (112) 
-1.40612

>  <r_i_glide_gscore>  (112) 
-5.01274

>  <r_i_glide_lipo>  (112) 
-0.119217

>  <r_i_glide_hbond>  (112) 
-0.432621

>  <r_i_glide_metal>  (112) 
-0

>  <r_i_glide_rewards>  (112) 
-2.13232

>  <r_i_glide_evdw>  (112) 
-15.0627

>  <r_i_glide_ecoul>  (112) 
-9.86114

>  <r_i_glide_erotb>  (112) 
0

>  <r_i_glide_esite>  (112) 
-0.0962763

>  <r_i_glide_emodel>  (112) 
-32.6583

>  <r_i_glide_energy>  (112) 
-24.9239

>  <r_i_glide_einternal>  (112) 
1.74477

>  <r_i_glide_intrahb_reward>  (112) 
-0

>  <i_i_glide_confnum>  (112) 
1

>  <i_i_glide_posenum>  (112) 
12

>  <r_i_glide_eff_state_penalty>  (112) 
0

>  <ligand_id>  (112) 
30

>  <original_smiles>  (112) 
CN1C2CC(N)CC1C(O)C(O)C2

>  <smiles>  (112) 
[H]OC1([H])C([H])([H])C2([H])C([H])([H])C([H])(N([H])[H])C([H])([H])C([H])(C1([H])O[H])[N+]2([H])C([H])([H])[H]

$$$$
30:9:1
     RDKit          3D

 32 33  0  0  1  0  0  0  0  0999 V2000
    2.5366   -1.7109    1.4787 C   0  0  0  0  0  0  0  0  0  0  0  0
    3.0164   -1.8263    0.0757 N   0  0  1  0  0  0  0  0  0  0  0  0
    4.2005   -0.9894   -0.2681 C   0  0  2  0  0  0  0  0  0  0  0  0
    4.3573   -0.8607   -1.8087 C   0  0  0  0  0  0  0  0  0  0  0  0
    3.3919   -1.7766   -2.6022 C   0  0  1  0  0  0  0  0  0  0  0  0
    3.8250   -1.8779   -3.9814 N   0  0  0  0  0  0  0  0  0  0  0  0
    3.2629   -3.1888   -1.9972 C   0  0  0  0  0  0  0  0  0  0  0  0
    3.2054   -3.2075   -0.4495 C   0  0  1  0  0  0  0  0  0  0  0  0
    4.4415   -3.8668    0.2211 C   0  0  1  0  0  0  0  0  0  0  0  0
    4.6116   -5.2121   -0.2233 O   0  0  0  0  0  0  0  0  0  0  0  0
    5.7531   -3.0389    0.0871 C   0  0  1  0  0  0  0  0  0  0  0  0
    6.3260   -3.1461   -1.1950 O   0  0  0  0  0  0  0  0  0  0  0  0
    5.4770   -1.5534    0.4211 C   0  0  0  0  0  0  0  0  0  0  0  0
    3.2482   -2.0951    2.2178 H   0  0  0  0  0  0  0  0  0  0  0  0
    1.5936   -2.2383    1.6249 H   0  0  0  0  0  0  0  0  0  0  0  0
    2.3440   -0.6613    1.7299 H   0  0  0  0  0  0  0  0  0  0  0  0
    4.0340    0.0122    0.1305 H   0  0  0  0  0  0  0  0  0  0  0  0
    4.2102    0.1746   -2.1218 H   0  0  0  0  0  0  0  0  0  0  0  0
    5.3946   -1.0088   -2.1121 H   0  0  0  0  0  0  0  0  0  0  0  0
    2.4005   -1.3236   -2.5973 H   0  0  0  0  0  0  0  0  0  0  0  0
    4.7565   -2.2662   -4.0132 H   0  0  0  0  0  0  0  0  0  0  0  0
    3.8830   -0.9469   -4.3710 H   0  0  0  0  0  0  0  0  0  0  0  0
    2.3591   -3.6582   -2.3953 H   0  0  0  0  0  0  0  0  0  0  0  0
    4.0642   -3.8358   -2.3671 H   0  0  0  0  0  0  0  0  0  0  0  0
    2.3252   -3.7957   -0.1585 H   0  0  0  0  0  0  0  0  0  0  0  0
    4.2400   -3.9592    1.2916 H   0  0  0  0  0  0  0  0  0  0  0  0
    4.4896   -5.2552   -1.1635 H   0  0  0  0  0  0  0  0  0  0  0  0
    6.4957   -3.4225    0.7934 H   0  0  0  0  0  0  0  0  0  0  0  0
    5.6583   -2.9891   -1.8454 H   0  0  0  0  0  0  0  0  0  0  0  0
    6.3542   -0.9352    0.1738 H   0  0  0  0  0  0  0  0  0  0  0  0
    5.3607   -1.4546    1.4940 H   0  0  0  0  0  0  0  0  0  0  0  0
    2.2333   -1.4539   -0.4573 H   0  0  0  0  0  0  0  0  0  0  0  0
  1  2  1  0
  1 14  1  0
  1 15  1  0
  1 16  1  0
  2  8  1  0
  2  3  1  0
  2 32  1  6
  3 13  1  0
  3  4  1  0
  3 17  1  1
  4  5  1  0
  4 18  1  0
  4 19  1  0
  5  6  1  0
  5  7  1  0
  5 20  1  6
  6 21  1  0
  6 22  1  0
  7  8  1  0
  7 23  1  0
  7 24  1  0
  8  9  1  0
  8 25  1  6
  9 10  1  0
  9 11  1  0
  9 26  1  1
 10 27  1  0
 11 12  1  0
 11 13  1  0
 11 28  1  1
 12 29  1  0
 13 30  1  0
 13 31  1  0
M  CHG  1   2   1
M  END
>  <i_m_ct_stereo_status>  (113) 
1

>  <s_m_source_file>  (113) 
/var/tmp/pbs.5076255.sched01/tmp68k5m_u8/43t0xmz28c.sdf

>  <i_m_source_file_index>  (113) 
5

>  <i_lp_mmshare_version>  (113) 
48012

>  <i_f3d_flags>  (113) 
0

>  <s_epik_input>  (113) 
W09IXVtDQEBIXShbQ0gyXTEpW0NASF0oW09IXSlbQ0hdKE4oW0NIM10pW0NIXTEyKVtDSDJdW0NAQEhdKFtDSDJdMilbTkgyXQ==

>  <s_epik_cmdline>  (113) 
J2VwaWtfcHl0aG9uJywgJy1waHQnLCAnMi4wJywgJy1waCcsICc3LjAnLCAnLXRuJywgJzgnLCAnLW1hJywgJzIwMCcsICctaW1hZScsICc8aW5maWxlLm1hZT4nLCAnLW9tYWUnLCAnPG91dGZpbGUubWFlPic=

>  <r_epik_Ionization_Penalty>  (113) 
1.37348

>  <r_epik_Ionization_Penalty_Charging>  (113) 
0.136242

>  <r_epik_Ionization_Penalty_Neutral>  (113) 
1.23723

>  <r_epik_State_Penalty>  (113) 
2.2099

>  <r_epik_Charging_Adjusted_Penalty>  (113) 
2.34614

>  <i_epik_Tot_Q>  (113) 
1

>  <i_epik_Tot_abs_Q>  (113) 
1

>  <s_lp_Force_Field>  (113) 
OPLS3e

>  <r_lp_Energy>  (113) 
41.0235

>  <b_lp_Chiralities_Consistent>  (113) 
1

>  <s_lp_Variant>  (113) 
30:0-10

>  <s_i_glide_gridfile>  (113) 
pfpi4k_grid

>  <i_i_glide_lignum>  (113) 
5

>  <i_i_glide_rotatable_bonds>  (113) 
2

>  <r_i_docking_score>  (113) 
-4.77524

>  <r_i_glide_ligand_efficiency>  (113) 
-0.367326

>  <r_i_glide_ligand_efficiency_sa>  (113) 
-0.863707

>  <r_i_glide_ligand_efficiency_ln>  (113) 
-1.3395

>  <r_i_glide_gscore>  (113) 
-4.77524

>  <r_i_glide_lipo>  (113) 
-0.163723

>  <r_i_glide_hbond>  (113) 
-0.34097

>  <r_i_glide_metal>  (113) 
-0

>  <r_i_glide_rewards>  (113) 
-2.13232

>  <r_i_glide_evdw>  (113) 
-15.0836

>  <r_i_glide_ecoul>  (113) 
-8.65237

>  <r_i_glide_erotb>  (113) 
0

>  <r_i_glide_esite>  (113) 
-0.0861898

>  <r_i_glide_emodel>  (113) 
-31.5574

>  <r_i_glide_energy>  (113) 
-23.736

>  <r_i_glide_einternal>  (113) 
0.785561

>  <r_i_glide_intrahb_reward>  (113) 
-0

>  <i_i_glide_confnum>  (113) 
2

>  <i_i_glide_posenum>  (113) 
9

>  <r_i_glide_eff_state_penalty>  (113) 
0

>  <ligand_id>  (113) 
30

>  <original_smiles>  (113) 
CN1C2CC(N)CC1C(O)C(O)C2

>  <smiles>  (113) 
[H]OC1([H])C([H])([H])C2([H])C([H])([H])C([H])(N([H])[H])C([H])([H])C([H])(C1([H])O[H])[N+]2([H])C([H])([H])[H]

$$$$
30:9:2
     RDKit          3D

 32 33  0  0  1  0  0  0  0  0999 V2000
    2.7817   -1.6806    1.4158 C   0  0  0  0  0  0  0  0  0  0  0  0
    3.2973   -1.7358    0.0252 N   0  0  1  0  0  0  0  0  0  0  0  0
    4.3514   -0.7482   -0.3092 C   0  0  2  0  0  0  0  0  0  0  0  0
    4.5078   -0.6346   -1.8555 C   0  0  0  0  0  0  0  0  0  0  0  0
    3.6850   -1.6875   -2.6421 C   0  0  1  0  0  0  0  0  0  0  0  0
    4.1452   -1.7364   -4.0140 N   0  0  0  0  0  0  0  0  0  0  0  0
    3.7787   -3.0886   -2.0128 C   0  0  0  0  0  0  0  0  0  0  0  0
    3.6940   -3.0838   -0.4660 C   0  0  1  0  0  0  0  0  0  0  0  0
    5.0161   -3.5372    0.2148 C   0  0  1  0  0  0  0  0  0  0  0  0
    5.4217   -4.8195   -0.2464 O   0  0  0  0  0  0  0  0  0  0  0  0
    6.1834   -2.5224    0.1054 C   0  0  1  0  0  0  0  0  0  0  0  0
    6.7672   -2.5555   -1.1803 O   0  0  0  0  0  0  0  0  0  0  0  0
    5.6829   -1.1006    0.4098 C   0  0  0  0  0  0  0  0  0  0  0  0
    3.5340   -1.9530    2.1603 H   0  0  0  0  0  0  0  0  0  0  0  0
    1.9252   -2.3428    1.5418 H   0  0  0  0  0  0  0  0  0  0  0  0
    2.4350   -0.6683    1.6444 H   0  0  0  0  0  0  0  0  0  0  0  0
    4.0326    0.2200    0.0709 H   0  0  0  0  0  0  0  0  0  0  0  0
    4.2195    0.3586   -2.2081 H   0  0  0  0  0  0  0  0  0  0  0  0
    5.5632   -0.6799   -2.1331 H   0  0  0  0  0  0  0  0  0  0  0  0
    2.6376   -1.3799   -2.6435 H   0  0  0  0  0  0  0  0  0  0  0  0
    5.1254   -1.9833   -4.0120 H   0  0  0  0  0  0  0  0  0  0  0  0
    4.0836   -0.8056   -4.4077 H   0  0  0  0  0  0  0  0  0  0  0  0
    2.9774   -3.7080   -2.4214 H   0  0  0  0  0  0  0  0  0  0  0  0
    4.6980   -3.5779   -2.3491 H   0  0  0  0  0  0  0  0  0  0  0  0
    2.9113   -3.7934   -0.1808 H   0  0  0  0  0  0  0  0  0  0  0  0
    4.8163   -3.6774    1.2778 H   0  0  0  0  0  0  0  0  0  0  0  0
    5.3010   -4.8645   -1.1848 H   0  0  0  0  0  0  0  0  0  0  0  0
    6.9580   -2.7993    0.8263 H   0  0  0  0  0  0  0  0  0  0  0  0
    6.9625   -3.4549   -1.3977 H   0  0  0  0  0  0  0  0  0  0  0  0
    6.4569   -0.3623    0.1733 H   0  0  0  0  0  0  0  0  0  0  0  0
    5.5342   -1.0177    1.4791 H   0  0  0  0  0  0  0  0  0  0  0  0
    2.4790   -1.4696   -0.5196 H   0  0  0  0  0  0  0  0  0  0  0  0
  1  2  1  0
  1 14  1  0
  1 15  1  0
  1 16  1  0
  2  8  1  0
  2  3  1  0
  2 32  1  6
  3 13  1  0
  3  4  1  0
  3 17  1  1
  4  5  1  0
  4 18  1  0
  4 19  1  0
  5  6  1  0
  5  7  1  0
  5 20  1  6
  6 21  1  0
  6 22  1  0
  7  8  1  0
  7 23  1  0
  7 24  1  0
  8  9  1  0
  8 25  1  6
  9 10  1  0
  9 11  1  0
  9 26  1  1
 10 27  1  0
 11 12  1  0
 11 13  1  0
 11 28  1  1
 12 29  1  0
 13 30  1  0
 13 31  1  0
M  CHG  1   2   1
M  END
>  <i_m_ct_stereo_status>  (114) 
1

>  <s_m_source_file>  (114) 
/var/tmp/pbs.5076255.sched01/tmp68k5m_u8/43t0xmz28c.sdf

>  <i_m_source_file_index>  (114) 
5

>  <i_lp_mmshare_version>  (114) 
48012

>  <i_f3d_flags>  (114) 
0

>  <s_epik_input>  (114) 
W09IXVtDQEBIXShbQ0gyXTEpW0NASF0oW09IXSlbQ0hdKE4oW0NIM10pW0NIXTEyKVtDSDJdW0NAQEhdKFtDSDJdMilbTkgyXQ==

>  <s_epik_cmdline>  (114) 
J2VwaWtfcHl0aG9uJywgJy1waHQnLCAnMi4wJywgJy1waCcsICc3LjAnLCAnLXRuJywgJzgnLCAnLW1hJywgJzIwMCcsICctaW1hZScsICc8aW5maWxlLm1hZT4nLCAnLW9tYWUnLCAnPG91dGZpbGUubWFlPic=

>  <r_epik_Ionization_Penalty>  (114) 
1.37348

>  <r_epik_Ionization_Penalty_Charging>  (114) 
0.136242

>  <r_epik_Ionization_Penalty_Neutral>  (114) 
1.23723

>  <r_epik_State_Penalty>  (114) 
2.2099

>  <r_epik_Charging_Adjusted_Penalty>  (114) 
2.34614

>  <i_epik_Tot_Q>  (114) 
1

>  <i_epik_Tot_abs_Q>  (114) 
1

>  <s_lp_Force_Field>  (114) 
OPLS3e

>  <r_lp_Energy>  (114) 
41.0235

>  <b_lp_Chiralities_Consistent>  (114) 
1

>  <s_lp_Variant>  (114) 
30:0-10

>  <s_i_glide_gridfile>  (114) 
pfpi4k_grid

>  <i_i_glide_lignum>  (114) 
5

>  <i_i_glide_rotatable_bonds>  (114) 
2

>  <r_i_docking_score>  (114) 
-4.73537

>  <r_i_glide_ligand_efficiency>  (114) 
-0.364259

>  <r_i_glide_ligand_efficiency_sa>  (114) 
-0.856496

>  <r_i_glide_ligand_efficiency_ln>  (114) 
-1.32831

>  <r_i_glide_gscore>  (114) 
-4.73537

>  <r_i_glide_lipo>  (114) 
-0.178929

>  <r_i_glide_hbond>  (114) 
-0.359807

>  <r_i_glide_metal>  (114) 
-0

>  <r_i_glide_rewards>  (114) 
-2.13232

>  <r_i_glide_evdw>  (114) 
-14.8263

>  <r_i_glide_ecoul>  (114) 
-8.25525

>  <r_i_glide_erotb>  (114) 
0

>  <r_i_glide_esite>  (114) 
-0.0847088

>  <r_i_glide_emodel>  (114) 
-30.8311

>  <r_i_glide_energy>  (114) 
-23.0816

>  <r_i_glide_einternal>  (114) 
0.610383

>  <r_i_glide_intrahb_reward>  (114) 
-0

>  <i_i_glide_confnum>  (114) 
2

>  <i_i_glide_posenum>  (114) 
1

>  <r_i_glide_eff_state_penalty>  (114) 
0

>  <ligand_id>  (114) 
30

>  <original_smiles>  (114) 
CN1C2CC(N)CC1C(O)C(O)C2

>  <smiles>  (114) 
[H]OC1([H])C([H])([H])C2([H])C([H])([H])C([H])(N([H])[H])C([H])([H])C([H])(C1([H])O[H])[N+]2([H])C([H])([H])[H]

$$$$
32:0:0
     RDKit          3D

 46 49  0  0  1  0  0  0  0  0999 V2000
    3.1624   -3.0680   -3.9297 C   0  0  0  0  0  0  0  0  0  0  0  0
    4.1902   -2.4417   -2.9963 C   0  0  0  0  0  0  0  0  0  0  0  0
    5.0811   -3.5094   -2.3425 C   0  0  0  0  0  0  0  0  0  0  0  0
    6.0355   -2.8951   -1.3010 C   0  0  0  0  0  0  0  0  0  0  0  0
    5.2607   -2.1294   -0.3049 N   0  0  0  0  0  0  0  0  0  0  0  0
    5.3863   -2.3805    1.0297 C   0  0  0  0  0  0  0  0  0  0  0  0
    6.2600   -3.1486    1.4309 O   0  0  0  0  0  0  0  0  0  0  0  0
    4.3873   -1.8065    2.0755 C   0  0  2  0  0  0  0  0  0  0  0  0
    4.4620   -0.2489    2.2273 C   0  0  0  0  0  0  0  0  0  0  0  0
    3.4255    0.2248    3.2740 C   0  0  1  0  0  0  0  0  0  0  0  0
    2.0035   -0.2354    2.8671 C   0  0  0  0  0  0  0  0  0  0  0  0
    1.9458   -1.7782    2.8107 C   0  0  2  0  0  0  0  0  0  0  0  0
    2.3174   -2.3629    4.1832 C   0  0  0  0  0  0  0  0  0  0  0  0
    3.7380   -1.8996    4.5576 C   0  0  2  0  0  0  0  0  0  0  0  0
    3.8027   -0.3606    4.6446 C   0  0  0  0  0  0  0  0  0  0  0  0
    4.7217   -2.4019    3.4907 C   0  0  0  0  0  0  0  0  0  0  0  0
    2.9337   -2.2733    1.7439 C   0  0  0  0  0  0  0  0  0  0  0  0
    4.4572   -1.0570   -0.9083 C   0  0  0  0  0  0  0  0  0  0  0  0
    3.4754   -1.6326   -1.9252 C   0  0  0  0  0  0  0  0  0  0  0  0
    2.5033   -3.7658   -3.4090 H   0  0  0  0  0  0  0  0  0  0  0  0
    3.6681   -3.6183   -4.7218 H   0  0  0  0  0  0  0  0  0  0  0  0
    2.5359   -2.2966   -4.3792 H   0  0  0  0  0  0  0  0  0  0  0  0
    4.8223   -1.7597   -3.5651 H   0  0  0  0  0  0  0  0  0  0  0  0
    4.4546   -4.2572   -1.8486 H   0  0  0  0  0  0  0  0  0  0  0  0
    5.6553   -4.0356   -3.1108 H   0  0  0  0  0  0  0  0  0  0  0  0
    6.6203   -3.7134   -0.8709 H   0  0  0  0  0  0  0  0  0  0  0  0
    6.7627   -2.2409   -1.7868 H   0  0  0  0  0  0  0  0  0  0  0  0
    5.4704    0.0504    2.5382 H   0  0  0  0  0  0  0  0  0  0  0  0
    4.2415    0.3407    1.3552 H   0  0  0  0  0  0  0  0  0  0  0  0
    3.4443    1.3103    3.3313 H   0  0  0  0  0  0  0  0  0  0  0  0
    1.2545    0.1401    3.5656 H   0  0  0  0  0  0  0  0  0  0  0  0
    1.7379    0.1813    1.8930 H   0  0  0  0  0  0  0  0  0  0  0  0
    0.9409   -2.0961    2.5301 H   0  0  0  0  0  0  0  0  0  0  0  0
    1.5943   -2.0496    4.9398 H   0  0  0  0  0  0  0  0  0  0  0  0
    2.2781   -3.4492    4.1416 H   0  0  0  0  0  0  0  0  0  0  0  0
    4.0104   -2.3252    5.5271 H   0  0  0  0  0  0  0  0  0  0  0  0
    4.8139   -0.0489    4.9044 H   0  0  0  0  0  0  0  0  0  0  0  0
    3.1418    0.0173    5.4292 H   0  0  0  0  0  0  0  0  0  0  0  0
    4.6848   -3.4926    3.4557 H   0  0  0  0  0  0  0  0  0  0  0  0
    5.7452   -2.1539    3.7883 H   0  0  0  0  0  0  0  0  0  0  0  0
    2.5803   -1.8787    0.7966 H   0  0  0  0  0  0  0  0  0  0  0  0
    2.8840   -3.3614    1.6288 H   0  0  0  0  0  0  0  0  0  0  0  0
    3.8122   -0.5207   -0.2535 H   0  0  0  0  0  0  0  0  0  0  0  0
    5.1209   -0.3202   -1.3744 H   0  0  0  0  0  0  0  0  0  0  0  0
    2.9027   -0.8212   -2.3694 H   0  0  0  0  0  0  0  0  0  0  0  0
    2.7550   -2.2709   -1.4170 H   0  0  0  0  0  0  0  0  0  0  0  0
  1  2  1  0
  1 20  1  0
  1 21  1  0
  1 22  1  0
  2 19  1  0
  2  3  1  0
  2 23  1  0
  3  4  1  0
  3 24  1  0
  3 25  1  0
  4  5  1  0
  4 26  1  0
  4 27  1  0
  5  6  1  0
  5 18  1  0
  6  7  2  0
  8  6  1  6
  8 16  1  0
  8 17  1  0
  8  9  1  0
  9 10  1  0
  9 28  1  0
  9 29  1  0
 10 15  1  0
 10 11  1  0
 10 30  1  1
 11 12  1  0
 11 31  1  0
 11 32  1  0
 12 13  1  0
 12 17  1  0
 12 33  1  6
 13 14  1  0
 13 34  1  0
 13 35  1  0
 14 15  1  0
 14 16  1  0
 14 36  1  1
 15 37  1  0
 15 38  1  0
 16 39  1  0
 16 40  1  0
 17 41  1  0
 17 42  1  0
 18 19  1  0
 18 43  1  0
 18 44  1  0
 19 45  1  0
 19 46  1  0
M  END
>  <i_m_ct_stereo_status>  (115) 
1

>  <s_m_source_file>  (115) 
/var/tmp/pbs.5076255.sched01/tmp68k5m_u8/43t0xmz28c.sdf

>  <i_m_source_file_index>  (115) 
7

>  <i_lp_mmshare_version>  (115) 
48012

>  <i_f3d_flags>  (115) 
0

>  <s_epik_input>  (115) 
W0NIM11bQ0hdMVtDSDJdW0NIMl1OKFtDSDJdW0NIMl0xKUMoPU8pQzIzW0NIMl1bQ0BIXTRbQ0gyXVtDQEBIXShbQ0gyXTMpW0NIMl1bQ0BIXShbQ0gyXTQpW0NIMl0y

>  <s_epik_cmdline>  (115) 
J2VwaWtfcHl0aG9uJywgJy1waHQnLCAnMi4wJywgJy1waCcsICc3LjAnLCAnLXRuJywgJzgnLCAnLW1hJywgJzIwMCcsICctaW1hZScsICc8aW5maWxlLm1hZT4nLCAnLW9tYWUnLCAnPG91dGZpbGUubWFlPic=

>  <r_lp_tautomer_probability>  (115) 
1

>  <r_epik_Ionization_Penalty>  (115) 
8.02042e-07

>  <r_epik_Ionization_Penalty_Charging>  (115) 
0

>  <r_epik_Ionization_Penalty_Neutral>  (115) 
8.02042e-07

>  <r_epik_State_Penalty>  (115) 
-0

>  <r_epik_Charging_Adjusted_Penalty>  (115) 
0

>  <i_epik_Tot_Q>  (115) 
0

>  <i_epik_Tot_abs_Q>  (115) 
0

>  <s_lp_Force_Field>  (115) 
OPLS3e

>  <r_lp_Energy>  (115) 
18.7065

>  <b_lp_Chiralities_Consistent>  (115) 
1

>  <s_lp_Variant>  (115) 
32:0-1

>  <s_i_glide_gridfile>  (115) 
pfpi4k_grid

>  <i_i_glide_lignum>  (115) 
7

>  <i_i_glide_rotatable_bonds>  (115) 
2

>  <r_i_docking_score>  (115) 
-3.1168

>  <r_i_glide_ligand_efficiency>  (115) 
-0.164042

>  <r_i_glide_ligand_efficiency_sa>  (115) 
-0.437731

>  <r_i_glide_ligand_efficiency_ln>  (115) 
-0.790176

>  <r_i_glide_gscore>  (115) 
-3.1168

>  <r_i_glide_lipo>  (115) 
-0.507252

>  <r_i_glide_hbond>  (115) 
0

>  <r_i_glide_metal>  (115) 
-0

>  <r_i_glide_rewards>  (115) 
-1.69847

>  <r_i_glide_evdw>  (115) 
-25.5099

>  <r_i_glide_ecoul>  (115) 
-0.966403

>  <r_i_glide_erotb>  (115) 
0.518675

>  <r_i_glide_esite>  (115) 
-0.00930685

>  <r_i_glide_emodel>  (115) 
-30.9401

>  <r_i_glide_energy>  (115) 
-26.4763

>  <r_i_glide_einternal>  (115) 
0.0324581

>  <r_i_glide_intrahb_reward>  (115) 
-0

>  <i_i_glide_confnum>  (115) 
5

>  <i_i_glide_posenum>  (115) 
21

>  <r_i_glide_eff_state_penalty>  (115) 
0

>  <ligand_id>  (115) 
32

>  <original_smiles>  (115) 
CC1CCN(C(=O)C23CC4CC(CC(C4)C2)C3)CC1

>  <smiles>  (115) 
[H]C([H])([H])C1([H])C([H])([H])C([H])([H])N(C(=O)C23C([H])([H])C4([H])C([H])([H])C([H])(C([H])([H])C([H])(C4([H])[H])C2([H])[H])C3([H])[H])C([H])([H])C1([H])[H]

$$$$
32:0:1
     RDKit          3D

 46 49  0  0  1  0  0  0  0  0999 V2000
    3.4582   -1.8781   -3.9623 C   0  0  0  0  0  0  0  0  0  0  0  0
    3.4308   -1.7112   -2.4477 C   0  0  0  0  0  0  0  0  0  0  0  0
    4.7903   -1.2538   -1.8950 C   0  0  0  0  0  0  0  0  0  0  0  0
    4.7959   -1.1850   -0.3590 C   0  0  0  0  0  0  0  0  0  0  0  0
    4.3918   -2.4962    0.2010 N   0  0  0  0  0  0  0  0  0  0  0  0
    5.1757   -3.1362    1.1133 C   0  0  0  0  0  0  0  0  0  0  0  0
    6.1839   -2.6185    1.5748 O   0  0  0  0  0  0  0  0  0  0  0  0
    4.8671   -4.6236    1.5311 C   0  0  2  0  0  0  0  0  0  0  0  0
    5.9873   -5.1676    2.4891 C   0  0  0  0  0  0  0  0  0  0  0  0
    5.7113   -6.6495    2.8555 C   0  0  1  0  0  0  0  0  0  0  0  0
    4.3449   -6.7686    3.5659 C   0  0  0  0  0  0  0  0  0  0  0  0
    3.2409   -6.2334    2.6318 C   0  0  2  0  0  0  0  0  0  0  0  0
    3.2401   -7.0579    1.3258 C   0  0  0  0  0  0  0  0  0  0  0  0
    4.6190   -6.9737    0.6313 C   0  0  2  0  0  0  0  0  0  0  0  0
    5.7187   -7.4900    1.5648 C   0  0  0  0  0  0  0  0  0  0  0  0
    4.9069   -5.5330    0.2559 C   0  0  0  0  0  0  0  0  0  0  0  0
    3.5110   -4.7416    2.3286 C   0  0  0  0  0  0  0  0  0  0  0  0
    3.0533   -2.9217   -0.2517 C   0  0  0  0  0  0  0  0  0  0  0  0
    3.0178   -3.0223   -1.7839 C   0  0  0  0  0  0  0  0  0  0  0  0
    4.1902   -2.6330   -4.2642 H   0  0  0  0  0  0  0  0  0  0  0  0
    3.7050   -0.9367   -4.4603 H   0  0  0  0  0  0  0  0  0  0  0  0
    2.4779   -2.2072   -4.3196 H   0  0  0  0  0  0  0  0  0  0  0  0
    2.6809   -0.9647   -2.1938 H   0  0  0  0  0  0  0  0  0  0  0  0
    5.5707   -1.9448   -2.2262 H   0  0  0  0  0  0  0  0  0  0  0  0
    5.0362   -0.2691   -2.3071 H   0  0  0  0  0  0  0  0  0  0  0  0
    5.7863   -0.8627   -0.0421 H   0  0  0  0  0  0  0  0  0  0  0  0
    4.1087   -0.4199   -0.0034 H   0  0  0  0  0  0  0  0  0  0  0  0
    6.9695   -5.0882    2.0329 H   0  0  0  0  0  0  0  0  0  0  0  0
    6.0354   -4.5878    3.4066 H   0  0  0  0  0  0  0  0  0  0  0  0
    6.4968   -7.0127    3.5206 H   0  0  0  0  0  0  0  0  0  0  0  0
    4.1401   -7.8025    3.8555 H   0  0  0  0  0  0  0  0  0  0  0  0
    4.3551   -6.1795    4.4825 H   0  0  0  0  0  0  0  0  0  0  0  0
    2.2816   -6.3359    3.1202 H   0  0  0  0  0  0  0  0  0  0  0  0
    2.9866   -8.1131    1.5270 H   0  0  0  0  0  0  0  0  0  0  0  0
    2.4626   -6.6924    0.6577 H   0  0  0  0  0  0  0  0  0  0  0  0
    4.6038   -7.5682   -0.2789 H   0  0  0  0  0  0  0  0  0  0  0  0
    6.6855   -7.4023    1.0691 H   0  0  0  0  0  0  0  0  0  0  0  0
    5.5718   -8.5551    1.7876 H   0  0  0  0  0  0  0  0  0  0  0  0
    4.1548   -5.2601   -0.4774 H   0  0  0  0  0  0  0  0  0  0  0  0
    5.8564   -5.4237   -0.2730 H   0  0  0  0  0  0  0  0  0  0  0  0
    3.6184   -4.1923    3.2836 H   0  0  0  0  0  0  0  0  0  0  0  0
    2.6256   -4.3367    1.8475 H   0  0  0  0  0  0  0  0  0  0  0  0
    2.6921   -3.8813    0.0816 H   0  0  0  0  0  0  0  0  0  0  0  0
    2.3125   -2.1977    0.1088 H   0  0  0  0  0  0  0  0  0  0  0  0
    2.0164   -3.3093   -2.0969 H   0  0  0  0  0  0  0  0  0  0  0  0
    3.6858   -3.8171   -2.1079 H   0  0  0  0  0  0  0  0  0  0  0  0
  1  2  1  0
  1 20  1  0
  1 21  1  0
  1 22  1  0
  2 19  1  0
  2  3  1  0
  2 23  1  0
  3  4  1  0
  3 24  1  0
  3 25  1  0
  4  5  1  0
  4 26  1  0
  4 27  1  0
  5  6  1  0
  5 18  1  0
  6  7  2  0
  8  6  1  6
  8 16  1  0
  8 17  1  0
  8  9  1  0
  9 10  1  0
  9 28  1  0
  9 29  1  0
 10 15  1  0
 10 11  1  0
 10 30  1  1
 11 12  1  0
 11 31  1  0
 11 32  1  0
 12 13  1  0
 12 17  1  0
 12 33  1  1
 13 14  1  0
 13 34  1  0
 13 35  1  0
 14 15  1  0
 14 16  1  0
 14 36  1  6
 15 37  1  0
 15 38  1  0
 16 39  1  0
 16 40  1  0
 17 41  1  0
 17 42  1  0
 18 19  1  0
 18 43  1  0
 18 44  1  0
 19 45  1  0
 19 46  1  0
M  END
>  <i_m_ct_stereo_status>  (116) 
1

>  <s_m_source_file>  (116) 
/var/tmp/pbs.5076255.sched01/tmp68k5m_u8/43t0xmz28c.sdf

>  <i_m_source_file_index>  (116) 
7

>  <i_lp_mmshare_version>  (116) 
48012

>  <i_f3d_flags>  (116) 
0

>  <s_epik_input>  (116) 
W0NIM11bQ0hdMVtDSDJdW0NIMl1OKFtDSDJdW0NIMl0xKUMoPU8pQzIzW0NIMl1bQ0BIXTRbQ0gyXVtDQEBIXShbQ0gyXTMpW0NIMl1bQ0BIXShbQ0gyXTQpW0NIMl0y

>  <s_epik_cmdline>  (116) 
J2VwaWtfcHl0aG9uJywgJy1waHQnLCAnMi4wJywgJy1waCcsICc3LjAnLCAnLXRuJywgJzgnLCAnLW1hJywgJzIwMCcsICctaW1hZScsICc8aW5maWxlLm1hZT4nLCAnLW9tYWUnLCAnPG91dGZpbGUubWFlPic=

>  <r_lp_tautomer_probability>  (116) 
1

>  <r_epik_Ionization_Penalty>  (116) 
8.02042e-07

>  <r_epik_Ionization_Penalty_Charging>  (116) 
0

>  <r_epik_Ionization_Penalty_Neutral>  (116) 
8.02042e-07

>  <r_epik_State_Penalty>  (116) 
-0

>  <r_epik_Charging_Adjusted_Penalty>  (116) 
0

>  <i_epik_Tot_Q>  (116) 
0

>  <i_epik_Tot_abs_Q>  (116) 
0

>  <s_lp_Force_Field>  (116) 
OPLS3e

>  <r_lp_Energy>  (116) 
18.7065

>  <b_lp_Chiralities_Consistent>  (116) 
1

>  <s_lp_Variant>  (116) 
32:0-1

>  <s_i_glide_gridfile>  (116) 
pfpi4k_grid

>  <i_i_glide_lignum>  (116) 
7

>  <i_i_glide_rotatable_bonds>  (116) 
2

>  <r_i_docking_score>  (116) 
-2.99394

>  <r_i_glide_ligand_efficiency>  (116) 
-0.157576

>  <r_i_glide_ligand_efficiency_sa>  (116) 
-0.420476

>  <r_i_glide_ligand_efficiency_ln>  (116) 
-0.759028

>  <r_i_glide_gscore>  (116) 
-2.99394

>  <r_i_glide_lipo>  (116) 
-0.471498

>  <r_i_glide_hbond>  (116) 
0

>  <r_i_glide_metal>  (116) 
-0

>  <r_i_glide_rewards>  (116) 
-1.67996

>  <r_i_glide_evdw>  (116) 
-24.2212

>  <r_i_glide_ecoul>  (116) 
-0.96777

>  <r_i_glide_erotb>  (116) 
0.518675

>  <r_i_glide_esite>  (116) 
-0.0049281

>  <r_i_glide_emodel>  (116) 
-29.0585

>  <r_i_glide_energy>  (116) 
-25.1889

>  <r_i_glide_einternal>  (116) 
0.661796

>  <r_i_glide_intrahb_reward>  (116) 
-0

>  <i_i_glide_confnum>  (116) 
4

>  <i_i_glide_posenum>  (116) 
1

>  <r_i_glide_eff_state_penalty>  (116) 
0

>  <ligand_id>  (116) 
32

>  <original_smiles>  (116) 
CC1CCN(C(=O)C23CC4CC(CC(C4)C2)C3)CC1

>  <smiles>  (116) 
[H]C([H])([H])C1([H])C([H])([H])C([H])([H])N(C(=O)C23C([H])([H])C4([H])C([H])([H])C([H])(C([H])([H])C([H])(C4([H])[H])C2([H])[H])C3([H])[H])C([H])([H])C1([H])[H]

$$$$
32:0:2
     RDKit          3D

 46 49  0  0  1  0  0  0  0  0999 V2000
    3.0623   -2.0310   -3.8893 C   0  0  0  0  0  0  0  0  0  0  0  0
    4.2138   -1.8735   -2.9004 C   0  0  0  0  0  0  0  0  0  0  0  0
    5.1770   -3.0684   -2.9307 C   0  0  0  0  0  0  0  0  0  0  0  0
    6.2733   -2.9649   -1.8543 C   0  0  0  0  0  0  0  0  0  0  0  0
    5.6422   -2.8295   -0.5151 N   0  0  0  0  0  0  0  0  0  0  0  0
    5.9802   -3.6696    0.5013 C   0  0  0  0  0  0  0  0  0  0  0  0
    6.9425   -4.4255    0.4365 O   0  0  0  0  0  0  0  0  0  0  0  0
    5.0513   -3.7802    1.7750 C   0  0  2  0  0  0  0  0  0  0  0  0
    5.5596   -4.9308    2.7182 C   0  0  0  0  0  0  0  0  0  0  0  0
    4.6092   -5.0865    3.9380 C   0  0  1  0  0  0  0  0  0  0  0  0
    4.5436   -3.7621    4.7305 C   0  0  0  0  0  0  0  0  0  0  0  0
    4.0273   -2.6553    3.8018 C   0  0  2  0  0  0  0  0  0  0  0  0
    2.6175   -3.0269    3.2644 C   0  0  0  0  0  0  0  0  0  0  0  0
    2.6884   -4.3639    2.5043 C   0  0  2  0  0  0  0  0  0  0  0  0
    3.2122   -5.4780    3.4223 C   0  0  0  0  0  0  0  0  0  0  0  0
    3.6296   -4.2097    1.3028 C   0  0  0  0  0  0  0  0  0  0  0  0
    5.0428   -2.4832    2.6591 C   0  0  0  0  0  0  0  0  0  0  0  0
    4.7736   -1.6357   -0.4735 C   0  0  0  0  0  0  0  0  0  0  0  0
    3.6617   -1.7196   -1.4994 C   0  0  0  0  0  0  0  0  0  0  0  0
    2.4813   -2.9328   -3.6756 H   0  0  0  0  0  0  0  0  0  0  0  0
    3.4506   -2.0928   -4.9012 H   0  0  0  0  0  0  0  0  0  0  0  0
    2.3911   -1.1724   -3.8363 H   0  0  0  0  0  0  0  0  0  0  0  0
    4.7595   -0.9548   -3.1199 H   0  0  0  0  0  0  0  0  0  0  0  0
    4.6219   -3.9957   -2.7875 H   0  0  0  0  0  0  0  0  0  0  0  0
    5.6327   -3.1349   -3.9125 H   0  0  0  0  0  0  0  0  0  0  0  0
    6.9083   -3.8465   -1.9351 H   0  0  0  0  0  0  0  0  0  0  0  0
    6.9264   -2.1117   -2.0379 H   0  0  0  0  0  0  0  0  0  0  0  0
    5.6438   -5.8913    2.2007 H   0  0  0  0  0  0  0  0  0  0  0  0
    6.5659   -4.7128    3.0800 H   0  0  0  0  0  0  0  0  0  0  0  0
    4.9854   -5.8667    4.5985 H   0  0  0  0  0  0  0  0  0  0  0  0
    3.9000   -3.8427    5.6142 H   0  0  0  0  0  0  0  0  0  0  0  0
    5.5406   -3.4799    5.0789 H   0  0  0  0  0  0  0  0  0  0  0  0
    3.9629   -1.7080    4.3325 H   0  0  0  0  0  0  0  0  0  0  0  0
    1.8957   -3.0942    4.0868 H   0  0  0  0  0  0  0  0  0  0  0  0
    2.2403   -2.2448    2.6035 H   0  0  0  0  0  0  0  0  0  0  0  0
    1.6994   -4.6283    2.1367 H   0  0  0  0  0  0  0  0  0  0  0  0
    3.2712   -6.4126    2.8678 H   0  0  0  0  0  0  0  0  0  0  0  0
    2.5234   -5.6445    4.2525 H   0  0  0  0  0  0  0  0  0  0  0  0
    3.1843   -3.4515    0.6773 H   0  0  0  0  0  0  0  0  0  0  0  0
    3.6486   -5.1216    0.6931 H   0  0  0  0  0  0  0  0  0  0  0  0
    6.0539   -2.2981    3.0390 H   0  0  0  0  0  0  0  0  0  0  0  0
    4.7459   -1.5290    2.2247 H   0  0  0  0  0  0  0  0  0  0  0  0
    4.1286   -1.5321    0.3856 H   0  0  0  0  0  0  0  0  0  0  0  0
    5.3659   -0.7187   -0.5591 H   0  0  0  0  0  0  0  0  0  0  0  0
    3.0330   -0.8368   -1.4045 H   0  0  0  0  0  0  0  0  0  0  0  0
    3.0011   -2.5575   -1.2747 H   0  0  0  0  0  0  0  0  0  0  0  0
  1  2  1  0
  1 20  1  0
  1 21  1  0
  1 22  1  0
  2 19  1  0
  2  3  1  0
  2 23  1  0
  3  4  1  0
  3 24  1  0
  3 25  1  0
  4  5  1  0
  4 26  1  0
  4 27  1  0
  5  6  1  0
  5 18  1  0
  6  7  2  0
  8  6  1  6
  8 16  1  0
  8 17  1  0
  8  9  1  0
  9 10  1  0
  9 28  1  0
  9 29  1  0
 10 15  1  0
 10 11  1  0
 10 30  1  1
 11 12  1  0
 11 31  1  0
 11 32  1  0
 12 13  1  0
 12 17  1  0
 12 33  1  1
 13 14  1  0
 13 34  1  0
 13 35  1  0
 14 15  1  0
 14 16  1  0
 14 36  1  6
 15 37  1  0
 15 38  1  0
 16 39  1  0
 16 40  1  0
 17 41  1  0
 17 42  1  0
 18 19  1  0
 18 43  1  0
 18 44  1  0
 19 45  1  0
 19 46  1  0
M  END
>  <i_m_ct_stereo_status>  (117) 
1

>  <s_m_source_file>  (117) 
/var/tmp/pbs.5076255.sched01/tmp68k5m_u8/43t0xmz28c.sdf

>  <i_m_source_file_index>  (117) 
7

>  <i_lp_mmshare_version>  (117) 
48012

>  <i_f3d_flags>  (117) 
0

>  <s_epik_input>  (117) 
W0NIM11bQ0hdMVtDSDJdW0NIMl1OKFtDSDJdW0NIMl0xKUMoPU8pQzIzW0NIMl1bQ0BIXTRbQ0gyXVtDQEBIXShbQ0gyXTMpW0NIMl1bQ0BIXShbQ0gyXTQpW0NIMl0y

>  <s_epik_cmdline>  (117) 
J2VwaWtfcHl0aG9uJywgJy1waHQnLCAnMi4wJywgJy1waCcsICc3LjAnLCAnLXRuJywgJzgnLCAnLW1hJywgJzIwMCcsICctaW1hZScsICc8aW5maWxlLm1hZT4nLCAnLW9tYWUnLCAnPG91dGZpbGUubWFlPic=

>  <r_lp_tautomer_probability>  (117) 
1

>  <r_epik_Ionization_Penalty>  (117) 
8.02042e-07

>  <r_epik_Ionization_Penalty_Charging>  (117) 
0

>  <r_epik_Ionization_Penalty_Neutral>  (117) 
8.02042e-07

>  <r_epik_State_Penalty>  (117) 
-0

>  <r_epik_Charging_Adjusted_Penalty>  (117) 
0

>  <i_epik_Tot_Q>  (117) 
0

>  <i_epik_Tot_abs_Q>  (117) 
0

>  <s_lp_Force_Field>  (117) 
OPLS3e

>  <r_lp_Energy>  (117) 
18.7065

>  <b_lp_Chiralities_Consistent>  (117) 
1

>  <s_lp_Variant>  (117) 
32:0-1

>  <s_i_glide_gridfile>  (117) 
pfpi4k_grid

>  <i_i_glide_lignum>  (117) 
7

>  <i_i_glide_rotatable_bonds>  (117) 
2

>  <r_i_docking_score>  (117) 
-2.89047

>  <r_i_glide_ligand_efficiency>  (117) 
-0.15213

>  <r_i_glide_ligand_efficiency_sa>  (117) 
-0.405944

>  <r_i_glide_ligand_efficiency_ln>  (117) 
-0.732797

>  <r_i_glide_gscore>  (117) 
-2.89047

>  <r_i_glide_lipo>  (117) 
-0.547321

>  <r_i_glide_hbond>  (117) 
0

>  <r_i_glide_metal>  (117) 
-0

>  <r_i_glide_rewards>  (117) 
-1.73895

>  <r_i_glide_evdw>  (117) 
-21.7341

>  <r_i_glide_ecoul>  (117) 
-0.241148

>  <r_i_glide_erotb>  (117) 
0.518675

>  <r_i_glide_esite>  (117) 
0

>  <r_i_glide_emodel>  (117) 
-25.0531

>  <r_i_glide_energy>  (117) 
-21.9752

>  <r_i_glide_einternal>  (117) 
0.825619

>  <r_i_glide_intrahb_reward>  (117) 
-0

>  <i_i_glide_confnum>  (117) 
4

>  <i_i_glide_posenum>  (117) 
15

>  <r_i_glide_eff_state_penalty>  (117) 
0

>  <ligand_id>  (117) 
32

>  <original_smiles>  (117) 
CC1CCN(C(=O)C23CC4CC(CC(C4)C2)C3)CC1

>  <smiles>  (117) 
[H]C([H])([H])C1([H])C([H])([H])C([H])([H])N(C(=O)C23C([H])([H])C4([H])C([H])([H])C([H])(C([H])([H])C([H])(C4([H])[H])C2([H])[H])C3([H])[H])C([H])([H])C1([H])[H]

$$$$
33:0:0
     RDKit          3D

 31 34  0  0  1  0  0  0  0  0999 V2000
    2.3273   -5.4480    1.6144 C   0  0  0  0  0  0  0  0  0  0  0  0
    3.4491   -4.5361    1.1774 C   0  0  0  0  0  0  0  0  0  0  0  0
    4.3436   -4.1462    2.0119 N   0  0  0  0  0  0  0  0  0  0  0  0
    5.8040   -3.0580    1.9853 S   0  0  0  0  0  0  0  0  0  0  0  0
    5.8152   -2.6921    0.2814 C   0  0  0  0  0  0  0  0  0  0  0  0
    4.6379   -2.2463   -0.1435 C   0  0  0  0  0  0  0  0  0  0  0  0
    3.8563   -1.3054    0.5937 C   0  0  0  0  0  0  0  0  0  0  0  0
    3.3462   -0.4449    1.1765 N   0  0  0  0  0  0  0  0  0  0  0  0
    4.0240   -3.3513   -0.9561 C   0  0  1  0  0  0  0  0  0  0  0  0
    3.1901   -2.8597   -2.1468 C   0  0  0  0  0  0  0  0  0  0  0  0
    4.1262   -2.7465   -3.3242 C   0  0  2  0  0  0  0  0  0  0  0  0
    4.0331   -1.3901   -3.9992 C   0  0  0  0  0  0  0  0  0  0  0  0
    4.6253   -3.9459   -4.0982 C   0  0  0  0  0  0  0  0  0  0  0  0
    5.4156   -3.4334   -2.9382 C   0  0  2  0  0  0  0  0  0  0  0  0
    5.2510   -4.0680   -1.5662 C   0  0  1  0  0  0  0  0  0  0  0  0
    6.3862   -3.7905   -0.5775 C   0  0  0  0  0  0  0  0  0  0  0  0
    3.2367   -4.2651   -0.1926 O   0  0  0  0  0  0  0  0  0  0  0  0
    2.5707   -5.9538    2.5509 H   0  0  0  0  0  0  0  0  0  0  0  0
    2.1413   -6.1936    0.8477 H   0  0  0  0  0  0  0  0  0  0  0  0
    1.4260   -4.8641    1.7676 H   0  0  0  0  0  0  0  0  0  0  0  0
    2.5354   -3.6865   -2.4058 H   0  0  0  0  0  0  0  0  0  0  0  0
    2.5546   -1.9854   -1.9740 H   0  0  0  0  0  0  0  0  0  0  0  0
    4.8520   -1.2430   -4.6990 H   0  0  0  0  0  0  0  0  0  0  0  0
    4.0588   -0.5939   -3.2532 H   0  0  0  0  0  0  0  0  0  0  0  0
    3.0918   -1.3196   -4.5476 H   0  0  0  0  0  0  0  0  0  0  0  0
    4.2156   -4.9308   -3.9236 H   0  0  0  0  0  0  0  0  0  0  0  0
    5.0366   -3.8387   -5.0940 H   0  0  0  0  0  0  0  0  0  0  0  0
    6.3161   -2.8456   -3.1039 H   0  0  0  0  0  0  0  0  0  0  0  0
    5.0479   -5.1348   -1.6899 H   0  0  0  0  0  0  0  0  0  0  0  0
    7.3117   -3.4591   -1.0487 H   0  0  0  0  0  0  0  0  0  0  0  0
    6.6116   -4.6762    0.0205 H   0  0  0  0  0  0  0  0  0  0  0  0
  1  2  1  0
  1 18  1  0
  1 19  1  0
  1 20  1  0
  2 17  1  0
  2  3  2  0
  3  4  1  0
  4  5  1  0
  5 16  1  0
  5  6  2  0
  6  7  1  0
  6  9  1  0
  7  8  3  0
  9 15  1  0
  9 10  1  0
  9 17  1  1
 10 11  1  0
 10 21  1  0
 10 22  1  0
 11 14  1  0
 11 12  1  6
 11 13  1  0
 12 23  1  0
 12 24  1  0
 12 25  1  0
 13 14  1  0
 13 26  1  0
 13 27  1  0
 14 15  1  0
 14 28  1  6
 15 16  1  0
 15 29  1  6
 16 30  1  0
 16 31  1  0
M  END
>  <i_m_ct_stereo_status>  (118) 
1

>  <s_m_source_file>  (118) 
/var/tmp/pbs.5076255.sched01/tmp68k5m_u8/43t0xmz28c.sdf

>  <i_m_source_file_index>  (118) 
8

>  <i_lp_mmshare_version>  (118) 
48012

>  <i_f3d_flags>  (118) 
0

>  <s_epik_input>  (118) 
W0NIM11DKE8xKT1OU0MoPUMyQyNOKVtDSDJdW0NAQEhdKFtDQEBdMTIzKVtDQEBIXTRbQ0BAXShbQ0gyXTMpKFtDSDNdKVtDSDJdNA==

>  <s_epik_cmdline>  (118) 
J2VwaWtfcHl0aG9uJywgJy1waHQnLCAnMi4wJywgJy1waCcsICc3LjAnLCAnLXRuJywgJzgnLCAnLW1hJywgJzIwMCcsICctaW1hZScsICc8aW5maWxlLm1hZT4nLCAnLW9tYWUnLCAnPG91dGZpbGUubWFlPic=

>  <r_lp_tautomer_probability>  (118) 
1

>  <r_epik_Ionization_Penalty>  (118) 
0

>  <r_epik_Ionization_Penalty_Charging>  (118) 
0

>  <r_epik_Ionization_Penalty_Neutral>  (118) 
0

>  <r_epik_State_Penalty>  (118) 
-0

>  <r_epik_Charging_Adjusted_Penalty>  (118) 
0

>  <i_epik_Tot_Q>  (118) 
0

>  <i_epik_Tot_abs_Q>  (118) 
0

>  <s_epik_Chemistry_Notes>  (118) 
This compound has an imine and may undergo hydrolysis.

>  <s_lp_Force_Field>  (118) 
OPLS3e

>  <r_lp_Energy>  (118) 
52.5725

>  <b_lp_Chiralities_Consistent>  (118) 
1

>  <s_lp_Variant>  (118) 
33:0-1

>  <s_i_glide_gridfile>  (118) 
pfpi4k_grid

>  <i_i_glide_lignum>  (118) 
8

>  <i_i_glide_rotatable_bonds>  (118) 
1

>  <r_i_docking_score>  (118) 
-3.35026

>  <r_i_glide_ligand_efficiency>  (118) 
-0.197074

>  <r_i_glide_ligand_efficiency_sa>  (118) 
-0.506733

>  <r_i_glide_ligand_efficiency_ln>  (118) 
-0.874008

>  <r_i_glide_gscore>  (118) 
-3.35026

>  <r_i_glide_lipo>  (118) 
-0.576194

>  <r_i_glide_hbond>  (118) 
0

>  <r_i_glide_metal>  (118) 
-0

>  <r_i_glide_rewards>  (118) 
-1.73055

>  <r_i_glide_evdw>  (118) 
-19.5161

>  <r_i_glide_ecoul>  (118) 
-0.21463

>  <r_i_glide_erotb>  (118) 
0

>  <r_i_glide_esite>  (118) 
-0.0355166

>  <r_i_glide_emodel>  (118) 
-22.7167

>  <r_i_glide_energy>  (118) 
-19.7308

>  <r_i_glide_einternal>  (118) 
-0.296129

>  <r_i_glide_intrahb_reward>  (118) 
-0

>  <i_i_glide_confnum>  (118) 
1

>  <i_i_glide_posenum>  (118) 
39

>  <r_i_glide_eff_state_penalty>  (118) 
0

>  <ligand_id>  (118) 
33

>  <original_smiles>  (118) 
CC1=NSC2=C(C#N)C3(CC4(C)CC4C3C2)O1

>  <smiles>  (118) 
[H]C([H])([H])C1=NSC2=C(C#N)C3(O1)C([H])([H])C1(C([H])([H])[H])C([H])([H])C1([H])C3([H])C2([H])[H]

$$$$
33:0:1
     RDKit          3D

 31 34  0  0  1  0  0  0  0  0999 V2000
    2.5497   -4.9986    1.6121 C   0  0  0  0  0  0  0  0  0  0  0  0
    3.7327   -4.3908    0.8859 C   0  0  0  0  0  0  0  0  0  0  0  0
    4.9331   -4.6220    1.2961 N   0  0  0  0  0  0  0  0  0  0  0  0
    6.5903   -4.1290    0.7774 S   0  0  0  0  0  0  0  0  0  0  0  0
    6.1858   -3.1580   -0.6160 C   0  0  0  0  0  0  0  0  0  0  0  0
    5.2487   -2.2491   -0.3644 C   0  0  0  0  0  0  0  0  0  0  0  0
    5.2272   -1.4093    0.7774 C   0  0  0  0  0  0  0  0  0  0  0  0
    5.2997   -0.6490    1.6569 N   0  0  0  0  0  0  0  0  0  0  0  0
    3.9884   -2.7454   -1.0017 C   0  0  1  0  0  0  0  0  0  0  0  0
    3.0523   -1.7097   -1.6060 C   0  0  0  0  0  0  0  0  0  0  0  0
    3.4765   -1.4609   -3.0333 C   0  0  2  0  0  0  0  0  0  0  0  0
    3.7138   -0.0239   -3.3804 C   0  0  0  0  0  0  0  0  0  0  0  0
    3.1127   -2.4303   -4.1292 C   0  0  0  0  0  0  0  0  0  0  0  0
    4.4213   -2.5600   -3.3929 C   0  0  2  0  0  0  0  0  0  0  0  0
    4.4892   -3.5030   -2.2176 C   0  0  1  0  0  0  0  0  0  0  0  0
    5.8549   -3.9810   -1.8286 C   0  0  0  0  0  0  0  0  0  0  0  0
    3.2263   -3.6410   -0.1678 O   0  0  0  0  0  0  0  0  0  0  0  0
    2.8451   -5.8419    2.2380 H   0  0  0  0  0  0  0  0  0  0  0  0
    1.8183   -5.3557    0.8909 H   0  0  0  0  0  0  0  0  0  0  0  0
    2.0685   -4.2517    2.2429 H   0  0  0  0  0  0  0  0  0  0  0  0
    2.1213   -2.2450   -1.7300 H   0  0  0  0  0  0  0  0  0  0  0  0
    2.9306   -0.8006   -1.0041 H   0  0  0  0  0  0  0  0  0  0  0  0
    4.2187    0.0598   -4.3370 H   0  0  0  0  0  0  0  0  0  0  0  0
    4.3119    0.4480   -2.6113 H   0  0  0  0  0  0  0  0  0  0  0  0
    2.7615    0.4904   -3.4666 H   0  0  0  0  0  0  0  0  0  0  0  0
    2.3593   -3.2019   -3.9353 H   0  0  0  0  0  0  0  0  0  0  0  0
    3.1544   -2.0250   -5.1173 H   0  0  0  0  0  0  0  0  0  0  0  0
    5.3419   -2.2804   -3.8950 H   0  0  0  0  0  0  0  0  0  0  0  0
    3.7887   -4.2598   -2.4661 H   0  0  0  0  0  0  0  0  0  0  0  0
    6.6018   -3.8569   -2.6157 H   0  0  0  0  0  0  0  0  0  0  0  0
    5.7226   -5.0179   -1.5167 H   0  0  0  0  0  0  0  0  0  0  0  0
  1  2  1  0
  1 18  1  0
  1 19  1  0
  1 20  1  0
  2 17  1  0
  2  3  2  0
  3  4  1  0
  4  5  1  0
  5 16  1  0
  5  6  2  0
  6  7  1  0
  6  9  1  0
  7  8  3  0
  9 15  1  0
  9 10  1  0
  9 17  1  1
 10 11  1  0
 10 21  1  0
 10 22  1  0
 11 14  1  0
 11 12  1  6
 11 13  1  0
 12 23  1  0
 12 24  1  0
 12 25  1  0
 13 14  1  0
 13 26  1  0
 13 27  1  0
 14 15  1  0
 14 28  1  6
 15 16  1  0
 15 29  1  6
 16 30  1  0
 16 31  1  0
M  END
>  <i_m_ct_stereo_status>  (119) 
1

>  <s_m_source_file>  (119) 
/var/tmp/pbs.5076255.sched01/tmp68k5m_u8/43t0xmz28c.sdf

>  <i_m_source_file_index>  (119) 
8

>  <i_lp_mmshare_version>  (119) 
48012

>  <i_f3d_flags>  (119) 
0

>  <s_epik_input>  (119) 
W0NIM11DKE8xKT1OU0MoPUMyQyNOKVtDSDJdW0NAQEhdKFtDQEBdMTIzKVtDQEBIXTRbQ0BAXShbQ0gyXTMpKFtDSDNdKVtDSDJdNA==

>  <s_epik_cmdline>  (119) 
J2VwaWtfcHl0aG9uJywgJy1waHQnLCAnMi4wJywgJy1waCcsICc3LjAnLCAnLXRuJywgJzgnLCAnLW1hJywgJzIwMCcsICctaW1hZScsICc8aW5maWxlLm1hZT4nLCAnLW9tYWUnLCAnPG91dGZpbGUubWFlPic=

>  <r_lp_tautomer_probability>  (119) 
1

>  <r_epik_Ionization_Penalty>  (119) 
0

>  <r_epik_Ionization_Penalty_Charging>  (119) 
0

>  <r_epik_Ionization_Penalty_Neutral>  (119) 
0

>  <r_epik_State_Penalty>  (119) 
-0

>  <r_epik_Charging_Adjusted_Penalty>  (119) 
0

>  <i_epik_Tot_Q>  (119) 
0

>  <i_epik_Tot_abs_Q>  (119) 
0

>  <s_epik_Chemistry_Notes>  (119) 
This compound has an imine and may undergo hydrolysis.

>  <s_lp_Force_Field>  (119) 
OPLS3e

>  <r_lp_Energy>  (119) 
52.5725

>  <b_lp_Chiralities_Consistent>  (119) 
1

>  <s_lp_Variant>  (119) 
33:0-1

>  <s_i_glide_gridfile>  (119) 
pfpi4k_grid

>  <i_i_glide_lignum>  (119) 
8

>  <i_i_glide_rotatable_bonds>  (119) 
1

>  <r_i_docking_score>  (119) 
-3.13586

>  <r_i_glide_ligand_efficiency>  (119) 
-0.184462

>  <r_i_glide_ligand_efficiency_sa>  (119) 
-0.474305

>  <r_i_glide_ligand_efficiency_ln>  (119) 
-0.818076

>  <r_i_glide_gscore>  (119) 
-3.13586

>  <r_i_glide_lipo>  (119) 
-0.426832

>  <r_i_glide_hbond>  (119) 
0

>  <r_i_glide_metal>  (119) 
-0

>  <r_i_glide_rewards>  (119) 
-1.84863

>  <r_i_glide_evdw>  (119) 
-13.892

>  <r_i_glide_ecoul>  (119) 
-1.10528

>  <r_i_glide_erotb>  (119) 
0

>  <r_i_glide_esite>  (119) 
0

>  <r_i_glide_emodel>  (119) 
-17.4729

>  <r_i_glide_energy>  (119) 
-14.9973

>  <r_i_glide_einternal>  (119) 
-0.296331

>  <r_i_glide_intrahb_reward>  (119) 
-0

>  <i_i_glide_confnum>  (119) 
1

>  <i_i_glide_posenum>  (119) 
3

>  <r_i_glide_eff_state_penalty>  (119) 
0

>  <ligand_id>  (119) 
33

>  <original_smiles>  (119) 
CC1=NSC2=C(C#N)C3(CC4(C)CC4C3C2)O1

>  <smiles>  (119) 
[H]C([H])([H])C1=NSC2=C(C#N)C3(O1)C([H])([H])C1(C([H])([H])[H])C([H])([H])C1([H])C3([H])C2([H])[H]

$$$$
33:0:2
     RDKit          3D

 31 34  0  0  1  0  0  0  0  0999 V2000
    2.7401   -3.7672   -3.9038 C   0  0  0  0  0  0  0  0  0  0  0  0
    3.4111   -2.9650   -2.8282 C   0  0  0  0  0  0  0  0  0  0  0  0
    3.8712   -1.8148   -3.1600 N   0  0  0  0  0  0  0  0  0  0  0  0
    4.6264   -0.5193   -2.2943 S   0  0  0  0  0  0  0  0  0  0  0  0
    4.7598   -1.1751   -0.6719 C   0  0  0  0  0  0  0  0  0  0  0  0
    5.2380   -2.4082   -0.6767 C   0  0  0  0  0  0  0  0  0  0  0  0
    6.3865   -2.8015   -1.4119 C   0  0  0  0  0  0  0  0  0  0  0  0
    7.3999   -3.0273   -1.9116 N   0  0  0  0  0  0  0  0  0  0  0  0
    4.0900   -3.3385   -0.4386 C   0  0  1  0  0  0  0  0  0  0  0  0
    4.4268   -4.6169    0.3416 C   0  0  0  0  0  0  0  0  0  0  0  0
    4.2330   -4.2960    1.8027 C   0  0  2  0  0  0  0  0  0  0  0  0
    5.4231   -4.6657    2.6560 C   0  0  0  0  0  0  0  0  0  0  0  0
    2.8697   -4.2077    2.4417 C   0  0  0  0  0  0  0  0  0  0  0  0
    3.5106   -2.9751    1.8810 C   0  0  2  0  0  0  0  0  0  0  0  0
    3.1662   -2.5169    0.4767 C   0  0  1  0  0  0  0  0  0  0  0  0
    3.5105   -1.0635    0.1606 C   0  0  0  0  0  0  0  0  0  0  0  0
    3.3741   -3.6718   -1.6314 O   0  0  0  0  0  0  0  0  0  0  0  0
    2.3843   -3.1274   -4.7133 H   0  0  0  0  0  0  0  0  0  0  0  0
    1.8804   -4.2620   -3.4468 H   0  0  0  0  0  0  0  0  0  0  0  0
    3.4350   -4.5097   -4.3127 H   0  0  0  0  0  0  0  0  0  0  0  0
    3.6394   -5.3224    0.0997 H   0  0  0  0  0  0  0  0  0  0  0  0
    5.3725   -5.1062    0.1047 H   0  0  0  0  0  0  0  0  0  0  0  0
    5.3233   -4.2294    3.6535 H   0  0  0  0  0  0  0  0  0  0  0  0
    6.3394   -4.3043    2.1935 H   0  0  0  0  0  0  0  0  0  0  0  0
    5.4849   -5.7508    2.7603 H   0  0  0  0  0  0  0  0  0  0  0  0
    1.9967   -4.5813    1.9069 H   0  0  0  0  0  0  0  0  0  0  0  0
    2.8039   -4.2602    3.5281 H   0  0  0  0  0  0  0  0  0  0  0  0
    3.9499   -2.2418    2.5576 H   0  0  0  0  0  0  0  0  0  0  0  0
    2.1157   -2.7297    0.2671 H   0  0  0  0  0  0  0  0  0  0  0  0
    3.6682   -0.4332    1.0361 H   0  0  0  0  0  0  0  0  0  0  0  0
    2.7193   -0.6410   -0.4432 H   0  0  0  0  0  0  0  0  0  0  0  0
  1  2  1  0
  1 18  1  0
  1 19  1  0
  1 20  1  0
  2 17  1  0
  2  3  2  0
  3  4  1  0
  4  5  1  0
  5 16  1  0
  5  6  2  0
  6  7  1  0
  6  9  1  0
  7  8  3  0
  9 15  1  0
  9 10  1  0
  9 17  1  6
 10 11  1  0
 10 21  1  0
 10 22  1  0
 11 14  1  0
 11 12  1  1
 11 13  1  0
 12 23  1  0
 12 24  1  0
 12 25  1  0
 13 14  1  0
 13 26  1  0
 13 27  1  0
 14 15  1  0
 14 28  1  1
 15 16  1  0
 15 29  1  6
 16 30  1  0
 16 31  1  0
M  END
>  <i_m_ct_stereo_status>  (120) 
1

>  <s_m_source_file>  (120) 
/var/tmp/pbs.5076255.sched01/tmp68k5m_u8/43t0xmz28c.sdf

>  <i_m_source_file_index>  (120) 
8

>  <i_lp_mmshare_version>  (120) 
48012

>  <i_f3d_flags>  (120) 
0

>  <s_epik_input>  (120) 
W0NIM11DKE8xKT1OU0MoPUMyQyNOKVtDSDJdW0NAQEhdKFtDQEBdMTIzKVtDQEBIXTRbQ0BAXShbQ0gyXTMpKFtDSDNdKVtDSDJdNA==

>  <s_epik_cmdline>  (120) 
J2VwaWtfcHl0aG9uJywgJy1waHQnLCAnMi4wJywgJy1waCcsICc3LjAnLCAnLXRuJywgJzgnLCAnLW1hJywgJzIwMCcsICctaW1hZScsICc8aW5maWxlLm1hZT4nLCAnLW9tYWUnLCAnPG91dGZpbGUubWFlPic=

>  <r_lp_tautomer_probability>  (120) 
1

>  <r_epik_Ionization_Penalty>  (120) 
0

>  <r_epik_Ionization_Penalty_Charging>  (120) 
0

>  <r_epik_Ionization_Penalty_Neutral>  (120) 
0

>  <r_epik_State_Penalty>  (120) 
-0

>  <r_epik_Charging_Adjusted_Penalty>  (120) 
0

>  <i_epik_Tot_Q>  (120) 
0

>  <i_epik_Tot_abs_Q>  (120) 
0

>  <s_epik_Chemistry_Notes>  (120) 
This compound has an imine and may undergo hydrolysis.

>  <s_lp_Force_Field>  (120) 
OPLS3e

>  <r_lp_Energy>  (120) 
52.5725

>  <b_lp_Chiralities_Consistent>  (120) 
1

>  <s_lp_Variant>  (120) 
33:0-1

>  <s_i_glide_gridfile>  (120) 
pfpi4k_grid

>  <i_i_glide_lignum>  (120) 
8

>  <i_i_glide_rotatable_bonds>  (120) 
1

>  <r_i_docking_score>  (120) 
-2.71339

>  <r_i_glide_ligand_efficiency>  (120) 
-0.159611

>  <r_i_glide_ligand_efficiency_sa>  (120) 
-0.410405

>  <r_i_glide_ligand_efficiency_ln>  (120) 
-0.707863

>  <r_i_glide_gscore>  (120) 
-2.71339

>  <r_i_glide_lipo>  (120) 
-0.159499

>  <r_i_glide_hbond>  (120) 
0

>  <r_i_glide_metal>  (120) 
-0

>  <r_i_glide_rewards>  (120) 
-1.72957

>  <r_i_glide_evdw>  (120) 
-14.3534

>  <r_i_glide_ecoul>  (120) 
-0.57931

>  <r_i_glide_erotb>  (120) 
0

>  <r_i_glide_esite>  (120) 
-0.0197504

>  <r_i_glide_emodel>  (120) 
-16.9324

>  <r_i_glide_energy>  (120) 
-14.9327

>  <r_i_glide_einternal>  (120) 
-0.301306

>  <r_i_glide_intrahb_reward>  (120) 
-0

>  <i_i_glide_confnum>  (120) 
2

>  <i_i_glide_posenum>  (120) 
7

>  <r_i_glide_eff_state_penalty>  (120) 
0

>  <ligand_id>  (120) 
33

>  <original_smiles>  (120) 
CC1=NSC2=C(C#N)C3(CC4(C)CC4C3C2)O1

>  <smiles>  (120) 
[H]C([H])([H])C1=NSC2=C(C#N)C3(O1)C([H])([H])C1(C([H])([H])[H])C([H])([H])C1([H])C3([H])C2([H])[H]

$$$$
34:0:0
     RDKit          3D

 28 31  0  0  1  0  0  0  0  0999 V2000
   -0.1809   -4.9578    7.0883 Cl  0  0  0  0  0  0  0  0  0  0  0  0
   -0.1513   -3.5068    6.1620 C   0  0  0  0  0  0  0  0  0  0  0  0
   -0.9969   -2.4789    6.4486 N   0  0  0  0  0  0  0  0  0  0  0  0
   -0.7091   -1.5921    5.5012 C   0  0  0  0  0  0  0  0  0  0  0  0
   -1.2501   -0.3851    5.2520 N   0  0  0  0  0  0  0  0  0  0  0  0
   -0.7062    0.3472    4.2747 C   0  0  0  0  0  0  0  0  0  0  0  0
   -1.2440    1.7042    4.0570 C   0  0  0  0  0  0  0  0  0  0  0  0
   -1.3425    2.3677    2.8639 C   0  0  0  0  0  0  0  0  0  0  0  0
   -1.9500    3.6051    3.1928 C   0  0  0  0  0  0  0  0  0  0  0  0
   -2.1760    3.7292    4.4833 N   0  0  0  0  0  0  0  0  0  0  0  0
   -1.7247    2.5753    5.0397 N   0  0  0  0  0  0  0  0  0  0  0  0
   -1.7605    2.4565    6.4558 C   0  0  0  0  0  0  0  0  0  0  0  0
   -2.7898    3.0167    7.1097 N   0  0  0  0  0  0  0  0  0  0  0  0
   -2.8185    2.9396    8.4564 C   0  0  0  0  0  0  0  0  0  0  0  0
   -1.8354    2.2306    9.1715 C   0  0  0  0  0  0  0  0  0  0  0  0
   -0.8015    1.6714    8.4019 C   0  0  0  0  0  0  0  0  0  0  0  0
   -0.7547    1.8171    7.0636 N   0  0  0  0  0  0  0  0  0  0  0  0
    0.3455   -0.1435    3.4451 C   0  0  0  0  0  0  0  0  0  0  0  0
    0.8534   -1.4029    3.6711 C   0  0  0  0  0  0  0  0  0  0  0  0
    0.3241   -2.1065    4.7040 N   0  0  0  0  0  0  0  0  0  0  0  0
    0.6574   -3.3541    5.1220 N   0  0  0  0  0  0  0  0  0  0  0  0
   -1.0335    2.0138    1.8855 H   0  0  0  0  0  0  0  0  0  0  0  0
   -2.2221    4.4250    2.5408 H   0  0  0  0  0  0  0  0  0  0  0  0
   -3.6372    3.4412    8.9564 H   0  0  0  0  0  0  0  0  0  0  0  0
   -1.8771    2.1263   10.2485 H   0  0  0  0  0  0  0  0  0  0  0  0
   -0.0254    1.0611    8.8443 H   0  0  0  0  0  0  0  0  0  0  0  0
    0.7439    0.4568    2.6315 H   0  0  0  0  0  0  0  0  0  0  0  0
    1.6301   -1.8752    3.0758 H   0  0  0  0  0  0  0  0  0  0  0  0
  1  2  1  0
  2 21  2  0
  2  3  1  0
  3  4  2  0
  4 20  1  0
  4  5  1  0
  5  6  2  0
  6  7  1  0
  6 18  1  0
  7 11  1  0
  7  8  2  0
  8  9  1  0
  8 22  1  0
  9 10  2  0
  9 23  1  0
 10 11  1  0
 11 12  1  0
 12 17  1  0
 12 13  2  0
 13 14  1  0
 14 15  2  0
 14 24  1  0
 15 16  1  0
 15 25  1  0
 16 17  2  0
 16 26  1  0
 18 19  2  0
 18 27  1  0
 19 20  1  0
 19 28  1  0
 20 21  1  0
M  END
>  <i_m_ct_stereo_status>  (121) 
1

>  <s_m_source_file>  (121) 
/var/tmp/pbs.5076255.sched01/tmp68k5m_u8/43t0xmz28c.sdf

>  <i_m_source_file_index>  (121) 
9

>  <i_lp_mmshare_version>  (121) 
48012

>  <i_f3d_flags>  (121) 
0

>  <s_epik_input>  (121) 
Q2xjKG4xKW5uKGMxMilbY0hdW2NIXWMobjIpLWMzW2NIXVtjSF1ubjMtYzRuW2NIXVtjSF1bY0hdbjQ=

>  <s_epik_cmdline>  (121) 
J2VwaWtfcHl0aG9uJywgJy1waHQnLCAnMi4wJywgJy1waCcsICc3LjAnLCAnLXRuJywgJzgnLCAnLW1hJywgJzIwMCcsICctaW1hZScsICc8aW5maWxlLm1hZT4nLCAnLW9tYWUnLCAnPG91dGZpbGUubWFlPic=

>  <r_lp_tautomer_probability>  (121) 
1

>  <r_epik_Ionization_Penalty>  (121) 
4.8541e-07

>  <r_epik_Ionization_Penalty_Charging>  (121) 
0

>  <r_epik_Ionization_Penalty_Neutral>  (121) 
4.8541e-07

>  <r_epik_State_Penalty>  (121) 
-0

>  <r_epik_Charging_Adjusted_Penalty>  (121) 
0

>  <i_epik_Tot_Q>  (121) 
0

>  <i_epik_Tot_abs_Q>  (121) 
0

>  <s_lp_Force_Field>  (121) 
OPLS3e

>  <r_lp_Energy>  (121) 
35.6007

>  <b_lp_Chiralities_Consistent>  (121) 
1

>  <s_lp_Variant>  (121) 
34:0-1

>  <s_i_glide_gridfile>  (121) 
pfpi4k_grid

>  <i_i_glide_lignum>  (121) 
9

>  <i_i_glide_rotatable_bonds>  (121) 
2

>  <r_i_docking_score>  (121) 
-3.27326

>  <r_i_glide_ligand_efficiency>  (121) 
-0.15587

>  <r_i_glide_ligand_efficiency_sa>  (121) 
-0.430033

>  <r_i_glide_ligand_efficiency_ln>  (121) 
-0.809308

>  <r_i_glide_gscore>  (121) 
-3.27326

>  <r_i_glide_lipo>  (121) 
-0.0882513

>  <r_i_glide_hbond>  (121) 
0

>  <r_i_glide_metal>  (121) 
-0

>  <r_i_glide_rewards>  (121) 
-1.44583

>  <r_i_glide_evdw>  (121) 
-24.9685

>  <r_i_glide_ecoul>  (121) 
-5.69564

>  <r_i_glide_erotb>  (121) 
0.411471

>  <r_i_glide_esite>  (121) 
-0.0478835

>  <r_i_glide_emodel>  (121) 
-37.0423

>  <r_i_glide_energy>  (121) 
-30.6642

>  <r_i_glide_einternal>  (121) 
1.09368

>  <r_i_glide_intrahb_reward>  (121) 
-0

>  <i_i_glide_confnum>  (121) 
5

>  <i_i_glide_posenum>  (121) 
17

>  <r_i_glide_eff_state_penalty>  (121) 
0

>  <ligand_id>  (121) 
34

>  <original_smiles>  (121) 
Clc1nc2nc(-c3ccnn3-c3ncccn3)ccn2n1

>  <smiles>  (121) 
[H]c1nc(-n2nc([H])c([H])c2-c2nc3nc(Cl)nn3c([H])c2[H])nc([H])c1[H]

$$$$
34:0:1
     RDKit          3D

 28 31  0  0  1  0  0  0  0  0999 V2000
    4.3606   -3.8512   -0.3400 Cl  0  0  0  0  0  0  0  0  0  0  0  0
    3.3591   -4.4333    0.9463 C   0  0  0  0  0  0  0  0  0  0  0  0
    2.9405   -3.5948    1.9368 N   0  0  0  0  0  0  0  0  0  0  0  0
    2.2680   -4.4062    2.7576 C   0  0  0  0  0  0  0  0  0  0  0  0
    1.6562   -4.1554    3.9072 N   0  0  0  0  0  0  0  0  0  0  0  0
    0.9165   -5.0839    4.4992 C   0  0  0  0  0  0  0  0  0  0  0  0
    0.1593   -4.6889    5.7202 C   0  0  0  0  0  0  0  0  0  0  0  0
   -0.2082   -5.5484    6.7282 C   0  0  0  0  0  0  0  0  0  0  0  0
   -0.8900   -4.7260    7.6647 C   0  0  0  0  0  0  0  0  0  0  0  0
   -0.9847   -3.4736    7.2647 N   0  0  0  0  0  0  0  0  0  0  0  0
   -0.3519   -3.4103    6.0652 N   0  0  0  0  0  0  0  0  0  0  0  0
   -0.3649   -2.1276    5.3992 C   0  0  0  0  0  0  0  0  0  0  0  0
   -1.4382   -1.3199    5.5421 N   0  0  0  0  0  0  0  0  0  0  0  0
   -1.4547   -0.1375    4.8625 C   0  0  0  0  0  0  0  0  0  0  0  0
   -0.4378    0.1958    3.9402 C   0  0  0  0  0  0  0  0  0  0  0  0
    0.6207   -0.7178    3.8594 C   0  0  0  0  0  0  0  0  0  0  0  0
    0.6744   -1.7806    4.6623 N   0  0  0  0  0  0  0  0  0  0  0  0
    0.8817   -6.4120    3.9652 C   0  0  0  0  0  0  0  0  0  0  0  0
    1.5855   -6.7214    2.8085 C   0  0  0  0  0  0  0  0  0  0  0  0
    2.2500   -5.6883    2.1977 N   0  0  0  0  0  0  0  0  0  0  0  0
    2.9706   -5.7025    1.0347 N   0  0  0  0  0  0  0  0  0  0  0  0
   -0.0160   -6.6122    6.7952 H   0  0  0  0  0  0  0  0  0  0  0  0
   -1.3399   -4.9869    8.6135 H   0  0  0  0  0  0  0  0  0  0  0  0
   -2.2814    0.5249    5.0656 H   0  0  0  0  0  0  0  0  0  0  0  0
   -0.4469    1.1055    3.3440 H   0  0  0  0  0  0  0  0  0  0  0  0
    1.4300   -0.6259    3.1378 H   0  0  0  0  0  0  0  0  0  0  0  0
    0.3323   -7.2081    4.4800 H   0  0  0  0  0  0  0  0  0  0  0  0
    1.6687   -7.6995    2.3584 H   0  0  0  0  0  0  0  0  0  0  0  0
  1  2  1  0
  2 21  2  0
  2  3  1  0
  3  4  2  0
  4 20  1  0
  4  5  1  0
  5  6  2  0
  6  7  1  0
  6 18  1  0
  7 11  1  0
  7  8  2  0
  8  9  1  0
  8 22  1  0
  9 10  2  0
  9 23  1  0
 10 11  1  0
 11 12  1  0
 12 17  1  0
 12 13  2  0
 13 14  1  0
 14 15  2  0
 14 24  1  0
 15 16  1  0
 15 25  1  0
 16 17  2  0
 16 26  1  0
 18 19  2  0
 18 27  1  0
 19 20  1  0
 19 28  1  0
 20 21  1  0
M  END
>  <i_m_ct_stereo_status>  (122) 
1

>  <s_m_source_file>  (122) 
/var/tmp/pbs.5076255.sched01/tmp68k5m_u8/43t0xmz28c.sdf

>  <i_m_source_file_index>  (122) 
9

>  <i_lp_mmshare_version>  (122) 
48012

>  <i_f3d_flags>  (122) 
0

>  <s_epik_input>  (122) 
Q2xjKG4xKW5uKGMxMilbY0hdW2NIXWMobjIpLWMzW2NIXVtjSF1ubjMtYzRuW2NIXVtjSF1bY0hdbjQ=

>  <s_epik_cmdline>  (122) 
J2VwaWtfcHl0aG9uJywgJy1waHQnLCAnMi4wJywgJy1waCcsICc3LjAnLCAnLXRuJywgJzgnLCAnLW1hJywgJzIwMCcsICctaW1hZScsICc8aW5maWxlLm1hZT4nLCAnLW9tYWUnLCAnPG91dGZpbGUubWFlPic=

>  <r_lp_tautomer_probability>  (122) 
1

>  <r_epik_Ionization_Penalty>  (122) 
4.8541e-07

>  <r_epik_Ionization_Penalty_Charging>  (122) 
0

>  <r_epik_Ionization_Penalty_Neutral>  (122) 
4.8541e-07

>  <r_epik_State_Penalty>  (122) 
-0

>  <r_epik_Charging_Adjusted_Penalty>  (122) 
0

>  <i_epik_Tot_Q>  (122) 
0

>  <i_epik_Tot_abs_Q>  (122) 
0

>  <s_lp_Force_Field>  (122) 
OPLS3e

>  <r_lp_Energy>  (122) 
35.6007

>  <b_lp_Chiralities_Consistent>  (122) 
1

>  <s_lp_Variant>  (122) 
34:0-1

>  <s_i_glide_gridfile>  (122) 
pfpi4k_grid

>  <i_i_glide_lignum>  (122) 
9

>  <i_i_glide_rotatable_bonds>  (122) 
2

>  <r_i_docking_score>  (122) 
-2.6653

>  <r_i_glide_ligand_efficiency>  (122) 
-0.126919

>  <r_i_glide_ligand_efficiency_sa>  (122) 
-0.350161

>  <r_i_glide_ligand_efficiency_ln>  (122) 
-0.658991

>  <r_i_glide_gscore>  (122) 
-2.6653

>  <r_i_glide_lipo>  (122) 
-0.0305854

>  <r_i_glide_hbond>  (122) 
0

>  <r_i_glide_metal>  (122) 
-0

>  <r_i_glide_rewards>  (122) 
-1.37257

>  <r_i_glide_evdw>  (122) 
-21.9362

>  <r_i_glide_ecoul>  (122) 
-3.43336

>  <r_i_glide_erotb>  (122) 
0.411471

>  <r_i_glide_esite>  (122) 
-0.0618093

>  <r_i_glide_emodel>  (122) 
-29.5017

>  <r_i_glide_energy>  (122) 
-25.3696

>  <r_i_glide_einternal>  (122) 
0.779253

>  <r_i_glide_intrahb_reward>  (122) 
-0

>  <i_i_glide_confnum>  (122) 
4

>  <i_i_glide_posenum>  (122) 
16

>  <r_i_glide_eff_state_penalty>  (122) 
0

>  <ligand_id>  (122) 
34

>  <original_smiles>  (122) 
Clc1nc2nc(-c3ccnn3-c3ncccn3)ccn2n1

>  <smiles>  (122) 
[H]c1nc(-n2nc([H])c([H])c2-c2nc3nc(Cl)nn3c([H])c2[H])nc([H])c1[H]

$$$$
34:0:2
     RDKit          3D

 28 31  0  0  1  0  0  0  0  0999 V2000
   -0.4516   -0.6422    6.1275 Cl  0  0  0  0  0  0  0  0  0  0  0  0
   -0.1844   -2.3256    5.8669 C   0  0  0  0  0  0  0  0  0  0  0  0
    0.2906   -2.7912    4.6796 N   0  0  0  0  0  0  0  0  0  0  0  0
    0.3355   -4.1057    4.8757 C   0  0  0  0  0  0  0  0  0  0  0  0
    0.6906   -5.1008    4.0428 N   0  0  0  0  0  0  0  0  0  0  0  0
    0.6655   -6.3540    4.5003 C   0  0  0  0  0  0  0  0  0  0  0  0
    1.1005   -7.4388    3.5914 C   0  0  0  0  0  0  0  0  0  0  0  0
    0.9512   -8.7931    3.7613 C   0  0  0  0  0  0  0  0  0  0  0  0
    1.5125   -9.3642    2.5869 C   0  0  0  0  0  0  0  0  0  0  0  0
    1.9915   -8.4539    1.7642 N   0  0  0  0  0  0  0  0  0  0  0  0
    1.7569   -7.2673    2.3687 N   0  0  0  0  0  0  0  0  0  0  0  0
    2.2197   -6.0979    1.7243 C   0  0  0  0  0  0  0  0  0  0  0  0
    1.7280   -5.8194    0.5089 N   0  0  0  0  0  0  0  0  0  0  0  0
    2.2164   -4.7293   -0.1244 C   0  0  0  0  0  0  0  0  0  0  0  0
    3.1389   -3.8665    0.4901 C   0  0  0  0  0  0  0  0  0  0  0  0
    3.5674   -4.2351    1.7763 C   0  0  0  0  0  0  0  0  0  0  0  0
    3.1350   -5.3656    2.3658 N   0  0  0  0  0  0  0  0  0  0  0  0
    0.2184   -6.6617    5.8168 C   0  0  0  0  0  0  0  0  0  0  0  0
   -0.1808   -5.6451    6.6552 C   0  0  0  0  0  0  0  0  0  0  0  0
   -0.1175   -4.3763    6.1751 N   0  0  0  0  0  0  0  0  0  0  0  0
   -0.4711   -3.2232    6.8021 N   0  0  0  0  0  0  0  0  0  0  0  0
    0.4995   -9.3144    4.5947 H   0  0  0  0  0  0  0  0  0  0  0  0
    1.5977  -10.4045    2.3085 H   0  0  0  0  0  0  0  0  0  0  0  0
    1.8374   -4.5298   -1.1173 H   0  0  0  0  0  0  0  0  0  0  0  0
    3.4950   -2.9704    0.0042 H   0  0  0  0  0  0  0  0  0  0  0  0
    4.2603   -3.6271    2.3398 H   0  0  0  0  0  0  0  0  0  0  0  0
    0.1920   -7.6873    6.1680 H   0  0  0  0  0  0  0  0  0  0  0  0
   -0.5440   -5.7864    7.6676 H   0  0  0  0  0  0  0  0  0  0  0  0
  1  2  1  0
  2 21  2  0
  2  3  1  0
  3  4  2  0
  4 20  1  0
  4  5  1  0
  5  6  2  0
  6  7  1  0
  6 18  1  0
  7 11  1  0
  7  8  2  0
  8  9  1  0
  8 22  1  0
  9 10  2  0
  9 23  1  0
 10 11  1  0
 11 12  1  0
 12 17  1  0
 12 13  2  0
 13 14  1  0
 14 15  2  0
 14 24  1  0
 15 16  1  0
 15 25  1  0
 16 17  2  0
 16 26  1  0
 18 19  2  0
 18 27  1  0
 19 20  1  0
 19 28  1  0
 20 21  1  0
M  END
>  <i_m_ct_stereo_status>  (123) 
1

>  <s_m_source_file>  (123) 
/var/tmp/pbs.5076255.sched01/tmp68k5m_u8/43t0xmz28c.sdf

>  <i_m_source_file_index>  (123) 
9

>  <i_lp_mmshare_version>  (123) 
48012

>  <i_f3d_flags>  (123) 
0

>  <s_epik_input>  (123) 
Q2xjKG4xKW5uKGMxMilbY0hdW2NIXWMobjIpLWMzW2NIXVtjSF1ubjMtYzRuW2NIXVtjSF1bY0hdbjQ=

>  <s_epik_cmdline>  (123) 
J2VwaWtfcHl0aG9uJywgJy1waHQnLCAnMi4wJywgJy1waCcsICc3LjAnLCAnLXRuJywgJzgnLCAnLW1hJywgJzIwMCcsICctaW1hZScsICc8aW5maWxlLm1hZT4nLCAnLW9tYWUnLCAnPG91dGZpbGUubWFlPic=

>  <r_lp_tautomer_probability>  (123) 
1

>  <r_epik_Ionization_Penalty>  (123) 
4.8541e-07

>  <r_epik_Ionization_Penalty_Charging>  (123) 
0

>  <r_epik_Ionization_Penalty_Neutral>  (123) 
4.8541e-07

>  <r_epik_State_Penalty>  (123) 
-0

>  <r_epik_Charging_Adjusted_Penalty>  (123) 
0

>  <i_epik_Tot_Q>  (123) 
0

>  <i_epik_Tot_abs_Q>  (123) 
0

>  <s_lp_Force_Field>  (123) 
OPLS3e

>  <r_lp_Energy>  (123) 
35.6007

>  <b_lp_Chiralities_Consistent>  (123) 
1

>  <s_lp_Variant>  (123) 
34:0-1

>  <s_i_glide_gridfile>  (123) 
pfpi4k_grid

>  <i_i_glide_lignum>  (123) 
9

>  <i_i_glide_rotatable_bonds>  (123) 
2

>  <r_i_docking_score>  (123) 
-2.59241

>  <r_i_glide_ligand_efficiency>  (123) 
-0.123448

>  <r_i_glide_ligand_efficiency_sa>  (123) 
-0.340583

>  <r_i_glide_ligand_efficiency_ln>  (123) 
-0.640967

>  <r_i_glide_gscore>  (123) 
-2.59241

>  <r_i_glide_lipo>  (123) 
-0.0785123

>  <r_i_glide_hbond>  (123) 
-0.0957991

>  <r_i_glide_metal>  (123) 
-0

>  <r_i_glide_rewards>  (123) 
-1.37257

>  <r_i_glide_evdw>  (123) 
-19.6786

>  <r_i_glide_ecoul>  (123) 
-2.67307

>  <r_i_glide_erotb>  (123) 
0.411471

>  <r_i_glide_esite>  (123) 
-0.0721086

>  <r_i_glide_emodel>  (123) 
-27.6506

>  <r_i_glide_energy>  (123) 
-22.3517

>  <r_i_glide_einternal>  (123) 
0.535184

>  <r_i_glide_intrahb_reward>  (123) 
-0

>  <i_i_glide_confnum>  (123) 
5

>  <i_i_glide_posenum>  (123) 
28

>  <r_i_glide_eff_state_penalty>  (123) 
0

>  <ligand_id>  (123) 
34

>  <original_smiles>  (123) 
Clc1nc2nc(-c3ccnn3-c3ncccn3)ccn2n1

>  <smiles>  (123) 
[H]c1nc(-n2nc([H])c([H])c2-c2nc3nc(Cl)nn3c([H])c2[H])nc([H])c1[H]

$$$$
35:0:0
     RDKit          3D

 79 82  0  0  1  0  0  0  0  0999 V2000
   -0.5937   -9.0081    2.6562 C   0  0  0  0  0  0  0  0  0  0  0  0
    0.0693   -7.6359    2.5304 C   0  0  0  0  0  0  0  0  0  0  0  0
   -0.5546   -6.6770    2.0789 O   0  0  0  0  0  0  0  0  0  0  0  0
    1.3624   -7.5513    2.9553 O   0  0  0  0  0  0  0  0  0  0  0  0
    2.1378   -8.6750    3.3584 C   0  0  2  0  0  0  0  0  0  0  0  0
    3.1510   -8.2368    4.4392 C   0  0  0  0  0  0  0  0  0  0  0  0
    2.7338   -9.3886    2.1066 C   0  0  2  0  0  0  0  0  0  0  0  0
    3.0626  -10.7016    2.5084 O   0  0  0  0  0  0  0  0  0  0  0  0
    3.9747   -8.7340    1.4753 C   0  0  0  0  0  0  0  0  0  0  0  0
    3.8208   -7.2210    1.2197 C   0  0  0  0  0  0  0  0  0  0  0  0
    5.0256   -6.5089    0.5690 C   0  0  2  0  0  0  0  0  0  0  0  0
    6.4014   -6.9044    1.1833 C   0  0  0  0  0  0  0  0  0  0  0  0
    4.7663   -4.9713    0.3795 C   0  0  2  0  0  0  0  0  0  0  0  0
    5.9772   -4.1807   -0.1881 C   0  0  0  0  0  0  0  0  0  0  0  0
    5.8816   -2.7420    0.3436 C   0  0  1  0  0  0  0  0  0  0  0  0
    6.1558   -1.8265   -0.6938 O   0  0  0  0  0  0  0  0  0  0  0  0
    4.4643   -2.6678    0.9404 C   0  0  2  0  0  0  0  0  0  0  0  0
    4.0148   -1.4203    1.7810 C   0  0  2  0  0  0  0  0  0  0  0  0
    4.1027   -0.1716    0.8756 C   0  0  0  0  0  0  0  0  0  0  0  0
    4.8765   -1.1570    3.0488 C   0  0  0  0  0  0  0  0  0  0  0  0
    4.4063    0.0509    3.8683 C   0  0  0  0  0  0  0  0  0  0  0  0
    2.9126   -0.0304    4.2776 C   0  0  2  0  0  0  0  0  0  0  0  0
    2.7245   -0.9309    5.5159 C   0  0  0  0  0  0  0  0  0  0  0  0
    2.0489   -0.5347    3.1288 C   0  0  0  0  0  0  0  0  0  0  0  0
    0.9131    0.1897    3.0059 C   0  0  0  0  0  0  0  0  0  0  0  0
    0.8287    1.2685    4.0443 C   0  0  0  0  0  0  0  0  0  0  0  0
    2.2944    1.3792    4.4923 C   0  0  1  0  0  0  0  0  0  0  0  0
    2.4564    1.9269    5.7855 O   0  0  0  0  0  0  0  0  0  0  0  0
    2.5139   -1.6267    2.1914 C   0  0  2  0  0  0  0  0  0  0  0  0
    2.2027   -3.0337    2.7446 C   0  0  0  0  0  0  0  0  0  0  0  0
    2.6877   -4.1688    1.8161 C   0  0  0  0  0  0  0  0  0  0  0  0
    4.2189   -4.0840    1.5550 C   0  0  1  0  0  0  0  0  0  0  0  0
    4.9986   -4.3884    2.8652 C   0  0  0  0  0  0  0  0  0  0  0  0
   -0.0734   -9.7518    2.0639 H   0  0  0  0  0  0  0  0  0  0  0  0
   -1.6306   -8.9758    2.3036 H   0  0  0  0  0  0  0  0  0  0  0  0
   -0.6061   -9.3300    3.6920 H   0  0  0  0  0  0  0  0  0  0  0  0
    1.4875   -9.3888    3.8714 H   0  0  0  0  0  0  0  0  0  0  0  0
    3.7231   -9.0956    4.7762 H   0  0  0  0  0  0  0  0  0  0  0  0
    2.6147   -7.8429    5.3006 H   0  0  0  0  0  0  0  0  0  0  0  0
    3.8563   -7.4670    4.1218 H   0  0  0  0  0  0  0  0  0  0  0  0
    1.9769   -9.4762    1.3238 H   0  0  0  0  0  0  0  0  0  0  0  0
    3.4119  -11.1870    1.7512 H   0  0  0  0  0  0  0  0  0  0  0  0
    4.7914   -8.9104    2.1728 H   0  0  0  0  0  0  0  0  0  0  0  0
    4.2219   -9.2639    0.5517 H   0  0  0  0  0  0  0  0  0  0  0  0
    2.9156   -7.0313    0.6445 H   0  0  0  0  0  0  0  0  0  0  0  0
    3.6619   -6.7636    2.1802 H   0  0  0  0  0  0  0  0  0  0  0  0
    5.0219   -6.9181   -0.4477 H   0  0  0  0  0  0  0  0  0  0  0  0
    6.6125   -6.4190    2.1514 H   0  0  0  0  0  0  0  0  0  0  0  0
    7.2177   -6.6686    0.4993 H   0  0  0  0  0  0  0  0  0  0  0  0
    6.5041   -7.9762    1.3345 H   0  0  0  0  0  0  0  0  0  0  0  0
    3.9961   -4.9194   -0.3856 H   0  0  0  0  0  0  0  0  0  0  0  0
    6.9371   -4.5668    0.1356 H   0  0  0  0  0  0  0  0  0  0  0  0
    5.9635   -4.2203   -1.2814 H   0  0  0  0  0  0  0  0  0  0  0  0
    6.6240   -2.6083    1.1327 H   0  0  0  0  0  0  0  0  0  0  0  0
    5.4419   -1.8941   -1.3272 H   0  0  0  0  0  0  0  0  0  0  0  0
    3.8135   -2.6260    0.0617 H   0  0  0  0  0  0  0  0  0  0  0  0
    3.5766    0.6902    1.2952 H   0  0  0  0  0  0  0  0  0  0  0  0
    3.6632   -0.3555   -0.1080 H   0  0  0  0  0  0  0  0  0  0  0  0
    5.1432    0.1328    0.7239 H   0  0  0  0  0  0  0  0  0  0  0  0
    4.8518   -1.9795    3.7341 H   0  0  0  0  0  0  0  0  0  0  0  0
    5.9269   -1.0372    2.7752 H   0  0  0  0  0  0  0  0  0  0  0  0
    5.0201    0.1507    4.7654 H   0  0  0  0  0  0  0  0  0  0  0  0
    4.5935    0.9471    3.2919 H   0  0  0  0  0  0  0  0  0  0  0  0
    3.1888   -0.4861    6.3996 H   0  0  0  0  0  0  0  0  0  0  0  0
    3.1767   -1.9120    5.3918 H   0  0  0  0  0  0  0  0  0  0  0  0
    1.6642   -1.0777    5.7395 H   0  0  0  0  0  0  0  0  0  0  0  0
    0.1612    0.0380    2.2531 H   0  0  0  0  0  0  0  0  0  0  0  0
    0.4475    2.2053    3.6307 H   0  0  0  0  0  0  0  0  0  0  0  0
    0.1728    0.9445    4.8551 H   0  0  0  0  0  0  0  0  0  0  0  0
    2.7718    2.0761    3.8014 H   0  0  0  0  0  0  0  0  0  0  0  0
    2.1217    2.8200    5.7654 H   0  0  0  0  0  0  0  0  0  0  0  0
    1.9044   -1.5351    1.2886 H   0  0  0  0  0  0  0  0  0  0  0  0
    2.6399   -3.1615    3.7312 H   0  0  0  0  0  0  0  0  0  0  0  0
    1.1281   -3.1421    2.9049 H   0  0  0  0  0  0  0  0  0  0  0  0
    2.4017   -5.1074    2.2822 H   0  0  0  0  0  0  0  0  0  0  0  0
    2.1506   -4.1169    0.8704 H   0  0  0  0  0  0  0  0  0  0  0  0
    4.5829   -3.9301    3.7595 H   0  0  0  0  0  0  0  0  0  0  0  0
    6.0413   -4.0951    2.7981 H   0  0  0  0  0  0  0  0  0  0  0  0
    4.9951   -5.4539    3.1101 H   0  0  0  0  0  0  0  0  0  0  0  0
  1  2  1  0
  1 34  1  0
  1 35  1  0
  1 36  1  0
  2  3  2  0
  2  4  1  0
  4  5  1  0
  5  6  1  0
  5  7  1  0
  5 37  1  1
  6 38  1  0
  6 39  1  0
  6 40  1  0
  7  8  1  0
  7  9  1  0
  7 41  1  6
  8 42  1  0
  9 10  1  0
  9 43  1  0
  9 44  1  0
 10 11  1  0
 10 45  1  0
 10 46  1  0
 11 12  1  0
 11 13  1  0
 11 47  1  6
 12 48  1  0
 12 49  1  0
 12 50  1  0
 13 32  1  0
 13 14  1  0
 13 51  1  6
 14 15  1  0
 14 52  1  0
 14 53  1  0
 15 16  1  0
 15 17  1  0
 15 54  1  1
 16 55  1  0
 17 32  1  0
 17 18  1  0
 17 56  1  6
 18 29  1  0
 18 19  1  6
 18 20  1  0
 19 57  1  0
 19 58  1  0
 19 59  1  0
 20 21  1  0
 20 60  1  0
 20 61  1  0
 21 22  1  0
 21 62  1  0
 21 63  1  0
 22 27  1  0
 22 23  1  1
 22 24  1  0
 23 64  1  0
 23 65  1  0
 23 66  1  0
 24 25  2  0
 24 29  1  0
 25 26  1  0
 25 67  1  0
 26 27  1  0
 26 68  1  0
 26 69  1  0
 27 28  1  0
 27 70  1  6
 28 71  1  0
 29 30  1  0
 29 72  1  6
 30 31  1  0
 30 73  1  0
 30 74  1  0
 31 32  1  0
 31 75  1  0
 31 76  1  0
 32 33  1  1
 33 77  1  0
 33 78  1  0
 33 79  1  0
M  END
>  <i_m_ct_stereo_status>  (124) 
1

>  <s_m_source_file>  (124) 
/var/tmp/pbs.5076255.sched01/tmp68k5m_u8/43t0xmz28c.sdf

>  <i_m_source_file_index>  (124) 
10

>  <i_lp_mmshare_version>  (124) 
48012

>  <i_f3d_flags>  (124) 
0

>  <s_epik_input>  (124) 
W0NIM11DKD1PKU9bQ0BIXShbQ0gzXSlbQ0BIXShbT0hdKVtDSDJdW0NIMl1bQ0BIXShbQ0gzXSlbQ0BIXShbQ0gyXVtDQEhdMVtPSF0pW0NAQF0oW0NIM10pKFtDQEhdMVtDQF0yM1tDSDNdKVtDSDJdW0NIMl1bQ0BIXTNDPTRbQ0BAXShbQ0gzXSkoW0NIMl1bQ0gyXTIpW0NASF0oW09IXSlbQ0gyXVtDSF00

>  <s_epik_cmdline>  (124) 
J2VwaWtfcHl0aG9uJywgJy1waHQnLCAnMi4wJywgJy1waCcsICc3LjAnLCAnLXRuJywgJzgnLCAnLW1hJywgJzIwMCcsICctaW1hZScsICc8aW5maWxlLm1hZT4nLCAnLW9tYWUnLCAnPG91dGZpbGUubWFlPic=

>  <r_lp_tautomer_probability>  (124) 
1

>  <r_epik_Ionization_Penalty>  (124) 
3.42971e-06

>  <r_epik_Ionization_Penalty_Charging>  (124) 
0

>  <r_epik_Ionization_Penalty_Neutral>  (124) 
3.42971e-06

>  <r_epik_State_Penalty>  (124) 
-0

>  <r_epik_Charging_Adjusted_Penalty>  (124) 
0

>  <i_epik_Tot_Q>  (124) 
0

>  <i_epik_Tot_abs_Q>  (124) 
0

>  <s_epik_Chemistry_Notes>  (124) 
This compound has an ester and may undergo hydrolysis at high or low pH.

>  <s_lp_Force_Field>  (124) 
OPLS3e

>  <r_lp_Energy>  (124) 
54.2054

>  <b_lp_Chiralities_Consistent>  (124) 
1

>  <s_lp_Variant>  (124) 
35:0-1

>  <s_i_glide_gridfile>  (124) 
pfpi4k_grid

>  <i_i_glide_lignum>  (124) 
10

>  <i_i_glide_rotatable_bonds>  (124) 
10

>  <r_i_docking_score>  (124) 
-3.46189

>  <r_i_glide_ligand_efficiency>  (124) 
-0.104906

>  <r_i_glide_ligand_efficiency_sa>  (124) 
-0.336489

>  <r_i_glide_ligand_efficiency_ln>  (124) 
-0.769906

>  <r_i_glide_gscore>  (124) 
-3.46189

>  <r_i_glide_lipo>  (124) 
-0.722021

>  <r_i_glide_hbond>  (124) 
-0.386114

>  <r_i_glide_metal>  (124) 
-0

>  <r_i_glide_rewards>  (124) 
-0.254578

>  <r_i_glide_evdw>  (124) 
-26.3095

>  <r_i_glide_ecoul>  (124) 
-8.62501

>  <r_i_glide_erotb>  (124) 
0.564685

>  <r_i_glide_esite>  (124) 
-0.0546349

>  <r_i_glide_emodel>  (124) 
-37.9194

>  <r_i_glide_energy>  (124) 
-34.9345

>  <r_i_glide_einternal>  (124) 
10.9256

>  <r_i_glide_intrahb_reward>  (124) 
-0

>  <i_i_glide_confnum>  (124) 
2

>  <i_i_glide_posenum>  (124) 
19

>  <r_i_glide_eff_state_penalty>  (124) 
0

>  <ligand_id>  (124) 
35

>  <original_smiles>  (124) 
CC(=O)OC(C)C(O)CCC(C)C1CC(O)C2C3(C)CCC4(C)C(=CCC4O)C3CCC12C

>  <smiles>  (124) 
[H]OC([H])(C([H])([H])C([H])([H])C([H])(C([H])([H])[H])C1([H])C([H])([H])C([H])(O[H])C2([H])C3(C([H])([H])[H])C([H])([H])C([H])([H])C4(C([H])([H])[H])C(=C([H])C([H])([H])C4([H])O[H])C3([H])C([H])([H])C([H])([H])C12C([H])([H])[H])C([H])(OC(=O)C([H])([H])[H])C([H])([H])[H]

$$$$
35:0:1
     RDKit          3D

 79 82  0  0  1  0  0  0  0  0999 V2000
   -0.6042   -9.0041    2.6662 C   0  0  0  0  0  0  0  0  0  0  0  0
    0.0588   -7.6158    2.5350 C   0  0  0  0  0  0  0  0  0  0  0  0
   -0.5589   -6.6688    2.1049 O   0  0  0  0  0  0  0  0  0  0  0  0
    1.3572   -7.5597    2.9558 O   0  0  0  0  0  0  0  0  0  0  0  0
    2.1365   -8.6784    3.3647 C   0  0  2  0  0  0  0  0  0  0  0  0
    3.1324   -8.2536    4.4693 C   0  0  0  0  0  0  0  0  0  0  0  0
    2.7597   -9.3840    2.1275 C   0  0  2  0  0  0  0  0  0  0  0  0
    3.0830  -10.6885    2.5561 O   0  0  0  0  0  0  0  0  0  0  0  0
    4.0178   -8.7374    1.5283 C   0  0  0  0  0  0  0  0  0  0  0  0
    3.8676   -7.2244    1.2580 C   0  0  0  0  0  0  0  0  0  0  0  0
    5.0931   -6.4938    0.6806 C   0  0  2  0  0  0  0  0  0  0  0  0
    6.4184   -6.8547    1.4103 C   0  0  0  0  0  0  0  0  0  0  0  0
    4.8447   -4.9631    0.4719 C   0  0  2  0  0  0  0  0  0  0  0  0
    6.0876   -4.1586   -0.0075 C   0  0  0  0  0  0  0  0  0  0  0  0
    5.9331   -2.7203    0.5034 C   0  0  1  0  0  0  0  0  0  0  0  0
    6.2711   -1.8216   -0.5259 O   0  0  0  0  0  0  0  0  0  0  0  0
    4.4746   -2.6665    0.9880 C   0  0  2  0  0  0  0  0  0  0  0  0
    3.9449   -1.4158    1.7785 C   0  0  2  0  0  0  0  0  0  0  0  0
    4.0839   -0.1712    0.8683 C   0  0  0  0  0  0  0  0  0  0  0  0
    4.7018   -1.1328    3.1083 C   0  0  0  0  0  0  0  0  0  0  0  0
    4.1488    0.0761    3.8756 C   0  0  0  0  0  0  0  0  0  0  0  0
    2.6264   -0.0211    4.1750 C   0  0  2  0  0  0  0  0  0  0  0  0
    2.3555   -0.9165    5.4034 C   0  0  0  0  0  0  0  0  0  0  0  0
    1.8614   -0.5473    2.9622 C   0  0  0  0  0  0  0  0  0  0  0  0
    0.7314    0.1584    2.7460 C   0  0  0  0  0  0  0  0  0  0  0  0
    0.5527    1.2470    3.7614 C   0  0  0  0  0  0  0  0  0  0  0  0
    1.9763    1.3814    4.3275 C   0  0  1  0  0  0  0  0  0  0  0  0
    2.0341    1.9444    5.6168 O   0  0  0  0  0  0  0  0  0  0  0  0
    2.4177   -1.6462    2.0770 C   0  0  2  0  0  0  0  0  0  0  0  0
    2.0877   -3.0489    2.6203 C   0  0  0  0  0  0  0  0  0  0  0  0
    2.6582   -4.1783    1.7392 C   0  0  0  0  0  0  0  0  0  0  0  0
    4.2020   -4.0781    1.5912 C   0  0  1  0  0  0  0  0  0  0  0  0
    4.8988   -4.3693    2.9507 C   0  0  0  0  0  0  0  0  0  0  0  0
   -0.0800   -9.7514    2.0760 H   0  0  0  0  0  0  0  0  0  0  0  0
   -1.6485   -8.9838    2.3177 H   0  0  0  0  0  0  0  0  0  0  0  0
   -0.6129   -9.3307    3.7031 H   0  0  0  0  0  0  0  0  0  0  0  0
    1.5020   -9.4070    3.8690 H   0  0  0  0  0  0  0  0  0  0  0  0
    3.7055   -9.1197    4.8053 H   0  0  0  0  0  0  0  0  0  0  0  0
    2.5807   -7.8706    5.3286 H   0  0  0  0  0  0  0  0  0  0  0  0
    3.8476   -7.4797    4.1785 H   0  0  0  0  0  0  0  0  0  0  0  0
    2.0210   -9.4667    1.3267 H   0  0  0  0  0  0  0  0  0  0  0  0
    3.4073  -11.1856    1.7984 H   0  0  0  0  0  0  0  0  0  0  0  0
    4.8073   -8.9151    2.2532 H   0  0  0  0  0  0  0  0  0  0  0  0
    4.2954   -9.2630    0.6132 H   0  0  0  0  0  0  0  0  0  0  0  0
    2.9948   -7.0359    0.6302 H   0  0  0  0  0  0  0  0  0  0  0  0
    3.6486   -6.7678    2.2123 H   0  0  0  0  0  0  0  0  0  0  0  0
    5.1509   -6.8971   -0.3262 H   0  0  0  0  0  0  0  0  0  0  0  0
    6.4927   -6.3450    2.3901 H   0  0  0  0  0  0  0  0  0  0  0  0
    7.2988   -6.6136    0.8093 H   0  0  0  0  0  0  0  0  0  0  0  0
    6.5539   -7.9243    1.5973 H   0  0  0  0  0  0  0  0  0  0  0  0
    4.1374   -4.9251   -0.3481 H   0  0  0  0  0  0  0  0  0  0  0  0
    7.0307   -4.5146    0.3982 H   0  0  0  0  0  0  0  0  0  0  0  0
    6.1718   -4.2229   -1.0990 H   0  0  0  0  0  0  0  0  0  0  0  0
    6.6140   -2.5656    1.3455 H   0  0  0  0  0  0  0  0  0  0  0  0
    5.6499   -1.9650   -1.2407 H   0  0  0  0  0  0  0  0  0  0  0  0
    3.8968   -2.6366    0.0619 H   0  0  0  0  0  0  0  0  0  0  0  0
    3.5153    0.6771    1.2405 H   0  0  0  0  0  0  0  0  0  0  0  0
    3.7271   -0.3728   -0.1406 H   0  0  0  0  0  0  0  0  0  0  0  0
    5.1247    0.1400    0.8006 H   0  0  0  0  0  0  0  0  0  0  0  0
    4.6304   -1.9535    3.7942 H   0  0  0  0  0  0  0  0  0  0  0  0
    5.7654   -0.9963    2.9137 H   0  0  0  0  0  0  0  0  0  0  0  0
    4.6881    0.1975    4.8145 H   0  0  0  0  0  0  0  0  0  0  0  0
    4.3605    0.9697    3.2981 H   0  0  0  0  0  0  0  0  0  0  0  0
    2.7488   -0.4609    6.3085 H   0  0  0  0  0  0  0  0  0  0  0  0
    2.8300   -1.8891    5.3141 H   0  0  0  0  0  0  0  0  0  0  0  0
    1.2871   -1.0760    5.5360 H   0  0  0  0  0  0  0  0  0  0  0  0
    0.0579   -0.0016    1.9299 H   0  0  0  0  0  0  0  0  0  0  0  0
    0.1917    2.1747    3.3084 H   0  0  0  0  0  0  0  0  0  0  0  0
   -0.1665    0.9164    4.5147 H   0  0  0  0  0  0  0  0  0  0  0  0
    2.4938    2.0825    3.6714 H   0  0  0  0  0  0  0  0  0  0  0  0
    1.5790    1.3613    6.2198 H   0  0  0  0  0  0  0  0  0  0  0  0
    1.8787   -1.5641    1.1300 H   0  0  0  0  0  0  0  0  0  0  0  0
    2.4506   -3.1578    3.6315 H   0  0  0  0  0  0  0  0  0  0  0  0
    1.0104   -3.1656    2.7069 H   0  0  0  0  0  0  0  0  0  0  0  0
    2.3459   -5.1172    2.1894 H   0  0  0  0  0  0  0  0  0  0  0  0
    2.1967   -4.1462    0.7493 H   0  0  0  0  0  0  0  0  0  0  0  0
    4.3912   -3.9436    3.8183 H   0  0  0  0  0  0  0  0  0  0  0  0
    5.9252   -4.0118    2.9656 H   0  0  0  0  0  0  0  0  0  0  0  0
    4.9869   -5.4411    3.1579 H   0  0  0  0  0  0  0  0  0  0  0  0
  1  2  1  0
  1 34  1  0
  1 35  1  0
  1 36  1  0
  2  3  2  0
  2  4  1  0
  4  5  1  0
  5  6  1  0
  5  7  1  0
  5 37  1  1
  6 38  1  0
  6 39  1  0
  6 40  1  0
  7  8  1  0
  7  9  1  0
  7 41  1  6
  8 42  1  0
  9 10  1  0
  9 43  1  0
  9 44  1  0
 10 11  1  0
 10 45  1  0
 10 46  1  0
 11 12  1  0
 11 13  1  0
 11 47  1  6
 12 48  1  0
 12 49  1  0
 12 50  1  0
 13 32  1  0
 13 14  1  0
 13 51  1  6
 14 15  1  0
 14 52  1  0
 14 53  1  0
 15 16  1  0
 15 17  1  0
 15 54  1  1
 16 55  1  0
 17 32  1  0
 17 18  1  0
 17 56  1  6
 18 29  1  0
 18 19  1  6
 18 20  1  0
 19 57  1  0
 19 58  1  0
 19 59  1  0
 20 21  1  0
 20 60  1  0
 20 61  1  0
 21 22  1  0
 21 62  1  0
 21 63  1  0
 22 27  1  0
 22 23  1  1
 22 24  1  0
 23 64  1  0
 23 65  1  0
 23 66  1  0
 24 25  2  0
 24 29  1  0
 25 26  1  0
 25 67  1  0
 26 27  1  0
 26 68  1  0
 26 69  1  0
 27 28  1  0
 27 70  1  6
 28 71  1  0
 29 30  1  0
 29 72  1  6
 30 31  1  0
 30 73  1  0
 30 74  1  0
 31 32  1  0
 31 75  1  0
 31 76  1  0
 32 33  1  1
 33 77  1  0
 33 78  1  0
 33 79  1  0
M  END
>  <i_m_ct_stereo_status>  (125) 
1

>  <s_m_source_file>  (125) 
/var/tmp/pbs.5076255.sched01/tmp68k5m_u8/43t0xmz28c.sdf

>  <i_m_source_file_index>  (125) 
10

>  <i_lp_mmshare_version>  (125) 
48012

>  <i_f3d_flags>  (125) 
0

>  <s_epik_input>  (125) 
W0NIM11DKD1PKU9bQ0BIXShbQ0gzXSlbQ0BIXShbT0hdKVtDSDJdW0NIMl1bQ0BIXShbQ0gzXSlbQ0BIXShbQ0gyXVtDQEhdMVtPSF0pW0NAQF0oW0NIM10pKFtDQEhdMVtDQF0yM1tDSDNdKVtDSDJdW0NIMl1bQ0BIXTNDPTRbQ0BAXShbQ0gzXSkoW0NIMl1bQ0gyXTIpW0NASF0oW09IXSlbQ0gyXVtDSF00

>  <s_epik_cmdline>  (125) 
J2VwaWtfcHl0aG9uJywgJy1waHQnLCAnMi4wJywgJy1waCcsICc3LjAnLCAnLXRuJywgJzgnLCAnLW1hJywgJzIwMCcsICctaW1hZScsICc8aW5maWxlLm1hZT4nLCAnLW9tYWUnLCAnPG91dGZpbGUubWFlPic=

>  <r_lp_tautomer_probability>  (125) 
1

>  <r_epik_Ionization_Penalty>  (125) 
3.42971e-06

>  <r_epik_Ionization_Penalty_Charging>  (125) 
0

>  <r_epik_Ionization_Penalty_Neutral>  (125) 
3.42971e-06

>  <r_epik_State_Penalty>  (125) 
-0

>  <r_epik_Charging_Adjusted_Penalty>  (125) 
0

>  <i_epik_Tot_Q>  (125) 
0

>  <i_epik_Tot_abs_Q>  (125) 
0

>  <s_epik_Chemistry_Notes>  (125) 
This compound has an ester and may undergo hydrolysis at high or low pH.

>  <s_lp_Force_Field>  (125) 
OPLS3e

>  <r_lp_Energy>  (125) 
54.2054

>  <b_lp_Chiralities_Consistent>  (125) 
1

>  <s_lp_Variant>  (125) 
35:0-1

>  <s_i_glide_gridfile>  (125) 
pfpi4k_grid

>  <i_i_glide_lignum>  (125) 
10

>  <i_i_glide_rotatable_bonds>  (125) 
10

>  <r_i_docking_score>  (125) 
-3.33395

>  <r_i_glide_ligand_efficiency>  (125) 
-0.101029

>  <r_i_glide_ligand_efficiency_sa>  (125) 
-0.324053

>  <r_i_glide_ligand_efficiency_ln>  (125) 
-0.741452

>  <r_i_glide_gscore>  (125) 
-3.33395

>  <r_i_glide_lipo>  (125) 
-0.708338

>  <r_i_glide_hbond>  (125) 
-0.386828

>  <r_i_glide_metal>  (125) 
-0

>  <r_i_glide_rewards>  (125) 
-0.254578

>  <r_i_glide_evdw>  (125) 
-25.9696

>  <r_i_glide_ecoul>  (125) 
-7.96805

>  <r_i_glide_erotb>  (125) 
0.564685

>  <r_i_glide_esite>  (125) 
-0.0551993

>  <r_i_glide_emodel>  (125) 
-36.6216

>  <r_i_glide_energy>  (125) 
-33.9377

>  <r_i_glide_einternal>  (125) 
10.4055

>  <r_i_glide_intrahb_reward>  (125) 
-0

>  <i_i_glide_confnum>  (125) 
2

>  <i_i_glide_posenum>  (125) 
13

>  <r_i_glide_eff_state_penalty>  (125) 
0

>  <ligand_id>  (125) 
35

>  <original_smiles>  (125) 
CC(=O)OC(C)C(O)CCC(C)C1CC(O)C2C3(C)CCC4(C)C(=CCC4O)C3CCC12C

>  <smiles>  (125) 
[H]OC([H])(C([H])([H])C([H])([H])C([H])(C([H])([H])[H])C1([H])C([H])([H])C([H])(O[H])C2([H])C3(C([H])([H])[H])C([H])([H])C([H])([H])C4(C([H])([H])[H])C(=C([H])C([H])([H])C4([H])O[H])C3([H])C([H])([H])C([H])([H])C12C([H])([H])[H])C([H])(OC(=O)C([H])([H])[H])C([H])([H])[H]

$$$$
35:0:2
     RDKit          3D

 79 82  0  0  1  0  0  0  0  0999 V2000
   -0.9086   -9.3969    2.8294 C   0  0  0  0  0  0  0  0  0  0  0  0
   -0.5127   -7.9294    2.8630 C   0  0  0  0  0  0  0  0  0  0  0  0
   -1.3398   -7.0698    2.4920 O   0  0  0  0  0  0  0  0  0  0  0  0
    0.7360   -7.5845    3.2803 O   0  0  0  0  0  0  0  0  0  0  0  0
    1.6850   -8.5463    3.7286 C   0  0  2  0  0  0  0  0  0  0  0  0
    2.6761   -7.8996    4.7291 C   0  0  0  0  0  0  0  0  0  0  0  0
    2.2746   -9.3092    2.5040 C   0  0  2  0  0  0  0  0  0  0  0  0
    2.4296  -10.6562    2.8920 O   0  0  0  0  0  0  0  0  0  0  0  0
    3.6068   -8.7990    1.9593 C   0  0  0  0  0  0  0  0  0  0  0  0
    3.5641   -7.3201    1.5439 C   0  0  0  0  0  0  0  0  0  0  0  0
    4.8961   -6.7107    1.0494 C   0  0  2  0  0  0  0  0  0  0  0  0
    6.1322   -7.1135    1.9020 C   0  0  0  0  0  0  0  0  0  0  0  0
    4.7561   -5.1779    0.7318 C   0  0  2  0  0  0  0  0  0  0  0  0
    6.0738   -4.4964    0.2744 C   0  0  0  0  0  0  0  0  0  0  0  0
    6.0057   -3.0167    0.6951 C   0  0  1  0  0  0  0  0  0  0  0  0
    6.4396   -2.1962   -0.3880 O   0  0  0  0  0  0  0  0  0  0  0  0
    4.5352   -2.8235    1.0959 C   0  0  2  0  0  0  0  0  0  0  0  0
    4.0688   -1.4917    1.7866 C   0  0  2  0  0  0  0  0  0  0  0  0
    4.3400   -0.3232    0.8065 C   0  0  0  0  0  0  0  0  0  0  0  0
    4.7924   -1.1754    3.1243 C   0  0  0  0  0  0  0  0  0  0  0  0
    4.2990    0.1056    3.8061 C   0  0  0  0  0  0  0  0  0  0  0  0
    2.7715    0.1410    4.0243 C   0  0  2  0  0  0  0  0  0  0  0  0
    2.3805   -0.6472    5.2950 C   0  0  0  0  0  0  0  0  0  0  0  0
    2.0100   -0.3845    2.8217 C   0  0  0  0  0  0  0  0  0  0  0  0
    0.9621    0.3643    2.5030 C   0  0  0  0  0  0  0  0  0  0  0  0
    0.8146    1.5372    3.4491 C   0  0  0  0  0  0  0  0  0  0  0  0
    2.2238    1.5982    4.0638 C   0  0  1  0  0  0  0  0  0  0  0  0
    2.2721    2.2315    5.3316 O   0  0  0  0  0  0  0  0  0  0  0  0
    2.5264   -1.5864    2.0191 C   0  0  2  0  0  0  0  0  0  0  0  0
    2.0640   -2.9177    2.6361 C   0  0  0  0  0  0  0  0  0  0  0  0
    2.5689   -4.1474    1.8494 C   0  0  0  0  0  0  0  0  0  0  0  0
    4.1245   -4.1799    1.7707 C   0  0  1  0  0  0  0  0  0  0  0  0
    4.7191   -4.4415    3.1856 C   0  0  0  0  0  0  0  0  0  0  0  0
   -0.2862   -9.9513    2.1284 H   0  0  0  0  0  0  0  0  0  0  0  0
   -1.9555   -9.5316    2.5441 H   0  0  0  0  0  0  0  0  0  0  0  0
   -0.8134   -9.8510    3.8173 H   0  0  0  0  0  0  0  0  0  0  0  0
    1.1260   -9.2555    4.3428 H   0  0  0  0  0  0  0  0  0  0  0  0
    3.3831   -8.6486    5.0882 H   0  0  0  0  0  0  0  0  0  0  0  0
    2.1513   -7.5705    5.6340 H   0  0  0  0  0  0  0  0  0  0  0  0
    3.2342   -7.0604    4.3457 H   0  0  0  0  0  0  0  0  0  0  0  0
    1.5707   -9.3023    1.6733 H   0  0  0  0  0  0  0  0  0  0  0  0
    1.5914  -11.0133    3.0861 H   0  0  0  0  0  0  0  0  0  0  0  0
    4.3414   -8.9651    2.7408 H   0  0  0  0  0  0  0  0  0  0  0  0
    3.9000   -9.4415    1.1173 H   0  0  0  0  0  0  0  0  0  0  0  0
    2.7896   -7.1717    0.7911 H   0  0  0  0  0  0  0  0  0  0  0  0
    3.2446   -6.7842    2.4058 H   0  0  0  0  0  0  0  0  0  0  0  0
    5.0565   -7.1939    0.0654 H   0  0  0  0  0  0  0  0  0  0  0  0
    6.1896   -6.5812    2.8417 H   0  0  0  0  0  0  0  0  0  0  0  0
    7.0604   -6.9774    1.3388 H   0  0  0  0  0  0  0  0  0  0  0  0
    6.1773   -8.1863    2.1162 H   0  0  0  0  0  0  0  0  0  0  0  0
    4.0899   -5.1364   -0.1227 H   0  0  0  0  0  0  0  0  0  0  0  0
    6.9619   -4.9125    0.7427 H   0  0  0  0  0  0  0  0  0  0  0  0
    6.1864   -4.6181   -0.8017 H   0  0  0  0  0  0  0  0  0  0  0  0
    6.6544   -2.8612    1.5508 H   0  0  0  0  0  0  0  0  0  0  0  0
    5.8796   -2.3814   -1.1040 H   0  0  0  0  0  0  0  0  0  0  0  0
    3.9999   -2.8143    0.1446 H   0  0  0  0  0  0  0  0  0  0  0  0
    3.8209    0.5936    1.1043 H   0  0  0  0  0  0  0  0  0  0  0  0
    4.0056   -0.5560   -0.2073 H   0  0  0  0  0  0  0  0  0  0  0  0
    5.4075   -0.0876    0.7657 H   0  0  0  0  0  0  0  0  0  0  0  0
    4.6359   -1.9395    3.8598 H   0  0  0  0  0  0  0  0  0  0  0  0
    5.8704   -1.1356    2.9727 H   0  0  0  0  0  0  0  0  0  0  0  0
    4.8114    0.2449    4.7550 H   0  0  0  0  0  0  0  0  0  0  0  0
    4.6058    0.9462    3.1903 H   0  0  0  0  0  0  0  0  0  0  0  0
    2.7712   -0.1664    6.1939 H   0  0  0  0  0  0  0  0  0  0  0  0
    2.7824   -1.6588    5.2913 H   0  0  0  0  0  0  0  0  0  0  0  0
    1.2942   -0.7198    5.3946 H   0  0  0  0  0  0  0  0  0  0  0  0
    0.2900    0.2046    1.6755 H   0  0  0  0  0  0  0  0  0  0  0  0
    0.5493    2.4533    2.9216 H   0  0  0  0  0  0  0  0  0  0  0  0
    0.0454    1.3091    4.1854 H   0  0  0  0  0  0  0  0  0  0  0  0
    2.8216    2.2155    3.3932 H   0  0  0  0  0  0  0  0  0  0  0  0
    1.7360    1.7456    5.9239 H   0  0  0  0  0  0  0  0  0  0  0  0
    2.0360   -1.5287    1.0502 H   0  0  0  0  0  0  0  0  0  0  0  0
    2.3754   -2.9926    3.6723 H   0  0  0  0  0  0  0  0  0  0  0  0
    0.9756   -2.9493    2.6831 H   0  0  0  0  0  0  0  0  0  0  0  0
    2.1539   -5.0166    2.3533 H   0  0  0  0  0  0  0  0  0  0  0  0
    2.1556   -4.1358    0.8421 H   0  0  0  0  0  0  0  0  0  0  0  0
    4.2372   -3.8675    3.9824 H   0  0  0  0  0  0  0  0  0  0  0  0
    5.7796   -4.2044    3.2322 H   0  0  0  0  0  0  0  0  0  0  0  0
    4.6302   -5.4785    3.4679 H   0  0  0  0  0  0  0  0  0  0  0  0
  1  2  1  0
  1 34  1  0
  1 35  1  0
  1 36  1  0
  2  3  2  0
  2  4  1  0
  4  5  1  0
  5  6  1  0
  5  7  1  0
  5 37  1  1
  6 38  1  0
  6 39  1  0
  6 40  1  0
  7  8  1  0
  7  9  1  0
  7 41  1  6
  8 42  1  0
  9 10  1  0
  9 43  1  0
  9 44  1  0
 10 11  1  0
 10 45  1  0
 10 46  1  0
 11 12  1  0
 11 13  1  0
 11 47  1  6
 12 48  1  0
 12 49  1  0
 12 50  1  0
 13 32  1  0
 13 14  1  0
 13 51  1  6
 14 15  1  0
 14 52  1  0
 14 53  1  0
 15 16  1  0
 15 17  1  0
 15 54  1  1
 16 55  1  0
 17 32  1  0
 17 18  1  0
 17 56  1  6
 18 29  1  0
 18 19  1  6
 18 20  1  0
 19 57  1  0
 19 58  1  0
 19 59  1  0
 20 21  1  0
 20 60  1  0
 20 61  1  0
 21 22  1  0
 21 62  1  0
 21 63  1  0
 22 27  1  0
 22 23  1  1
 22 24  1  0
 23 64  1  0
 23 65  1  0
 23 66  1  0
 24 25  2  0
 24 29  1  0
 25 26  1  0
 25 67  1  0
 26 27  1  0
 26 68  1  0
 26 69  1  0
 27 28  1  0
 27 70  1  6
 28 71  1  0
 29 30  1  0
 29 72  1  6
 30 31  1  0
 30 73  1  0
 30 74  1  0
 31 32  1  0
 31 75  1  0
 31 76  1  0
 32 33  1  1
 33 77  1  0
 33 78  1  0
 33 79  1  0
M  END
>  <i_m_ct_stereo_status>  (126) 
1

>  <s_m_source_file>  (126) 
/var/tmp/pbs.5076255.sched01/tmp68k5m_u8/43t0xmz28c.sdf

>  <i_m_source_file_index>  (126) 
10

>  <i_lp_mmshare_version>  (126) 
48012

>  <i_f3d_flags>  (126) 
0

>  <s_epik_input>  (126) 
W0NIM11DKD1PKU9bQ0BIXShbQ0gzXSlbQ0BIXShbT0hdKVtDSDJdW0NIMl1bQ0BIXShbQ0gzXSlbQ0BIXShbQ0gyXVtDQEhdMVtPSF0pW0NAQF0oW0NIM10pKFtDQEhdMVtDQF0yM1tDSDNdKVtDSDJdW0NIMl1bQ0BIXTNDPTRbQ0BAXShbQ0gzXSkoW0NIMl1bQ0gyXTIpW0NASF0oW09IXSlbQ0gyXVtDSF00

>  <s_epik_cmdline>  (126) 
J2VwaWtfcHl0aG9uJywgJy1waHQnLCAnMi4wJywgJy1waCcsICc3LjAnLCAnLXRuJywgJzgnLCAnLW1hJywgJzIwMCcsICctaW1hZScsICc8aW5maWxlLm1hZT4nLCAnLW9tYWUnLCAnPG91dGZpbGUubWFlPic=

>  <r_lp_tautomer_probability>  (126) 
1

>  <r_epik_Ionization_Penalty>  (126) 
3.42971e-06

>  <r_epik_Ionization_Penalty_Charging>  (126) 
0

>  <r_epik_Ionization_Penalty_Neutral>  (126) 
3.42971e-06

>  <r_epik_State_Penalty>  (126) 
-0

>  <r_epik_Charging_Adjusted_Penalty>  (126) 
0

>  <i_epik_Tot_Q>  (126) 
0

>  <i_epik_Tot_abs_Q>  (126) 
0

>  <s_epik_Chemistry_Notes>  (126) 
This compound has an ester and may undergo hydrolysis at high or low pH.

>  <s_lp_Force_Field>  (126) 
OPLS3e

>  <r_lp_Energy>  (126) 
54.2054

>  <b_lp_Chiralities_Consistent>  (126) 
1

>  <s_lp_Variant>  (126) 
35:0-1

>  <s_i_glide_gridfile>  (126) 
pfpi4k_grid

>  <i_i_glide_lignum>  (126) 
10

>  <i_i_glide_rotatable_bonds>  (126) 
10

>  <r_i_docking_score>  (126) 
-2.78034

>  <r_i_glide_ligand_efficiency>  (126) 
-0.0842528

>  <r_i_glide_ligand_efficiency_sa>  (126) 
-0.270244

>  <r_i_glide_ligand_efficiency_ln>  (126) 
-0.618334

>  <r_i_glide_gscore>  (126) 
-2.78034

>  <r_i_glide_lipo>  (126) 
-0.763554

>  <r_i_glide_hbond>  (126) 
-0.16

>  <r_i_glide_metal>  (126) 
-0

>  <r_i_glide_rewards>  (126) 
-0.254578

>  <r_i_glide_evdw>  (126) 
-27.5178

>  <r_i_glide_ecoul>  (126) 
-4.88954

>  <r_i_glide_erotb>  (126) 
0.564685

>  <r_i_glide_esite>  (126) 
-0.0575736

>  <r_i_glide_emodel>  (126) 
-32.9087

>  <r_i_glide_energy>  (126) 
-32.4073

>  <r_i_glide_einternal>  (126) 
10.9827

>  <r_i_glide_intrahb_reward>  (126) 
-0

>  <i_i_glide_confnum>  (126) 
2

>  <i_i_glide_posenum>  (126) 
2

>  <r_i_glide_eff_state_penalty>  (126) 
0

>  <ligand_id>  (126) 
35

>  <original_smiles>  (126) 
CC(=O)OC(C)C(O)CCC(C)C1CC(O)C2C3(C)CCC4(C)C(=CCC4O)C3CCC12C

>  <smiles>  (126) 
[H]OC([H])(C([H])([H])C([H])([H])C([H])(C([H])([H])[H])C1([H])C([H])([H])C([H])(O[H])C2([H])C3(C([H])([H])[H])C([H])([H])C([H])([H])C4(C([H])([H])[H])C(=C([H])C([H])([H])C4([H])O[H])C3([H])C([H])([H])C([H])([H])C12C([H])([H])[H])C([H])(OC(=O)C([H])([H])[H])C([H])([H])[H]

$$$$
36:0:0
     RDKit          3D

 76 80  0  0  1  0  0  0  0  0999 V2000
    3.2566   -4.5302    7.5991 C   0  0  0  0  0  0  0  0  0  0  0  0
    1.7916   -4.9035    7.3545 C   0  0  0  0  0  0  0  0  0  0  0  0
    1.1470   -5.4624    8.2294 O   0  0  0  0  0  0  0  0  0  0  0  0
    1.0901   -4.4324    6.0552 C   0  0  2  0  0  0  0  0  0  0  0  0
    1.9833   -4.7802    4.8043 C   0  0  1  0  0  0  0  0  0  0  0  0
    1.3706   -5.5076    3.7308 O   0  0  0  0  0  0  0  0  0  0  0  0
    0.8203   -6.7552    4.0423 C   0  0  2  0  0  0  0  0  0  0  0  0
    1.7566   -7.5350    4.7285 O   0  0  0  0  0  0  0  0  0  0  0  0
    1.3408   -8.8301    5.1346 C   0  0  1  0  0  0  0  0  0  0  0  0
    0.2223   -8.7365    6.1785 C   0  0  0  0  0  0  0  0  0  0  0  0
    1.0059   -9.6269    3.8676 C   0  0  1  0  0  0  0  0  0  0  0  0
    0.6117  -10.9550    4.1470 O   0  0  0  0  0  0  0  0  0  0  0  0
   -0.0198   -8.8952    2.9837 C   0  0  1  0  0  0  0  0  0  0  0  0
   -1.2845   -8.8696    3.6516 O   0  0  0  0  0  0  0  0  0  0  0  0
    0.4498   -7.4398    2.7107 C   0  0  1  0  0  0  0  0  0  0  0  0
   -0.5809   -6.7344    2.0345 O   0  0  0  0  0  0  0  0  0  0  0  0
    2.5104   -3.4341    4.3017 C   0  0  0  0  0  0  0  0  0  0  0  0
    2.1433   -2.3714    5.3948 C   0  0  1  0  0  0  0  0  0  0  0  0
    2.0484   -0.8949    4.9069 C   0  0  1  0  0  0  0  0  0  0  0  0
    3.3405   -0.4926    4.2114 C   0  0  0  0  0  0  0  0  0  0  0  0
    3.2656    0.8747    3.6041 C   0  0  0  0  0  0  0  0  0  0  0  0
    2.1014    1.5358    3.3430 C   0  0  0  0  0  0  0  0  0  0  0  0
    2.1075    2.9696    2.8487 C   0  0  0  0  0  0  0  0  0  0  0  0
    1.3559    3.8710    3.8474 C   0  0  1  0  0  0  0  0  0  0  0  0
    1.1968    5.1414    3.2911 O   0  0  0  0  0  0  0  0  0  0  0  0
   -0.0347    3.3327    4.2381 C   0  0  0  0  0  0  0  0  0  0  0  0
    0.0326    1.8461    4.6708 C   0  0  0  0  0  0  0  0  0  0  0  0
    0.7160    0.9237    3.6001 C   0  0  1  0  0  0  0  0  0  0  0  0
   -0.1184    0.9480    2.2886 C   0  0  0  0  0  0  0  0  0  0  0  0
    0.8003   -0.5877    4.0394 C   0  0  2  0  0  0  0  0  0  0  0  0
   -0.4938   -1.1248    4.7139 C   0  0  0  0  0  0  0  0  0  0  0  0
   -0.3789   -2.6119    5.0387 C   0  0  0  0  0  0  0  0  0  0  0  0
    0.8039   -2.8999    6.0025 C   0  0  1  0  0  0  0  0  0  0  0  0
    0.4730   -2.2881    7.3813 C   0  0  0  0  0  0  0  0  0  0  0  0
    3.3874   -3.5106    7.5145 H   0  0  0  0  0  0  0  0  0  0  0  0
    3.9166   -5.0335    6.8974 H   0  0  0  0  0  0  0  0  0  0  0  0
    3.5930   -4.8889    8.5812 H   0  0  0  0  0  0  0  0  0  0  0  0
    0.1456   -4.9676    6.0183 H   0  0  0  0  0  0  0  0  0  0  0  0
    2.8599   -5.3771    5.0663 H   0  0  0  0  0  0  0  0  0  0  0  0
   -0.0517   -6.6541    4.6572 H   0  0  0  0  0  0  0  0  0  0  0  0
    2.2091   -9.2967    5.5834 H   0  0  0  0  0  0  0  0  0  0  0  0
   -0.1167   -9.7177    6.4872 H   0  0  0  0  0  0  0  0  0  0  0  0
   -0.5858   -8.1620    5.7719 H   0  0  0  0  0  0  0  0  0  0  0  0
    0.5632   -8.2859    7.0981 H   0  0  0  0  0  0  0  0  0  0  0  0
    1.9261   -9.7253    3.2908 H   0  0  0  0  0  0  0  0  0  0  0  0
   -0.1726  -10.9558    4.6812 H   0  0  0  0  0  0  0  0  0  0  0  0
   -0.0737   -9.4394    2.0310 H   0  0  0  0  0  0  0  0  0  0  0  0
   -1.4934   -9.7183    4.0366 H   0  0  0  0  0  0  0  0  0  0  0  0
    1.3401   -7.4595    2.0876 H   0  0  0  0  0  0  0  0  0  0  0  0
   -0.9501   -7.3365    1.4123 H   0  0  0  0  0  0  0  0  0  0  0  0
    3.5826   -3.4700    4.1975 H   0  0  0  0  0  0  0  0  0  0  0  0
    2.1034   -3.2120    3.3081 H   0  0  0  0  0  0  0  0  0  0  0  0
    2.9031   -2.3851    6.1260 H   0  0  0  0  0  0  0  0  0  0  0  0
    1.9450   -0.2895    5.7957 H   0  0  0  0  0  0  0  0  0  0  0  0
    4.1527   -0.5125    4.9425 H   0  0  0  0  0  0  0  0  0  0  0  0
    3.6314   -1.1802    3.4192 H   0  0  0  0  0  0  0  0  0  0  0  0
    4.2097    1.3457    3.3994 H   0  0  0  0  0  0  0  0  0  0  0  0
    3.1305    3.3225    2.6964 H   0  0  0  0  0  0  0  0  0  0  0  0
    1.6396    2.9626    1.8626 H   0  0  0  0  0  0  0  0  0  0  0  0
    1.9632    3.9617    4.7540 H   0  0  0  0  0  0  0  0  0  0  0  0
    0.8231    5.0264    2.3944 H   0  0  0  0  0  0  0  0  0  0  0  0
   -0.4551    3.9416    5.0473 H   0  0  0  0  0  0  0  0  0  0  0  0
   -0.7242    3.4234    3.3957 H   0  0  0  0  0  0  0  0  0  0  0  0
    0.5785    1.7855    5.6200 H   0  0  0  0  0  0  0  0  0  0  0  0
   -0.9849    1.5185    4.8970 H   0  0  0  0  0  0  0  0  0  0  0  0
   -1.0962    0.5049    2.4277 H   0  0  0  0  0  0  0  0  0  0  0  0
    0.3798    0.3646    1.5205 H   0  0  0  0  0  0  0  0  0  0  0  0
   -0.2956    1.9432    1.8796 H   0  0  0  0  0  0  0  0  0  0  0  0
    0.9388   -1.1571    3.1254 H   0  0  0  0  0  0  0  0  0  0  0  0
   -0.7121   -0.5588    5.6216 H   0  0  0  0  0  0  0  0  0  0  0  0
   -1.3705   -0.9633    4.0735 H   0  0  0  0  0  0  0  0  0  0  0  0
   -1.3055   -2.9595    5.4651 H   0  0  0  0  0  0  0  0  0  0  0  0
   -0.2521   -3.1579    4.1129 H   0  0  0  0  0  0  0  0  0  0  0  0
    0.3743   -1.2127    7.3438 H   0  0  0  0  0  0  0  0  0  0  0  0
    1.2313   -2.5021    8.1377 H   0  0  0  0  0  0  0  0  0  0  0  0
   -0.4635   -2.6717    7.7530 H   0  0  0  0  0  0  0  0  0  0  0  0
  1  2  1  0
  1 35  1  0
  1 36  1  0
  1 37  1  0
  2  3  2  0
  2  4  1  0
  4 33  1  0
  4  5  1  0
  4 38  1  6
  5  6  1  0
  5 17  1  0
  5 39  1  1
  6  7  1  0
  7 15  1  0
  7  8  1  0
  7 40  1  1
  8  9  1  0
  9 10  1  0
  9 11  1  0
  9 41  1  1
 10 42  1  0
 10 43  1  0
 10 44  1  0
 11 12  1  0
 11 13  1  0
 11 45  1  6
 12 46  1  0
 13 14  1  0
 13 15  1  0
 13 47  1  6
 14 48  1  0
 15 16  1  0
 15 49  1  6
 16 50  1  0
 17 18  1  0
 17 51  1  0
 17 52  1  0
 18 33  1  0
 18 19  1  0
 18 53  1  1
 19 30  1  0
 19 20  1  0
 19 54  1  1
 20 21  1  0
 20 55  1  0
 20 56  1  0
 21 22  2  0
 21 57  1  0
 22 28  1  0
 22 23  1  0
 23 24  1  0
 23 58  1  0
 23 59  1  0
 24 25  1  0
 24 26  1  0
 24 60  1  1
 25 61  1  0
 26 27  1  0
 26 62  1  0
 26 63  1  0
 27 28  1  0
 27 64  1  0
 27 65  1  0
 28 29  1  6
 28 30  1  0
 29 66  1  0
 29 67  1  0
 29 68  1  0
 30 31  1  0
 30 69  1  6
 31 32  1  0
 31 70  1  0
 31 71  1  0
 32 33  1  0
 32 72  1  0
 32 73  1  0
 33 34  1  1
 34 74  1  0
 34 75  1  0
 34 76  1  0
M  END
>  <i_m_ct_stereo_status>  (127) 
1

>  <s_m_source_file>  (127) 
/var/tmp/pbs.5076255.sched01/tmp68k5m_u8/43t0xmz28c.sdf

>  <i_m_source_file_index>  (127) 
11

>  <i_lp_mmshare_version>  (127) 
48012

>  <i_f3d_flags>  (127) 
0

>  <s_epik_input>  (127) 
W09IXVtDQEBIXTFbQ0BIXShbT0hdKVtDQEhdKFtPSF0pW0NASF0oW0NIM10pT1tDQEhdMU9bQ0BASF0oW0NIMl0yKVtDQEBIXShDKD1PKVtDSDNdKVtDQF0oW0NIM10pKFtDSDJdW0NIMl1bQ0BIXTM0KVtDQEBIXTJbQ0BIXTNbQ0gyXVtDSF09QyhbQ0BAXTQ1W0NIM10pW0NIMl1bQ0BASF0oW09IXSlbQ0gyXVtDSDJdNQ==

>  <s_epik_cmdline>  (127) 
J2VwaWtfcHl0aG9uJywgJy1waHQnLCAnMi4wJywgJy1waCcsICc3LjAnLCAnLXRuJywgJzgnLCAnLW1hJywgJzIwMCcsICctaW1hZScsICc8aW5maWxlLm1hZT4nLCAnLW9tYWUnLCAnPG91dGZpbGUubWFlPic=

>  <r_lp_tautomer_probability>  (127) 
1

>  <r_epik_Ionization_Penalty>  (127) 
2.92116e-06

>  <r_epik_Ionization_Penalty_Charging>  (127) 
0

>  <r_epik_Ionization_Penalty_Neutral>  (127) 
2.92116e-06

>  <r_epik_State_Penalty>  (127) 
-0

>  <r_epik_Charging_Adjusted_Penalty>  (127) 
0

>  <i_epik_Tot_Q>  (127) 
0

>  <i_epik_Tot_abs_Q>  (127) 
0

>  <s_epik_Chemistry_Notes>  (127) 
This compound contains an acetal/aminal-like group ( X-CH(R)-Y where X, Y are N, S, or O) that may be acid/base labile, releasing an aldehyde.

>  <s_lp_Force_Field>  (127) 
OPLS3e

>  <r_lp_Energy>  (127) 
41.1784

>  <b_lp_Chiralities_Consistent>  (127) 
1

>  <s_lp_Variant>  (127) 
36:0-1

>  <s_i_glide_gridfile>  (127) 
pfpi4k_grid

>  <i_i_glide_lignum>  (127) 
11

>  <i_i_glide_rotatable_bonds>  (127) 
7

>  <r_i_docking_score>  (127) 
-3.33974

>  <r_i_glide_ligand_efficiency>  (127) 
-0.0982276

>  <r_i_glide_ligand_efficiency_sa>  (127) 
-0.318219

>  <r_i_glide_ligand_efficiency_ln>  (127) 
-0.737842

>  <r_i_glide_gscore>  (127) 
-3.33974

>  <r_i_glide_lipo>  (127) 
-0.00114534

>  <r_i_glide_hbond>  (127) 
-0.144445

>  <r_i_glide_metal>  (127) 
-0

>  <r_i_glide_rewards>  (127) 
-0.145785

>  <r_i_glide_evdw>  (127) 
-30.1588

>  <r_i_glide_ecoul>  (127) 
-12.1917

>  <r_i_glide_erotb>  (127) 
0.176935

>  <r_i_glide_esite>  (127) 
-0.019419

>  <r_i_glide_emodel>  (127) 
-45.7096

>  <r_i_glide_energy>  (127) 
-42.3505

>  <r_i_glide_einternal>  (127) 
6.54132

>  <r_i_glide_intrahb_reward>  (127) 
-0

>  <i_i_glide_confnum>  (127) 
1

>  <i_i_glide_posenum>  (127) 
22

>  <r_i_glide_eff_state_penalty>  (127) 
0

>  <ligand_id>  (127) 
36

>  <original_smiles>  (127) 
CC(=O)C1C(OC2OC(C)C(O)C(O)C2O)CC2C3CC=C4CC(O)CCC4(C)C3CCC21C

>  <smiles>  (127) 
[H]OC1([H])C([H])([H])C2=C([H])C([H])([H])C3([H])C([H])(C([H])([H])C([H])([H])C4(C([H])([H])[H])C([H])(C(=O)C([H])([H])[H])C([H])(OC5([H])OC([H])(C([H])([H])[H])C([H])(O[H])C([H])(O[H])C5([H])O[H])C([H])([H])C34[H])C2(C([H])([H])[H])C([H])([H])C1([H])[H]

$$$$
36:0:1
     RDKit          3D

 76 80  0  0  1  0  0  0  0  0999 V2000
    5.3086   -4.6682    4.3103 C   0  0  0  0  0  0  0  0  0  0  0  0
    4.5881   -4.9281    5.6522 C   0  0  0  0  0  0  0  0  0  0  0  0
    5.2148   -5.2637    6.6345 O   0  0  0  0  0  0  0  0  0  0  0  0
    3.0467   -4.7090    5.7446 C   0  0  2  0  0  0  0  0  0  0  0  0
    2.2805   -5.3124    4.5095 C   0  0  1  0  0  0  0  0  0  0  0  0
    1.1449   -6.1168    4.8320 O   0  0  0  0  0  0  0  0  0  0  0  0
    1.4637   -7.4480    5.1190 C   0  0  2  0  0  0  0  0  0  0  0  0
    1.6207   -8.1444    3.9175 O   0  0  0  0  0  0  0  0  0  0  0  0
    1.9791   -9.5222    4.0171 C   0  0  1  0  0  0  0  0  0  0  0  0
    3.3829   -9.6926    4.6320 C   0  0  0  0  0  0  0  0  0  0  0  0
    0.8375  -10.2361    4.7655 C   0  0  1  0  0  0  0  0  0  0  0  0
    1.0639  -11.6278    4.8478 O   0  0  0  0  0  0  0  0  0  0  0  0
    0.5173   -9.5654    6.1115 C   0  0  1  0  0  0  0  0  0  0  0  0
    1.5799   -9.7438    7.0394 O   0  0  0  0  0  0  0  0  0  0  0  0
    0.2933   -8.0486    5.9141 C   0  0  1  0  0  0  0  0  0  0  0  0
    0.2364   -7.4694    7.2057 O   0  0  0  0  0  0  0  0  0  0  0  0
    1.8578   -4.1138    3.6600 C   0  0  0  0  0  0  0  0  0  0  0  0
    2.5616   -2.8631    4.2675 C   0  0  1  0  0  0  0  0  0  0  0  0
    1.8824   -1.5035    3.9677 C   0  0  1  0  0  0  0  0  0  0  0  0
    1.6979   -1.3125    2.4601 C   0  0  0  0  0  0  0  0  0  0  0  0
    0.9144   -0.0601    2.1248 C   0  0  0  0  0  0  0  0  0  0  0  0
    0.1308    0.6013    3.0014 C   0  0  0  0  0  0  0  0  0  0  0  0
   -0.5432    1.9094    2.6198 C   0  0  0  0  0  0  0  0  0  0  0  0
   -0.0419    3.0295    3.5597 C   0  0  1  0  0  0  0  0  0  0  0  0
   -0.7555    4.2208    3.3012 O   0  0  0  0  0  0  0  0  0  0  0  0
   -0.1307    2.6877    5.0510 C   0  0  0  0  0  0  0  0  0  0  0  0
    0.5095    1.3138    5.3465 C   0  0  0  0  0  0  0  0  0  0  0  0
   -0.0811    0.1625    4.4632 C   0  0  1  0  0  0  0  0  0  0  0  0
   -1.5977   -0.0106    4.7503 C   0  0  0  0  0  0  0  0  0  0  0  0
    0.5691   -1.2546    4.7452 C   0  0  2  0  0  0  0  0  0  0  0  0
    0.7488   -1.5683    6.2590 C   0  0  0  0  0  0  0  0  0  0  0  0
    1.2923   -2.9872    6.4866 C   0  0  0  0  0  0  0  0  0  0  0  0
    2.6707   -3.1897    5.7843 C   0  0  1  0  0  0  0  0  0  0  0  0
    3.7215   -2.2924    6.5047 C   0  0  0  0  0  0  0  0  0  0  0  0
    5.1031   -3.6795    4.0089 H   0  0  0  0  0  0  0  0  0  0  0  0
    4.9903   -5.3532    3.5249 H   0  0  0  0  0  0  0  0  0  0  0  0
    6.3880   -4.8376    4.4292 H   0  0  0  0  0  0  0  0  0  0  0  0
    2.7024   -5.2097    6.6651 H   0  0  0  0  0  0  0  0  0  0  0  0
    2.9174   -5.9521    3.9004 H   0  0  0  0  0  0  0  0  0  0  0  0
    2.3866   -7.5243    5.6844 H   0  0  0  0  0  0  0  0  0  0  0  0
    1.9746   -9.9090    2.9891 H   0  0  0  0  0  0  0  0  0  0  0  0
    3.6230  -10.7501    4.7319 H   0  0  0  0  0  0  0  0  0  0  0  0
    3.4353   -9.1970    5.6026 H   0  0  0  0  0  0  0  0  0  0  0  0
    4.1540   -9.2817    3.9781 H   0  0  0  0  0  0  0  0  0  0  0  0
   -0.0619  -10.1758    4.1417 H   0  0  0  0  0  0  0  0  0  0  0  0
    1.3219  -11.8634    5.7380 H   0  0  0  0  0  0  0  0  0  0  0  0
   -0.3888  -10.0274    6.5170 H   0  0  0  0  0  0  0  0  0  0  0  0
    1.5951  -10.6634    7.3091 H   0  0  0  0  0  0  0  0  0  0  0  0
   -0.6282   -7.8965    5.3560 H   0  0  0  0  0  0  0  0  0  0  0  0
    1.0450   -7.7362    7.6268 H   0  0  0  0  0  0  0  0  0  0  0  0
    2.1973   -4.2628    2.6406 H   0  0  0  0  0  0  0  0  0  0  0  0
    0.7709   -4.0623    3.6394 H   0  0  0  0  0  0  0  0  0  0  0  0
    3.5341   -2.7807    3.8375 H   0  0  0  0  0  0  0  0  0  0  0  0
    2.5704   -0.7326    4.2927 H   0  0  0  0  0  0  0  0  0  0  0  0
    2.6719   -1.2680    1.9751 H   0  0  0  0  0  0  0  0  0  0  0  0
    1.1775   -2.1530    2.0064 H   0  0  0  0  0  0  0  0  0  0  0  0
    1.0177    0.2913    1.1033 H   0  0  0  0  0  0  0  0  0  0  0  0
   -0.3376    2.1384    1.5722 H   0  0  0  0  0  0  0  0  0  0  0  0
   -1.6200    1.7742    2.6792 H   0  0  0  0  0  0  0  0  0  0  0  0
    0.9984    3.2353    3.2997 H   0  0  0  0  0  0  0  0  0  0  0  0
   -0.5884    4.4345    2.4092 H   0  0  0  0  0  0  0  0  0  0  0  0
    0.3559    3.4722    5.6453 H   0  0  0  0  0  0  0  0  0  0  0  0
   -1.1747    2.6854    5.3675 H   0  0  0  0  0  0  0  0  0  0  0  0
    1.5931    1.3839    5.1945 H   0  0  0  0  0  0  0  0  0  0  0  0
    0.3769    1.0993    6.4028 H   0  0  0  0  0  0  0  0  0  0  0  0
   -1.7726   -0.3454    5.7712 H   0  0  0  0  0  0  0  0  0  0  0  0
   -2.0219   -0.7578    4.0844 H   0  0  0  0  0  0  0  0  0  0  0  0
   -2.1828    0.8955    4.6221 H   0  0  0  0  0  0  0  0  0  0  0  0
   -0.1244   -1.9988    4.3540 H   0  0  0  0  0  0  0  0  0  0  0  0
    1.4233   -0.8386    6.7107 H   0  0  0  0  0  0  0  0  0  0  0  0
   -0.1915   -1.4501    6.8045 H   0  0  0  0  0  0  0  0  0  0  0  0
    1.3622   -3.1780    7.5579 H   0  0  0  0  0  0  0  0  0  0  0  0
    0.5459   -3.7016    6.1289 H   0  0  0  0  0  0  0  0  0  0  0  0
    3.5065   -1.2280    6.4174 H   0  0  0  0  0  0  0  0  0  0  0  0
    4.7308   -2.4001    6.1128 H   0  0  0  0  0  0  0  0  0  0  0  0
    3.7639   -2.5163    7.5685 H   0  0  0  0  0  0  0  0  0  0  0  0
  1  2  1  0
  1 35  1  0
  1 36  1  0
  1 37  1  0
  2  3  2  0
  2  4  1  0
  4 33  1  0
  4  5  1  0
  4 38  1  1
  5  6  1  0
  5 17  1  0
  5 39  1  6
  6  7  1  0
  7 15  1  0
  7  8  1  0
  7 40  1  1
  8  9  1  0
  9 10  1  0
  9 11  1  0
  9 41  1  6
 10 42  1  0
 10 43  1  0
 10 44  1  0
 11 12  1  0
 11 13  1  0
 11 45  1  6
 12 46  1  0
 13 14  1  0
 13 15  1  0
 13 47  1  1
 14 48  1  0
 15 16  1  0
 15 49  1  6
 16 50  1  0
 17 18  1  0
 17 51  1  0
 17 52  1  0
 18 33  1  0
 18 19  1  0
 18 53  1  6
 19 30  1  0
 19 20  1  0
 19 54  1  1
 20 21  1  0
 20 55  1  0
 20 56  1  0
 21 22  2  0
 21 57  1  0
 22 28  1  0
 22 23  1  0
 23 24  1  0
 23 58  1  0
 23 59  1  0
 24 25  1  0
 24 26  1  0
 24 60  1  6
 25 61  1  0
 26 27  1  0
 26 62  1  0
 26 63  1  0
 27 28  1  0
 27 64  1  0
 27 65  1  0
 28 29  1  1
 28 30  1  0
 29 66  1  0
 29 67  1  0
 29 68  1  0
 30 31  1  0
 30 69  1  6
 31 32  1  0
 31 70  1  0
 31 71  1  0
 32 33  1  0
 32 72  1  0
 32 73  1  0
 33 34  1  1
 34 74  1  0
 34 75  1  0
 34 76  1  0
M  END
>  <i_m_ct_stereo_status>  (128) 
1

>  <s_m_source_file>  (128) 
/var/tmp/pbs.5076255.sched01/tmp68k5m_u8/43t0xmz28c.sdf

>  <i_m_source_file_index>  (128) 
11

>  <i_lp_mmshare_version>  (128) 
48012

>  <i_f3d_flags>  (128) 
0

>  <s_epik_input>  (128) 
W09IXVtDQEBIXTFbQ0BIXShbT0hdKVtDQEhdKFtPSF0pW0NASF0oW0NIM10pT1tDQEhdMU9bQ0BASF0oW0NIMl0yKVtDQEBIXShDKD1PKVtDSDNdKVtDQF0oW0NIM10pKFtDSDJdW0NIMl1bQ0BIXTM0KVtDQEBIXTJbQ0BIXTNbQ0gyXVtDSF09QyhbQ0BAXTQ1W0NIM10pW0NIMl1bQ0BASF0oW09IXSlbQ0gyXVtDSDJdNQ==

>  <s_epik_cmdline>  (128) 
J2VwaWtfcHl0aG9uJywgJy1waHQnLCAnMi4wJywgJy1waCcsICc3LjAnLCAnLXRuJywgJzgnLCAnLW1hJywgJzIwMCcsICctaW1hZScsICc8aW5maWxlLm1hZT4nLCAnLW9tYWUnLCAnPG91dGZpbGUubWFlPic=

>  <r_lp_tautomer_probability>  (128) 
1

>  <r_epik_Ionization_Penalty>  (128) 
2.92116e-06

>  <r_epik_Ionization_Penalty_Charging>  (128) 
0

>  <r_epik_Ionization_Penalty_Neutral>  (128) 
2.92116e-06

>  <r_epik_State_Penalty>  (128) 
-0

>  <r_epik_Charging_Adjusted_Penalty>  (128) 
0

>  <i_epik_Tot_Q>  (128) 
0

>  <i_epik_Tot_abs_Q>  (128) 
0

>  <s_epik_Chemistry_Notes>  (128) 
This compound contains an acetal/aminal-like group ( X-CH(R)-Y where X, Y are N, S, or O) that may be acid/base labile, releasing an aldehyde.

>  <s_lp_Force_Field>  (128) 
OPLS3e

>  <r_lp_Energy>  (128) 
41.1784

>  <b_lp_Chiralities_Consistent>  (128) 
1

>  <s_lp_Variant>  (128) 
36:0-1

>  <s_i_glide_gridfile>  (128) 
pfpi4k_grid

>  <i_i_glide_lignum>  (128) 
11

>  <i_i_glide_rotatable_bonds>  (128) 
7

>  <r_i_docking_score>  (128) 
-3.18157

>  <r_i_glide_ligand_efficiency>  (128) 
-0.0935755

>  <r_i_glide_ligand_efficiency_sa>  (128) 
-0.303148

>  <r_i_glide_ligand_efficiency_ln>  (128) 
-0.702897

>  <r_i_glide_gscore>  (128) 
-3.18157

>  <r_i_glide_lipo>  (128) 
-0.00108299

>  <r_i_glide_hbond>  (128) 
-0.144

>  <r_i_glide_metal>  (128) 
-0

>  <r_i_glide_rewards>  (128) 
-0.145785

>  <r_i_glide_evdw>  (128) 
-24.2812

>  <r_i_glide_ecoul>  (128) 
-12.469

>  <r_i_glide_erotb>  (128) 
0.176935

>  <r_i_glide_esite>  (128) 
-0.00572716

>  <r_i_glide_emodel>  (128) 
-39.4358

>  <r_i_glide_energy>  (128) 
-36.7502

>  <r_i_glide_einternal>  (128) 
7.04206

>  <r_i_glide_intrahb_reward>  (128) 
-0

>  <i_i_glide_confnum>  (128) 
1

>  <i_i_glide_posenum>  (128) 
38

>  <r_i_glide_eff_state_penalty>  (128) 
0

>  <ligand_id>  (128) 
36

>  <original_smiles>  (128) 
CC(=O)C1C(OC2OC(C)C(O)C(O)C2O)CC2C3CC=C4CC(O)CCC4(C)C3CCC21C

>  <smiles>  (128) 
[H]OC1([H])C([H])([H])C2=C([H])C([H])([H])C3([H])C([H])(C([H])([H])C([H])([H])C4(C([H])([H])[H])C([H])(C(=O)C([H])([H])[H])C([H])(OC5([H])OC([H])(C([H])([H])[H])C([H])(O[H])C([H])(O[H])C5([H])O[H])C([H])([H])C34[H])C2(C([H])([H])[H])C([H])([H])C1([H])[H]

$$$$
36:0:2
     RDKit          3D

 76 80  0  0  1  0  0  0  0  0999 V2000
    5.6542   -5.3115    3.8758 C   0  0  0  0  0  0  0  0  0  0  0  0
    4.5048   -5.7548    4.7975 C   0  0  0  0  0  0  0  0  0  0  0  0
    4.7397   -6.4282    5.7938 O   0  0  0  0  0  0  0  0  0  0  0  0
    3.0639   -5.2434    4.5260 C   0  0  2  0  0  0  0  0  0  0  0  0
    2.6976   -5.4357    3.0069 C   0  0  1  0  0  0  0  0  0  0  0  0
    1.4590   -6.0891    2.7151 O   0  0  0  0  0  0  0  0  0  0  0  0
    1.3104   -7.3771    3.2285 C   0  0  2  0  0  0  0  0  0  0  0  0
    2.2773   -8.2425    2.6925 O   0  0  0  0  0  0  0  0  0  0  0  0
    2.2885   -9.5652    3.2133 C   0  0  1  0  0  0  0  0  0  0  0  0
    2.6730   -9.5916    4.7184 C   0  0  0  0  0  0  0  0  0  0  0  0
    0.9296  -10.1832    2.8555 C   0  0  1  0  0  0  0  0  0  0  0  0
    0.8108  -11.5038    3.3286 O   0  0  0  0  0  0  0  0  0  0  0  0
   -0.2396   -9.3226    3.3459 C   0  0  1  0  0  0  0  0  0  0  0  0
   -0.2742   -9.3936    4.7522 O   0  0  0  0  0  0  0  0  0  0  0  0
   -0.0927   -7.8699    2.8623 C   0  0  1  0  0  0  0  0  0  0  0  0
   -1.0782   -7.1178    3.5320 O   0  0  0  0  0  0  0  0  0  0  0  0
    2.7189   -4.0157    2.4190 C   0  0  0  0  0  0  0  0  0  0  0  0
    3.2980   -3.0750    3.5245 C   0  0  1  0  0  0  0  0  0  0  0  0
    2.8938   -1.5733    3.4327 C   0  0  1  0  0  0  0  0  0  0  0  0
    3.2291   -1.0125    2.0515 C   0  0  0  0  0  0  0  0  0  0  0  0
    2.7416    0.3940    1.8677 C   0  0  0  0  0  0  0  0  0  0  0  0
    1.7946    0.9748    2.6446 C   0  0  0  0  0  0  0  0  0  0  0  0
    1.4339    2.4405    2.4798 C   0  0  0  0  0  0  0  0  0  0  0  0
    1.7114    3.2124    3.7769 C   0  0  1  0  0  0  0  0  0  0  0  0
    1.1819    4.5086    3.6334 O   0  0  0  0  0  0  0  0  0  0  0  0
    1.0875    2.5461    5.0172 C   0  0  0  0  0  0  0  0  0  0  0  0
    1.4373    1.0348    5.0925 C   0  0  0  0  0  0  0  0  0  0  0  0
    1.0680    0.2570    3.7883 C   0  0  1  0  0  0  0  0  0  0  0  0
   -0.4599    0.3340    3.5558 C   0  0  0  0  0  0  0  0  0  0  0  0
    1.4135   -1.2761    3.8335 C   0  0  2  0  0  0  0  0  0  0  0  0
    1.0500   -1.9670    5.1741 C   0  0  0  0  0  0  0  0  0  0  0  0
    1.3339   -3.4678    5.1403 C   0  0  0  0  0  0  0  0  0  0  0  0
    2.8576   -3.7415    4.8534 C   0  0  1  0  0  0  0  0  0  0  0  0
    3.6757   -3.2681    6.0752 C   0  0  0  0  0  0  0  0  0  0  0  0
    5.6830   -4.2870    3.8253 H   0  0  0  0  0  0  0  0  0  0  0  0
    5.5412   -5.7302    2.8764 H   0  0  0  0  0  0  0  0  0  0  0  0
    6.6165   -5.7133    4.2450 H   0  0  0  0  0  0  0  0  0  0  0  0
    2.4229   -5.8070    5.1931 H   0  0  0  0  0  0  0  0  0  0  0  0
    3.4361   -6.0286    2.4646 H   0  0  0  0  0  0  0  0  0  0  0  0
    1.4115   -7.3937    4.3011 H   0  0  0  0  0  0  0  0  0  0  0  0
    3.0401  -10.1106    2.6489 H   0  0  0  0  0  0  0  0  0  0  0  0
    2.6293  -10.6091    5.1110 H   0  0  0  0  0  0  0  0  0  0  0  0
    2.0450   -8.9482    5.3181 H   0  0  0  0  0  0  0  0  0  0  0  0
    3.7033   -9.2762    4.8797 H   0  0  0  0  0  0  0  0  0  0  0  0
    0.8564  -10.2392    1.7664 H   0  0  0  0  0  0  0  0  0  0  0  0
    0.9133  -11.4876    4.2719 H   0  0  0  0  0  0  0  0  0  0  0  0
   -1.1789   -9.7424    2.9737 H   0  0  0  0  0  0  0  0  0  0  0  0
   -0.8569  -10.1153    4.9658 H   0  0  0  0  0  0  0  0  0  0  0  0
   -0.2244   -7.8209    1.7762 H   0  0  0  0  0  0  0  0  0  0  0  0
   -1.0282   -7.3921    4.4422 H   0  0  0  0  0  0  0  0  0  0  0  0
    3.3414   -3.9691    1.5396 H   0  0  0  0  0  0  0  0  0  0  0  0
    1.6965   -3.7339    2.0942 H   0  0  0  0  0  0  0  0  0  0  0  0
    4.3348   -3.0817    3.4420 H   0  0  0  0  0  0  0  0  0  0  0  0
    3.5006   -1.0515    4.1526 H   0  0  0  0  0  0  0  0  0  0  0  0
    4.3143   -1.0383    1.9181 H   0  0  0  0  0  0  0  0  0  0  0  0
    2.8109   -1.6122    1.2391 H   0  0  0  0  0  0  0  0  0  0  0  0
    3.2153    0.9488    1.0715 H   0  0  0  0  0  0  0  0  0  0  0  0
    1.9963    2.8787    1.6510 H   0  0  0  0  0  0  0  0  0  0  0  0
    0.3871    2.5020    2.1871 H   0  0  0  0  0  0  0  0  0  0  0  0
    2.7935    3.2760    3.9102 H   0  0  0  0  0  0  0  0  0  0  0  0
    1.0219    4.6641    2.7076 H   0  0  0  0  0  0  0  0  0  0  0  0
    1.4180    3.0563    5.9306 H   0  0  0  0  0  0  0  0  0  0  0  0
    0.0033    2.6585    4.9943 H   0  0  0  0  0  0  0  0  0  0  0  0
    2.5085    0.9335    5.2979 H   0  0  0  0  0  0  0  0  0  0  0  0
    0.9280    0.6138    5.9615 H   0  0  0  0  0  0  0  0  0  0  0  0
   -1.0194   -0.2050    4.3191 H   0  0  0  0  0  0  0  0  0  0  0  0
   -0.6956   -0.1232    2.5988 H   0  0  0  0  0  0  0  0  0  0  0  0
   -0.8778    1.3418    3.5302 H   0  0  0  0  0  0  0  0  0  0  0  0
    0.8219   -1.7586    3.0633 H   0  0  0  0  0  0  0  0  0  0  0  0
    1.6038   -1.5083    5.9971 H   0  0  0  0  0  0  0  0  0  0  0  0
   -0.0029   -1.8070    5.4260 H   0  0  0  0  0  0  0  0  0  0  0  0
    1.0322   -3.9210    6.0800 H   0  0  0  0  0  0  0  0  0  0  0  0
    0.6989   -3.9272    4.3950 H   0  0  0  0  0  0  0  0  0  0  0  0
    3.6160   -2.1934    6.2427 H   0  0  0  0  0  0  0  0  0  0  0  0
    4.7473   -3.4852    5.9835 H   0  0  0  0  0  0  0  0  0  0  0  0
    3.3386   -3.7442    6.9876 H   0  0  0  0  0  0  0  0  0  0  0  0
  1  2  1  0
  1 35  1  0
  1 36  1  0
  1 37  1  0
  2  3  2  0
  2  4  1  0
  4 33  1  0
  4  5  1  0
  4 38  1  1
  5  6  1  0
  5 17  1  0
  5 39  1  6
  6  7  1  0
  7 15  1  0
  7  8  1  0
  7 40  1  1
  8  9  1  0
  9 10  1  0
  9 11  1  0
  9 41  1  6
 10 42  1  0
 10 43  1  0
 10 44  1  0
 11 12  1  0
 11 13  1  0
 11 45  1  6
 12 46  1  0
 13 14  1  0
 13 15  1  0
 13 47  1  6
 14 48  1  0
 15 16  1  0
 15 49  1  6
 16 50  1  0
 17 18  1  0
 17 51  1  0
 17 52  1  0
 18 33  1  0
 18 19  1  0
 18 53  1  1
 19 30  1  0
 19 20  1  0
 19 54  1  1
 20 21  1  0
 20 55  1  0
 20 56  1  0
 21 22  2  0
 21 57  1  0
 22 28  1  0
 22 23  1  0
 23 24  1  0
 23 58  1  0
 23 59  1  0
 24 25  1  0
 24 26  1  0
 24 60  1  1
 25 61  1  0
 26 27  1  0
 26 62  1  0
 26 63  1  0
 27 28  1  0
 27 64  1  0
 27 65  1  0
 28 29  1  6
 28 30  1  0
 29 66  1  0
 29 67  1  0
 29 68  1  0
 30 31  1  0
 30 69  1  6
 31 32  1  0
 31 70  1  0
 31 71  1  0
 32 33  1  0
 32 72  1  0
 32 73  1  0
 33 34  1  1
 34 74  1  0
 34 75  1  0
 34 76  1  0
M  END
>  <i_m_ct_stereo_status>  (129) 
1

>  <s_m_source_file>  (129) 
/var/tmp/pbs.5076255.sched01/tmp68k5m_u8/43t0xmz28c.sdf

>  <i_m_source_file_index>  (129) 
11

>  <i_lp_mmshare_version>  (129) 
48012

>  <i_f3d_flags>  (129) 
0

>  <s_epik_input>  (129) 
W09IXVtDQEBIXTFbQ0BIXShbT0hdKVtDQEhdKFtPSF0pW0NASF0oW0NIM10pT1tDQEhdMU9bQ0BASF0oW0NIMl0yKVtDQEBIXShDKD1PKVtDSDNdKVtDQF0oW0NIM10pKFtDSDJdW0NIMl1bQ0BIXTM0KVtDQEBIXTJbQ0BIXTNbQ0gyXVtDSF09QyhbQ0BAXTQ1W0NIM10pW0NIMl1bQ0BASF0oW09IXSlbQ0gyXVtDSDJdNQ==

>  <s_epik_cmdline>  (129) 
J2VwaWtfcHl0aG9uJywgJy1waHQnLCAnMi4wJywgJy1waCcsICc3LjAnLCAnLXRuJywgJzgnLCAnLW1hJywgJzIwMCcsICctaW1hZScsICc8aW5maWxlLm1hZT4nLCAnLW9tYWUnLCAnPG91dGZpbGUubWFlPic=

>  <r_lp_tautomer_probability>  (129) 
1

>  <r_epik_Ionization_Penalty>  (129) 
2.92116e-06

>  <r_epik_Ionization_Penalty_Charging>  (129) 
0

>  <r_epik_Ionization_Penalty_Neutral>  (129) 
2.92116e-06

>  <r_epik_State_Penalty>  (129) 
-0

>  <r_epik_Charging_Adjusted_Penalty>  (129) 
0

>  <i_epik_Tot_Q>  (129) 
0

>  <i_epik_Tot_abs_Q>  (129) 
0

>  <s_epik_Chemistry_Notes>  (129) 
This compound contains an acetal/aminal-like group ( X-CH(R)-Y where X, Y are N, S, or O) that may be acid/base labile, releasing an aldehyde.

>  <s_lp_Force_Field>  (129) 
OPLS3e

>  <r_lp_Energy>  (129) 
41.1784

>  <b_lp_Chiralities_Consistent>  (129) 
1

>  <s_lp_Variant>  (129) 
36:0-1

>  <s_i_glide_gridfile>  (129) 
pfpi4k_grid

>  <i_i_glide_lignum>  (129) 
11

>  <i_i_glide_rotatable_bonds>  (129) 
7

>  <r_i_docking_score>  (129) 
-3.02802

>  <r_i_glide_ligand_efficiency>  (129) 
-0.0890594

>  <r_i_glide_ligand_efficiency_sa>  (129) 
-0.288518

>  <r_i_glide_ligand_efficiency_ln>  (129) 
-0.668975

>  <r_i_glide_gscore>  (129) 
-3.02802

>  <r_i_glide_lipo>  (129) 
-0.145647

>  <r_i_glide_hbond>  (129) 
-0.0993665

>  <r_i_glide_metal>  (129) 
-0

>  <r_i_glide_rewards>  (129) 
-0.145785

>  <r_i_glide_evdw>  (129) 
-27.8121

>  <r_i_glide_ecoul>  (129) 
-9.37878

>  <r_i_glide_erotb>  (129) 
0.176935

>  <r_i_glide_esite>  (129) 
-0.0167322

>  <r_i_glide_emodel>  (129) 
-39.5507

>  <r_i_glide_energy>  (129) 
-37.1909

>  <r_i_glide_einternal>  (129) 
7.25173

>  <r_i_glide_intrahb_reward>  (129) 
-0

>  <i_i_glide_confnum>  (129) 
1

>  <i_i_glide_posenum>  (129) 
10

>  <r_i_glide_eff_state_penalty>  (129) 
0

>  <ligand_id>  (129) 
36

>  <original_smiles>  (129) 
CC(=O)C1C(OC2OC(C)C(O)C(O)C2O)CC2C3CC=C4CC(O)CCC4(C)C3CCC21C

>  <smiles>  (129) 
[H]OC1([H])C([H])([H])C2=C([H])C([H])([H])C3([H])C([H])(C([H])([H])C([H])([H])C4(C([H])([H])[H])C([H])(C(=O)C([H])([H])[H])C([H])(OC5([H])OC([H])(C([H])([H])[H])C([H])(O[H])C([H])(O[H])C5([H])O[H])C([H])([H])C34[H])C2(C([H])([H])[H])C([H])([H])C1([H])[H]

$$$$
37:0:0
     RDKit          3D

 60 65  0  0  1  0  0  0  0  0999 V2000
   -0.2267   -7.4364    1.0147 C   0  0  0  0  0  0  0  0  0  0  0  0
    0.3867   -6.2599    0.5374 O   0  0  0  0  0  0  0  0  0  0  0  0
    1.3869   -5.8226    1.5624 O   0  0  0  0  0  0  0  0  0  0  0  0
    2.6199   -5.5864    0.9094 C   0  0  2  0  0  0  0  0  0  0  0  0
    3.7865   -6.2551    1.7791 C   0  0  1  0  0  0  0  0  0  0  0  0
    5.1174   -6.7669    1.0950 C   0  0  0  0  0  0  0  0  0  0  0  0
    6.0422   -5.6579    0.4372 C   0  0  2  0  0  0  0  0  0  0  0  0
    7.0138   -4.7131    1.2391 C   0  0  0  0  0  0  0  0  0  0  0  0
    6.5708   -3.1819    1.4384 C   0  0  0  0  0  0  0  0  0  0  0  0
    5.0252   -2.8193    1.3907 C   0  0  2  0  0  0  0  0  0  0  0  0
    4.6805   -2.2082    2.6196 O   0  0  0  0  0  0  0  0  0  0  0  0
    4.3729   -4.1394    1.2256 C   0  0  2  0  0  0  0  0  0  0  0  0
    4.3501   -5.0699    2.5051 C   0  0  1  0  0  0  0  0  0  0  0  0
    3.5473   -4.7281    3.6230 O   0  0  0  0  0  0  0  0  0  0  0  0
    5.0340   -4.7223   -0.1460 C   0  0  1  0  0  0  0  0  0  0  0  0
    5.5962   -3.7389   -1.2550 C   0  0  1  0  0  0  0  0  0  0  0  0
    5.3178   -4.2749   -2.5411 O   0  0  0  0  0  0  0  0  0  0  0  0
    5.0955   -2.2690   -1.1324 C   0  0  1  0  0  0  0  0  0  0  0  0
    6.2273   -1.4618   -1.0824 O   0  0  0  0  0  0  0  0  0  0  0  0
    4.3655   -1.7159   -2.3787 C   0  0  0  0  0  0  0  0  0  0  0  0
    2.8952   -2.1401   -2.4081 C   0  0  0  0  0  0  0  0  0  0  0  0
    2.5930   -3.2292   -1.4283 N   0  0  2  0  0  0  0  0  0  0  0  0
    1.2237   -3.7236   -1.6418 C   0  0  0  0  0  0  0  0  0  0  0  0
    2.9071   -2.8616   -0.0178 C   0  0  1  0  0  0  0  0  0  0  0  0
    2.9265   -4.0366    0.9810 C   0  0  1  0  0  0  0  0  0  0  0  0
    4.2996   -2.0746    0.1862 C   0  0  1  0  0  0  0  0  0  0  0  0
    4.0912   -0.5545    0.4974 C   0  0  0  0  0  0  0  0  0  0  0  0
    2.9514   -0.2616    1.2907 O   0  0  0  0  0  0  0  0  0  0  0  0
   -0.8987   -7.8576    0.2681 H   0  0  0  0  0  0  0  0  0  0  0  0
   -0.8328   -7.1978    1.8888 H   0  0  0  0  0  0  0  0  0  0  0  0
    0.5099   -8.1952    1.2820 H   0  0  0  0  0  0  0  0  0  0  0  0
    2.5826   -5.9953   -0.1037 H   0  0  0  0  0  0  0  0  0  0  0  0
    3.3818   -7.0309    2.4368 H   0  0  0  0  0  0  0  0  0  0  0  0
    5.7123   -7.3236    1.8157 H   0  0  0  0  0  0  0  0  0  0  0  0
    4.8401   -7.4827    0.3211 H   0  0  0  0  0  0  0  0  0  0  0  0
    6.6683   -6.1830   -0.2713 H   0  0  0  0  0  0  0  0  0  0  0  0
    7.2970   -5.1820    2.1795 H   0  0  0  0  0  0  0  0  0  0  0  0
    7.9419   -4.7095    0.6620 H   0  0  0  0  0  0  0  0  0  0  0  0
    6.8254   -2.9313    2.4507 H   0  0  0  0  0  0  0  0  0  0  0  0
    7.2237   -2.5448    0.8356 H   0  0  0  0  0  0  0  0  0  0  0  0
    5.1345   -1.3774    2.6773 H   0  0  0  0  0  0  0  0  0  0  0  0
    5.3171   -5.2729    2.9588 H   0  0  0  0  0  0  0  0  0  0  0  0
    2.6668   -4.5589    3.3147 H   0  0  0  0  0  0  0  0  0  0  0  0
    4.3671   -5.3372   -0.7335 H   0  0  0  0  0  0  0  0  0  0  0  0
    6.6855   -3.7378   -1.1808 H   0  0  0  0  0  0  0  0  0  0  0  0
    4.5102   -4.7753   -2.5546 H   0  0  0  0  0  0  0  0  0  0  0  0
    6.7062   -1.7156   -0.2974 H   0  0  0  0  0  0  0  0  0  0  0  0
    4.3829   -0.6327   -2.4171 H   0  0  0  0  0  0  0  0  0  0  0  0
    4.8547   -1.9834   -3.3166 H   0  0  0  0  0  0  0  0  0  0  0  0
    2.2681   -1.2612   -2.2595 H   0  0  0  0  0  0  0  0  0  0  0  0
    2.6467   -2.4713   -3.4226 H   0  0  0  0  0  0  0  0  0  0  0  0
    0.3697   -3.0691   -1.4933 H   0  0  0  0  0  0  0  0  0  0  0  0
    1.0227   -4.6482   -1.0921 H   0  0  0  0  0  0  0  0  0  0  0  0
    1.2900   -3.8626   -2.7186 H   0  0  0  0  0  0  0  0  0  0  0  0
    2.0791   -2.2554    0.3315 H   0  0  0  0  0  0  0  0  0  0  0  0
    2.4069   -3.6082    1.8388 H   0  0  0  0  0  0  0  0  0  0  0  0
    4.9720   -0.1365    0.9809 H   0  0  0  0  0  0  0  0  0  0  0  0
    4.0158    0.0152   -0.4147 H   0  0  0  0  0  0  0  0  0  0  0  0
    2.1644   -0.3740    0.7648 H   0  0  0  0  0  0  0  0  0  0  0  0
    3.1691   -4.0164   -1.6782 H   0  0  0  0  0  0  0  0  0  0  0  0
  1  2  1  0
  1 29  1  0
  1 30  1  0
  1 31  1  0
  2  3  1  0
  3  4  1  0
  4 25  1  0
  4  5  1  0
  4 32  1  6
  5 13  1  0
  5  6  1  0
  5 33  1  1
  6  7  1  0
  6 34  1  0
  6 35  1  0
  7 15  1  0
  7  8  1  0
  7 36  1  6
  8  9  1  0
  8 37  1  0
  8 38  1  0
  9 10  1  0
  9 39  1  0
  9 40  1  0
 10 26  1  0
 10 11  1  1
 12 10  1  1
 11 41  1  0
 12 25  1  0
 12 13  1  0
 12 15  1  0
 13 14  1  0
 13 42  1  1
 14 43  1  0
 15 16  1  0
 15 44  1  6
 16 17  1  0
 16 18  1  0
 16 45  1  1
 17 46  1  0
 18 26  1  0
 18 19  1  1
 18 20  1  0
 19 47  1  0
 20 21  1  0
 20 48  1  0
 20 49  1  0
 21 22  1  0
 21 50  1  0
 21 51  1  0
 22 23  1  0
 22 24  1  0
 22 60  1  6
 23 52  1  0
 23 53  1  0
 23 54  1  0
 24 25  1  0
 24 26  1  0
 24 55  1  1
 25 56  1  1
 26 27  1  1
 27 28  1  0
 27 57  1  0
 27 58  1  0
 28 59  1  0
M  CHG  1  22   1
M  END
>  <i_m_ct_stereo_status>  (130) 
1

>  <s_m_source_file>  (130) 
/var/tmp/pbs.5076255.sched01/tmp68k5m_u8/43t0xmz28c.sdf

>  <i_m_source_file_index>  (130) 
12

>  <i_lp_mmshare_version>  (130) 
48012

>  <i_f3d_flags>  (130) 
0

>  <s_epik_input>  (130) 
W0NIMl0xW0NIMl1OKFtDSDNdKVtDQEhdMltDQEhdM1tDQEhdKE9PW0NIM10pW0NASF0oW0NAQEhdNFtPSF0pW0NIMl1bQ0BIXShbQ0gyXVtDSDJdNSlbQ0hdNltDQEBIXShbT0hdKVtDQF0xKFtPSF0pW0NAQF0yKFtDQF01KFtDQF0zNDYpW09IXSlbQ0gyXVtPSF0=

>  <s_epik_cmdline>  (130) 
J2VwaWtfcHl0aG9uJywgJy1waHQnLCAnMi4wJywgJy1waCcsICc3LjAnLCAnLXRuJywgJzgnLCAnLW1hJywgJzIwMCcsICctaW1hZScsICc8aW5maWxlLm1hZT4nLCAnLW9tYWUnLCAnPG91dGZpbGUubWFlPic=

>  <r_epik_Ionization_Penalty>  (130) 
0.00500135

>  <r_epik_Ionization_Penalty_Charging>  (130) 
0.00500088

>  <r_epik_Ionization_Penalty_Neutral>  (130) 
4.69692e-07

>  <r_epik_State_Penalty>  (130) 
0.00363555

>  <r_epik_Charging_Adjusted_Penalty>  (130) 
0.00863643

>  <i_epik_Tot_Q>  (130) 
1

>  <i_epik_Tot_abs_Q>  (130) 
1

>  <s_lp_Force_Field>  (130) 
OPLS3e

>  <r_lp_Energy>  (130) 
169.478

>  <b_lp_Chiralities_Consistent>  (130) 
1

>  <s_lp_Variant>  (130) 
37:0-1

>  <s_i_glide_gridfile>  (130) 
pfpi4k_grid

>  <i_i_glide_lignum>  (130) 
12

>  <i_i_glide_rotatable_bonds>  (130) 
8

>  <r_i_docking_score>  (130) 
-4.02525

>  <r_i_glide_ligand_efficiency>  (130) 
-0.143759

>  <r_i_glide_ligand_efficiency_sa>  (130) 
-0.436537

>  <r_i_glide_ligand_efficiency_ln>  (130) 
-0.929146

>  <r_i_glide_gscore>  (130) 
-4.02525

>  <r_i_glide_lipo>  (130) 
-0.631007

>  <r_i_glide_hbond>  (130) 
-0.322452

>  <r_i_glide_metal>  (130) 
-0

>  <r_i_glide_rewards>  (130) 
-0.692246

>  <r_i_glide_evdw>  (130) 
-9.4818

>  <r_i_glide_ecoul>  (130) 
-14.3477

>  <r_i_glide_erotb>  (130) 
0.246695

>  <r_i_glide_esite>  (130) 
0

>  <r_i_glide_emodel>  (130) 
-25.0896

>  <r_i_glide_energy>  (130) 
-23.8295

>  <r_i_glide_einternal>  (130) 
6.73769

>  <r_i_glide_intrahb_reward>  (130) 
-0

>  <i_i_glide_confnum>  (130) 
6

>  <i_i_glide_posenum>  (130) 
26

>  <r_i_glide_eff_state_penalty>  (130) 
0

>  <ligand_id>  (130) 
37

>  <original_smiles>  (130) 
COOC1C2CC3CCC4(O)C5(C2O)C3C(O)C2(O)CCN(C)C(C15)C24CO

>  <smiles>  (130) 
[H]OC([H])([H])C12C3(O[H])C([H])([H])C([H])([H])[N+]([H])(C([H])([H])[H])C1([H])C1([H])C([H])(OOC([H])([H])[H])C4([H])C([H])([H])C5([H])C([H])([H])C([H])([H])C2(O[H])C1(C4([H])O[H])C5([H])C3([H])O[H]

$$$$
37:0:1
     RDKit          3D

 60 65  0  0  1  0  0  0  0  0999 V2000
    0.7881   -8.2059    2.3112 C   0  0  0  0  0  0  0  0  0  0  0  0
    1.0991   -7.8020    0.9856 O   0  0  0  0  0  0  0  0  0  0  0  0
    1.2054   -6.3114    0.9229 O   0  0  0  0  0  0  0  0  0  0  0  0
    2.5617   -5.9592    0.7364 C   0  0  2  0  0  0  0  0  0  0  0  0
    3.5424   -6.7282    1.7610 C   0  0  1  0  0  0  0  0  0  0  0  0
    5.0492   -7.0014    1.4561 C   0  0  0  0  0  0  0  0  0  0  0  0
    5.9533   -5.7163    1.3621 C   0  0  2  0  0  0  0  0  0  0  0  0
    6.4880   -4.9657    2.6378 C   0  0  0  0  0  0  0  0  0  0  0  0
    5.7771   -3.5708    3.0231 C   0  0  0  0  0  0  0  0  0  0  0  0
    4.3196   -3.2468    2.4889 C   0  0  2  0  0  0  0  0  0  0  0  0
    3.5326   -2.9239    3.6255 O   0  0  0  0  0  0  0  0  0  0  0  0
    3.9229   -4.5286    1.8692 C   0  0  2  0  0  0  0  0  0  0  0  0
    3.6376   -5.7202    2.8591 C   0  0  1  0  0  0  0  0  0  0  0  0
    2.4814   -5.6311    3.6883 O   0  0  0  0  0  0  0  0  0  0  0  0
    5.0493   -4.7517    0.7131 C   0  0  1  0  0  0  0  0  0  0  0  0
    5.8241   -3.5397    0.0805 C   0  0  1  0  0  0  0  0  0  0  0  0
    6.0897   -3.8257   -1.2861 O   0  0  0  0  0  0  0  0  0  0  0  0
    5.1468   -2.1487    0.2804 C   0  0  1  0  0  0  0  0  0  0  0  0
    6.1650   -1.3214    0.8244 O   0  0  0  0  0  0  0  0  0  0  0  0
    4.7551   -1.4349   -1.0389 C   0  0  0  0  0  0  0  0  0  0  0  0
    3.4219   -1.9189   -1.6461 C   0  0  0  0  0  0  0  0  0  0  0  0
    2.9389   -3.1853   -1.0386 N   0  0  2  0  0  0  0  0  0  0  0  0
    1.7656   -3.7123   -1.7793 C   0  0  0  0  0  0  0  0  0  0  0  0
    2.7712   -3.0804    0.4422 C   0  0  1  0  0  0  0  0  0  0  0  0
    2.6273   -4.4354    1.1771 C   0  0  1  0  0  0  0  0  0  0  0  0
    3.9354   -2.2944    1.2568 C   0  0  1  0  0  0  0  0  0  0  0  0
    3.4161   -0.9090    1.7991 C   0  0  0  0  0  0  0  0  0  0  0  0
    2.7049   -0.0923    0.8669 O   0  0  0  0  0  0  0  0  0  0  0  0
    0.8721   -9.2896    2.3911 H   0  0  0  0  0  0  0  0  0  0  0  0
   -0.2179   -7.8756    2.5818 H   0  0  0  0  0  0  0  0  0  0  0  0
    1.4892   -7.8206    3.0472 H   0  0  0  0  0  0  0  0  0  0  0  0
    2.8300   -6.1342   -0.3101 H   0  0  0  0  0  0  0  0  0  0  0  0
    3.2396   -7.7604    2.0220 H   0  0  0  0  0  0  0  0  0  0  0  0
    5.4423   -7.6426    2.2395 H   0  0  0  0  0  0  0  0  0  0  0  0
    5.1143   -7.5840    0.5378 H   0  0  0  0  0  0  0  0  0  0  0  0
    6.7971   -5.9784    0.7327 H   0  0  0  0  0  0  0  0  0  0  0  0
    6.4987   -5.6410    3.4976 H   0  0  0  0  0  0  0  0  0  0  0  0
    7.5445   -4.7764    2.4507 H   0  0  0  0  0  0  0  0  0  0  0  0
    5.7789   -3.5281    4.1141 H   0  0  0  0  0  0  0  0  0  0  0  0
    6.4035   -2.7452    2.7130 H   0  0  0  0  0  0  0  0  0  0  0  0
    3.8862   -2.1383    4.0150 H   0  0  0  0  0  0  0  0  0  0  0  0
    4.4180   -5.9482    3.5839 H   0  0  0  0  0  0  0  0  0  0  0  0
    1.7098   -5.5470    3.1515 H   0  0  0  0  0  0  0  0  0  0  0  0
    4.6682   -5.2620   -0.1632 H   0  0  0  0  0  0  0  0  0  0  0  0
    6.8118   -3.5079    0.5252 H   0  0  0  0  0  0  0  0  0  0  0  0
    5.3193   -4.1223   -1.7358 H   0  0  0  0  0  0  0  0  0  0  0  0
    5.7923   -0.4670    0.9982 H   0  0  0  0  0  0  0  0  0  0  0  0
    4.6588   -0.3658   -0.8640 H   0  0  0  0  0  0  0  0  0  0  0  0
    5.5506   -1.4899   -1.7788 H   0  0  0  0  0  0  0  0  0  0  0  0
    2.6555   -1.1541   -1.5313 H   0  0  0  0  0  0  0  0  0  0  0  0
    3.5348   -2.0216   -2.7249 H   0  0  0  0  0  0  0  0  0  0  0  0
    0.9045   -3.0548   -1.7414 H   0  0  0  0  0  0  0  0  0  0  0  0
    1.4127   -4.6713   -1.4008 H   0  0  0  0  0  0  0  0  0  0  0  0
    2.0023   -3.8292   -2.8396 H   0  0  0  0  0  0  0  0  0  0  0  0
    1.8346   -2.5387    0.6036 H   0  0  0  0  0  0  0  0  0  0  0  0
    1.8165   -4.2389    1.8694 H   0  0  0  0  0  0  0  0  0  0  0  0
    2.6879   -1.0056    2.5999 H   0  0  0  0  0  0  0  0  0  0  0  0
    4.2468   -0.3242    2.1929 H   0  0  0  0  0  0  0  0  0  0  0  0
    2.0431   -0.5839    0.4313 H   0  0  0  0  0  0  0  0  0  0  0  0
    3.6678   -3.8864   -1.1949 H   0  0  0  0  0  0  0  0  0  0  0  0
  1  2  1  0
  1 29  1  0
  1 30  1  0
  1 31  1  0
  2  3  1  0
  3  4  1  0
  4 25  1  0
  4  5  1  0
  4 32  1  6
  5 13  1  0
  5  6  1  0
  5 33  1  1
  6  7  1  0
  6 34  1  0
  6 35  1  0
  7 15  1  0
  7  8  1  0
  7 36  1  6
  8  9  1  0
  8 37  1  0
  8 38  1  0
  9 10  1  0
  9 39  1  0
  9 40  1  0
 10 26  1  0
 10 11  1  1
 12 10  1  1
 11 41  1  0
 12 25  1  0
 12 13  1  0
 12 15  1  0
 13 14  1  0
 13 42  1  1
 14 43  1  0
 15 16  1  0
 15 44  1  6
 16 17  1  0
 16 18  1  0
 16 45  1  1
 17 46  1  0
 18 26  1  0
 18 19  1  1
 18 20  1  0
 19 47  1  0
 20 21  1  0
 20 48  1  0
 20 49  1  0
 21 22  1  0
 21 50  1  0
 21 51  1  0
 22 23  1  0
 22 24  1  0
 22 60  1  1
 23 52  1  0
 23 53  1  0
 23 54  1  0
 24 25  1  0
 24 26  1  0
 24 55  1  6
 25 56  1  1
 26 27  1  1
 27 28  1  0
 27 57  1  0
 27 58  1  0
 28 59  1  0
M  CHG  1  22   1
M  END
>  <i_m_ct_stereo_status>  (131) 
1

>  <s_m_source_file>  (131) 
/var/tmp/pbs.5076255.sched01/tmp68k5m_u8/43t0xmz28c.sdf

>  <i_m_source_file_index>  (131) 
12

>  <i_lp_mmshare_version>  (131) 
48012

>  <i_f3d_flags>  (131) 
0

>  <s_epik_input>  (131) 
W0NIMl0xW0NIMl1OKFtDSDNdKVtDQEhdMltDQEhdM1tDQEhdKE9PW0NIM10pW0NASF0oW0NAQEhdNFtPSF0pW0NIMl1bQ0BIXShbQ0gyXVtDSDJdNSlbQ0hdNltDQEBIXShbT0hdKVtDQF0xKFtPSF0pW0NAQF0yKFtDQF01KFtDQF0zNDYpW09IXSlbQ0gyXVtPSF0=

>  <s_epik_cmdline>  (131) 
J2VwaWtfcHl0aG9uJywgJy1waHQnLCAnMi4wJywgJy1waCcsICc3LjAnLCAnLXRuJywgJzgnLCAnLW1hJywgJzIwMCcsICctaW1hZScsICc8aW5maWxlLm1hZT4nLCAnLW9tYWUnLCAnPG91dGZpbGUubWFlPic=

>  <r_epik_Ionization_Penalty>  (131) 
0.00500135

>  <r_epik_Ionization_Penalty_Charging>  (131) 
0.00500088

>  <r_epik_Ionization_Penalty_Neutral>  (131) 
4.69692e-07

>  <r_epik_State_Penalty>  (131) 
0.00363555

>  <r_epik_Charging_Adjusted_Penalty>  (131) 
0.00863643

>  <i_epik_Tot_Q>  (131) 
1

>  <i_epik_Tot_abs_Q>  (131) 
1

>  <s_lp_Force_Field>  (131) 
OPLS3e

>  <r_lp_Energy>  (131) 
169.478

>  <b_lp_Chiralities_Consistent>  (131) 
1

>  <s_lp_Variant>  (131) 
37:0-1

>  <s_i_glide_gridfile>  (131) 
pfpi4k_grid

>  <i_i_glide_lignum>  (131) 
12

>  <i_i_glide_rotatable_bonds>  (131) 
8

>  <r_i_docking_score>  (131) 
-3.42005

>  <r_i_glide_ligand_efficiency>  (131) 
-0.122145

>  <r_i_glide_ligand_efficiency_sa>  (131) 
-0.370903

>  <r_i_glide_ligand_efficiency_ln>  (131) 
-0.789447

>  <r_i_glide_gscore>  (131) 
-3.42005

>  <r_i_glide_lipo>  (131) 
-0.410028

>  <r_i_glide_hbond>  (131) 
-0.28983

>  <r_i_glide_metal>  (131) 
-0

>  <r_i_glide_rewards>  (131) 
-0.692246

>  <r_i_glide_evdw>  (131) 
-14.5802

>  <r_i_glide_ecoul>  (131) 
-10.3042

>  <r_i_glide_erotb>  (131) 
0.246695

>  <r_i_glide_esite>  (131) 
0

>  <r_i_glide_emodel>  (131) 
-26.345

>  <r_i_glide_energy>  (131) 
-24.8844

>  <r_i_glide_einternal>  (131) 
3.49373

>  <r_i_glide_intrahb_reward>  (131) 
-0

>  <i_i_glide_confnum>  (131) 
6

>  <i_i_glide_posenum>  (131) 
14

>  <r_i_glide_eff_state_penalty>  (131) 
0

>  <ligand_id>  (131) 
37

>  <original_smiles>  (131) 
COOC1C2CC3CCC4(O)C5(C2O)C3C(O)C2(O)CCN(C)C(C15)C24CO

>  <smiles>  (131) 
[H]OC([H])([H])C12C3(O[H])C([H])([H])C([H])([H])[N+]([H])(C([H])([H])[H])C1([H])C1([H])C([H])(OOC([H])([H])[H])C4([H])C([H])([H])C5([H])C([H])([H])C([H])([H])C2(O[H])C1(C4([H])O[H])C5([H])C3([H])O[H]

$$$$
37:0:2
     RDKit          3D

 60 65  0  0  1  0  0  0  0  0999 V2000
    0.6375   -8.0972    2.3063 C   0  0  0  0  0  0  0  0  0  0  0  0
    0.9619   -7.7621    0.9756 O   0  0  0  0  0  0  0  0  0  0  0  0
    1.0923   -6.2751    0.8748 O   0  0  0  0  0  0  0  0  0  0  0  0
    2.4609   -5.9411    0.7233 C   0  0  2  0  0  0  0  0  0  0  0  0
    3.3726   -6.7685    1.7681 C   0  0  1  0  0  0  0  0  0  0  0  0
    4.9006   -7.0421    1.4719 C   0  0  0  0  0  0  0  0  0  0  0  0
    5.8343   -5.7614    1.4041 C   0  0  2  0  0  0  0  0  0  0  0  0
    6.3610   -5.0262    2.6997 C   0  0  0  0  0  0  0  0  0  0  0  0
    5.6665   -3.6223    3.1155 C   0  0  0  0  0  0  0  0  0  0  0  0
    4.2126   -3.2758    2.5555 C   0  0  2  0  0  0  0  0  0  0  0  0
    3.4167   -2.9580    3.6882 O   0  0  0  0  0  0  0  0  0  0  0  0
    3.8242   -4.5393    1.9053 C   0  0  2  0  0  0  0  0  0  0  0  0
    3.5110   -5.7525    2.8779 C   0  0  1  0  0  0  0  0  0  0  0  0
    2.3472   -5.6321    3.6717 O   0  0  0  0  0  0  0  0  0  0  0  0
    4.9654   -4.7667    0.7672 C   0  0  1  0  0  0  0  0  0  0  0  0
    5.7606   -3.5560    0.1629 C   0  0  1  0  0  0  0  0  0  0  0  0
    6.0612   -3.8363   -1.2027 O   0  0  0  0  0  0  0  0  0  0  0  0
    5.1093   -2.1537    0.3828 C   0  0  1  0  0  0  0  0  0  0  0  0
    6.1214   -1.3495    0.9497 O   0  0  0  0  0  0  0  0  0  0  0  0
    4.7434   -1.4202   -0.9446 C   0  0  0  0  0  0  0  0  0  0  0  0
    3.4215   -1.8670   -1.5899 C   0  0  0  0  0  0  0  0  0  0  0  0
    2.9108   -3.1475   -1.0053 N   0  0  2  0  0  0  0  0  0  0  0  0
    1.7284   -3.6499   -1.7820 C   0  0  0  0  0  0  0  0  0  0  0  0
    2.7164   -3.0634    0.4960 C   0  0  1  0  0  0  0  0  0  0  0  0
    2.5353   -4.4254    1.1948 C   0  0  1  0  0  0  0  0  0  0  0  0
    3.8695   -2.2970    1.3217 C   0  0  1  0  0  0  0  0  0  0  0  0
    3.3602   -0.9001    1.8320 C   0  0  0  0  0  0  0  0  0  0  0  0
    2.7141   -0.1182    0.8303 O   0  0  0  0  0  0  0  0  0  0  0  0
    0.6427   -9.1819    2.4366 H   0  0  0  0  0  0  0  0  0  0  0  0
   -0.3561   -7.7379    2.5665 H   0  0  0  0  0  0  0  0  0  0  0  0
    1.3741   -7.7379    2.9867 H   0  0  0  0  0  0  0  0  0  0  0  0
    2.7334   -6.0933   -0.3234 H   0  0  0  0  0  0  0  0  0  0  0  0
    3.0051   -7.7111    2.0534 H   0  0  0  0  0  0  0  0  0  0  0  0
    5.2872   -7.6884    2.2500 H   0  0  0  0  0  0  0  0  0  0  0  0
    4.9852   -7.5866    0.5478 H   0  0  0  0  0  0  0  0  0  0  0  0
    6.6854   -6.0154    0.7903 H   0  0  0  0  0  0  0  0  0  0  0  0
    6.3569   -5.7108    3.5490 H   0  0  0  0  0  0  0  0  0  0  0  0
    7.4212   -4.8568    2.4909 H   0  0  0  0  0  0  0  0  0  0  0  0
    5.6634   -3.6056    4.2045 H   0  0  0  0  0  0  0  0  0  0  0  0
    6.2825   -2.7931    2.8332 H   0  0  0  0  0  0  0  0  0  0  0  0
    3.7843   -2.1817    4.0914 H   0  0  0  0  0  0  0  0  0  0  0  0
    4.2889   -5.9996    3.6071 H   0  0  0  0  0  0  0  0  0  0  0  0
    2.2541   -6.4110    4.1932 H   0  0  0  0  0  0  0  0  0  0  0  0
    4.5824   -5.2540   -0.1303 H   0  0  0  0  0  0  0  0  0  0  0  0
    6.7409   -3.5429    0.6295 H   0  0  0  0  0  0  0  0  0  0  0  0
    5.2800   -4.0820   -1.6719 H   0  0  0  0  0  0  0  0  0  0  0  0
    5.7715   -0.4846    1.0692 H   0  0  0  0  0  0  0  0  0  0  0  0
    4.6615   -0.3487   -0.7483 H   0  0  0  0  0  0  0  0  0  0  0  0
    5.5616   -1.4734   -1.6707 H   0  0  0  0  0  0  0  0  0  0  0  0
    2.6637   -1.0961   -1.4752 H   0  0  0  0  0  0  0  0  0  0  0  0
    3.5524   -1.9678   -2.6588 H   0  0  0  0  0  0  0  0  0  0  0  0
    0.8889   -2.9602   -1.7652 H   0  0  0  0  0  0  0  0  0  0  0  0
    1.3662   -4.6018   -1.4121 H   0  0  0  0  0  0  0  0  0  0  0  0
    2.0056   -3.7540   -2.8296 H   0  0  0  0  0  0  0  0  0  0  0  0
    1.8053   -2.4980    0.6443 H   0  0  0  0  0  0  0  0  0  0  0  0
    1.7224   -4.2351    1.8896 H   0  0  0  0  0  0  0  0  0  0  0  0
    2.6340   -0.9784    2.6382 H   0  0  0  0  0  0  0  0  0  0  0  0
    4.1782   -0.3278    2.2539 H   0  0  0  0  0  0  0  0  0  0  0  0
    1.9723   -0.5774    0.4406 H   0  0  0  0  0  0  0  0  0  0  0  0
    3.6336   -3.8517   -1.1493 H   0  0  0  0  0  0  0  0  0  0  0  0
  1  2  1  0
  1 29  1  0
  1 30  1  0
  1 31  1  0
  2  3  1  0
  3  4  1  0
  4 25  1  0
  4  5  1  0
  4 32  1  6
  5 13  1  0
  5  6  1  0
  5 33  1  1
  6  7  1  0
  6 34  1  0
  6 35  1  0
  7 15  1  0
  7  8  1  0
  7 36  1  6
  8  9  1  0
  8 37  1  0
  8 38  1  0
  9 10  1  0
  9 39  1  0
  9 40  1  0
 10 26  1  0
 10 11  1  1
 12 10  1  1
 11 41  1  0
 12 25  1  0
 12 13  1  0
 12 15  1  0
 13 14  1  0
 13 42  1  1
 14 43  1  0
 15 16  1  0
 15 44  1  6
 16 17  1  0
 16 18  1  0
 16 45  1  1
 17 46  1  0
 18 26  1  0
 18 19  1  1
 18 20  1  0
 19 47  1  0
 20 21  1  0
 20 48  1  0
 20 49  1  0
 21 22  1  0
 21 50  1  0
 21 51  1  0
 22 23  1  0
 22 24  1  0
 22 60  1  1
 23 52  1  0
 23 53  1  0
 23 54  1  0
 24 25  1  0
 24 26  1  0
 24 55  1  6
 25 56  1  1
 26 27  1  1
 27 28  1  0
 27 57  1  0
 27 58  1  0
 28 59  1  0
M  CHG  1  22   1
M  END
>  <i_m_ct_stereo_status>  (132) 
1

>  <s_m_source_file>  (132) 
/var/tmp/pbs.5076255.sched01/tmp68k5m_u8/43t0xmz28c.sdf

>  <i_m_source_file_index>  (132) 
12

>  <i_lp_mmshare_version>  (132) 
48012

>  <i_f3d_flags>  (132) 
0

>  <s_epik_input>  (132) 
W0NIMl0xW0NIMl1OKFtDSDNdKVtDQEhdMltDQEhdM1tDQEhdKE9PW0NIM10pW0NASF0oW0NAQEhdNFtPSF0pW0NIMl1bQ0BIXShbQ0gyXVtDSDJdNSlbQ0hdNltDQEBIXShbT0hdKVtDQF0xKFtPSF0pW0NAQF0yKFtDQF01KFtDQF0zNDYpW09IXSlbQ0gyXVtPSF0=

>  <s_epik_cmdline>  (132) 
J2VwaWtfcHl0aG9uJywgJy1waHQnLCAnMi4wJywgJy1waCcsICc3LjAnLCAnLXRuJywgJzgnLCAnLW1hJywgJzIwMCcsICctaW1hZScsICc8aW5maWxlLm1hZT4nLCAnLW9tYWUnLCAnPG91dGZpbGUubWFlPic=

>  <r_epik_Ionization_Penalty>  (132) 
0.00500135

>  <r_epik_Ionization_Penalty_Charging>  (132) 
0.00500088

>  <r_epik_Ionization_Penalty_Neutral>  (132) 
4.69692e-07

>  <r_epik_State_Penalty>  (132) 
0.00363555

>  <r_epik_Charging_Adjusted_Penalty>  (132) 
0.00863643

>  <i_epik_Tot_Q>  (132) 
1

>  <i_epik_Tot_abs_Q>  (132) 
1

>  <s_lp_Force_Field>  (132) 
OPLS3e

>  <r_lp_Energy>  (132) 
169.478

>  <b_lp_Chiralities_Consistent>  (132) 
1

>  <s_lp_Variant>  (132) 
37:0-1

>  <s_i_glide_gridfile>  (132) 
pfpi4k_grid

>  <i_i_glide_lignum>  (132) 
12

>  <i_i_glide_rotatable_bonds>  (132) 
8

>  <r_i_docking_score>  (132) 
-3.41871

>  <r_i_glide_ligand_efficiency>  (132) 
-0.122097

>  <r_i_glide_ligand_efficiency_sa>  (132) 
-0.370758

>  <r_i_glide_ligand_efficiency_ln>  (132) 
-0.78914

>  <r_i_glide_gscore>  (132) 
-3.41871

>  <r_i_glide_lipo>  (132) 
-0.400741

>  <r_i_glide_hbond>  (132) 
-0.32

>  <r_i_glide_metal>  (132) 
-0

>  <r_i_glide_rewards>  (132) 
-0.692246

>  <r_i_glide_evdw>  (132) 
-13.7541

>  <r_i_glide_ecoul>  (132) 
-10.4226

>  <r_i_glide_erotb>  (132) 
0.246695

>  <r_i_glide_esite>  (132) 
-0.00131982

>  <r_i_glide_emodel>  (132) 
-25.3514

>  <r_i_glide_energy>  (132) 
-24.1768

>  <r_i_glide_einternal>  (132) 
4.70467

>  <r_i_glide_intrahb_reward>  (132) 
-0

>  <i_i_glide_confnum>  (132) 
6

>  <i_i_glide_posenum>  (132) 
12

>  <r_i_glide_eff_state_penalty>  (132) 
0

>  <ligand_id>  (132) 
37

>  <original_smiles>  (132) 
COOC1C2CC3CCC4(O)C5(C2O)C3C(O)C2(O)CCN(C)C(C15)C24CO

>  <smiles>  (132) 
[H]OC([H])([H])C12C3(O[H])C([H])([H])C([H])([H])[N+]([H])(C([H])([H])[H])C1([H])C1([H])C([H])(OOC([H])([H])[H])C4([H])C([H])([H])C5([H])C([H])([H])C([H])([H])C2(O[H])C1(C4([H])O[H])C5([H])C3([H])O[H]

$$$$
38:0:0
     RDKit          3D

 32 34  0  0  1  0  0  0  0  0999 V2000
   -0.8060   -9.1600    2.8991 C   0  0  0  0  0  0  0  0  0  0  0  0
   -1.1028   -7.8600    2.4434 C   0  0  0  0  0  0  0  0  0  0  0  0
   -0.1456   -7.0443    1.9529 N   0  0  0  0  0  0  0  0  0  0  0  0
    1.1191   -7.5324    1.9248 C   0  0  0  0  0  0  0  0  0  0  0  0
    2.1457   -6.6460    1.3953 C   0  0  0  0  0  0  0  0  0  0  0  0
    1.9017   -5.4564    0.8384 N   0  0  0  0  0  0  0  0  0  0  0  0
    3.0609   -4.8023    0.4304 C   0  0  0  0  0  0  0  0  0  0  0  0
    2.9106   -3.4923   -0.2846 C   0  0  0  0  0  0  0  0  0  0  0  0
    3.3119   -3.4260   -1.6767 N   0  0  0  0  0  0  0  0  0  0  0  0
    4.7554   -3.4600   -1.8378 C   0  0  0  0  0  0  0  0  0  0  0  0
    5.1605   -3.4317   -3.3102 C   0  0  0  0  0  0  0  0  0  0  0  0
    4.6107   -2.2693   -3.9239 O   0  0  0  0  0  0  0  0  0  0  0  0
    3.1884   -2.2343   -3.8428 C   0  0  0  0  0  0  0  0  0  0  0  0
    2.7689   -2.2662   -2.3660 C   0  0  0  0  0  0  0  0  0  0  0  0
    4.2053   -5.5149    0.7119 C   0  0  0  0  0  0  0  0  0  0  0  0
    3.8558   -7.0622    1.4347 S   0  0  0  0  0  0  0  0  0  0  0  0
    1.4180   -8.8329    2.3954 C   0  0  0  0  0  0  0  0  0  0  0  0
    0.4562   -9.6477    2.8794 N   0  0  0  0  0  0  0  0  0  0  0  0
   -1.5847   -9.8034    3.2778 H   0  0  0  0  0  0  0  0  0  0  0  0
   -2.1077   -7.4709    2.4616 H   0  0  0  0  0  0  0  0  0  0  0  0
    1.8543   -3.2115   -0.2353 H   0  0  0  0  0  0  0  0  0  0  0  0
    3.4234   -2.7056    0.2747 H   0  0  0  0  0  0  0  0  0  0  0  0
    5.2093   -2.6235   -1.3024 H   0  0  0  0  0  0  0  0  0  0  0  0
    5.1544   -4.3838   -1.4358 H   0  0  0  0  0  0  0  0  0  0  0  0
    6.2475   -3.4073   -3.3804 H   0  0  0  0  0  0  0  0  0  0  0  0
    4.8216   -4.3434   -3.8168 H   0  0  0  0  0  0  0  0  0  0  0  0
    2.8281   -1.3278   -4.3312 H   0  0  0  0  0  0  0  0  0  0  0  0
    2.7612   -3.0864   -4.3831 H   0  0  0  0  0  0  0  0  0  0  0  0
    1.6840   -2.2952   -2.3252 H   0  0  0  0  0  0  0  0  0  0  0  0
    3.0769   -1.3436   -1.8761 H   0  0  0  0  0  0  0  0  0  0  0  0
    5.2237   -5.2502    0.4955 H   0  0  0  0  0  0  0  0  0  0  0  0
    2.4167   -9.2406    2.3803 H   0  0  0  0  0  0  0  0  0  0  0  0
  1 18  2  0
  1  2  1  0
  1 19  1  0
  2  3  2  0
  2 20  1  0
  3  4  1  0
  4  5  1  0
  4 17  2  0
  5 16  1  0
  5  6  2  0
  6  7  1  0
  7  8  1  0
  7 15  2  0
  8  9  1  0
  8 21  1  0
  8 22  1  0
  9 14  1  0
  9 10  1  0
 10 11  1  0
 10 23  1  0
 10 24  1  0
 11 12  1  0
 11 25  1  0
 11 26  1  0
 12 13  1  0
 13 14  1  0
 13 27  1  0
 13 28  1  0
 14 29  1  0
 14 30  1  0
 15 16  1  0
 15 31  1  0
 17 18  1  0
 17 32  1  0
M  END
>  <i_m_ct_stereo_status>  (133) 
1

>  <s_m_source_file>  (133) 
/var/tmp/pbs.5076255.sched01/tmp68k5m_u8/43t0xmz28c.sdf

>  <i_m_source_file_index>  (133) 
13

>  <i_lp_mmshare_version>  (133) 
48012

>  <i_f3d_flags>  (133) 
0

>  <s_epik_input>  (133) 
W2NIXTFuW2NIXVtjSF1uYzEtYzJuYyhbY0hdczIpW0NIMl1OM1tDSDJdW0NIMl1PW0NIMl1bQ0gyXTM=

>  <s_epik_cmdline>  (133) 
J2VwaWtfcHl0aG9uJywgJy1waHQnLCAnMi4wJywgJy1waCcsICc3LjAnLCAnLXRuJywgJzgnLCAnLW1hJywgJzIwMCcsICctaW1hZScsICc8aW5maWxlLm1hZT4nLCAnLW9tYWUnLCAnPG91dGZpbGUubWFlPic=

>  <r_lp_tautomer_probability>  (133) 
1

>  <r_epik_Ionization_Penalty>  (133) 
0.027331

>  <r_epik_Ionization_Penalty_Charging>  (133) 
0

>  <r_epik_Ionization_Penalty_Neutral>  (133) 
0.027331

>  <r_epik_State_Penalty>  (133) 
0.0223619

>  <r_epik_Charging_Adjusted_Penalty>  (133) 
0.0223619

>  <i_epik_Tot_Q>  (133) 
0

>  <i_epik_Tot_abs_Q>  (133) 
0

>  <s_lp_Force_Field>  (133) 
OPLS3e

>  <r_lp_Energy>  (133) 
21.3053

>  <b_lp_Chiralities_Consistent>  (133) 
1

>  <s_lp_Variant>  (133) 
38:0-1

>  <s_i_glide_gridfile>  (133) 
pfpi4k_grid

>  <i_i_glide_lignum>  (133) 
13

>  <i_i_glide_rotatable_bonds>  (133) 
3

>  <r_i_docking_score>  (133) 
-3.58403

>  <r_i_glide_ligand_efficiency>  (133) 
-0.199113

>  <r_i_glide_ligand_efficiency_sa>  (133) 
-0.521824

>  <r_i_glide_ligand_efficiency_ln>  (133) 
-0.921258

>  <r_i_glide_gscore>  (133) 
-3.58403

>  <r_i_glide_lipo>  (133) 
-0.528657

>  <r_i_glide_hbond>  (133) 
-0.260334

>  <r_i_glide_metal>  (133) 
-0

>  <r_i_glide_rewards>  (133) 
-1.62047

>  <r_i_glide_evdw>  (133) 
-28.864

>  <r_i_glide_ecoul>  (133) 
-3.3643

>  <r_i_glide_erotb>  (133) 
0.773268

>  <r_i_glide_esite>  (133) 
0

>  <r_i_glide_emodel>  (133) 
-37.2451

>  <r_i_glide_energy>  (133) 
-32.2283

>  <r_i_glide_einternal>  (133) 
4.83915

>  <r_i_glide_intrahb_reward>  (133) 
-0

>  <i_i_glide_confnum>  (133) 
2

>  <i_i_glide_posenum>  (133) 
11

>  <r_i_glide_eff_state_penalty>  (133) 
0

>  <ligand_id>  (133) 
38

>  <original_smiles>  (133) 
c1cnc(-c2nc(CN3CCOCC3)cs2)cn1

>  <smiles>  (133) 
[H]c1nc([H])c(-c2nc(C([H])([H])N3C([H])([H])C([H])([H])OC([H])([H])C3([H])[H])c([H])s2)nc1[H]

$$$$
38:0:1
     RDKit          3D

 32 34  0  0  1  0  0  0  0  0999 V2000
    3.6448   -0.8907   -4.2446 C   0  0  0  0  0  0  0  0  0  0  0  0
    4.1984   -0.2507   -3.1181 C   0  0  0  0  0  0  0  0  0  0  0  0
    4.6417   -0.9478   -2.0482 N   0  0  0  0  0  0  0  0  0  0  0  0
    4.4881   -2.2909   -2.0919 C   0  0  0  0  0  0  0  0  0  0  0  0
    4.9418   -3.0747   -0.9467 C   0  0  0  0  0  0  0  0  0  0  0  0
    4.7413   -4.3817   -0.8063 N   0  0  0  0  0  0  0  0  0  0  0  0
    5.2546   -4.8950    0.3808 C   0  0  0  0  0  0  0  0  0  0  0  0
    4.9663   -6.3214    0.7211 C   0  0  0  0  0  0  0  0  0  0  0  0
    3.9601   -6.5856    1.7395 N   0  0  0  0  0  0  0  0  0  0  0  0
    3.8221   -8.0111    2.0203 C   0  0  0  0  0  0  0  0  0  0  0  0
    2.7404   -8.2716    3.0846 C   0  0  0  0  0  0  0  0  0  0  0  0
    1.4992   -7.7045    2.6670 O   0  0  0  0  0  0  0  0  0  0  0  0
    1.5902   -6.3050    2.4224 C   0  0  0  0  0  0  0  0  0  0  0  0
    2.6619   -6.0398    1.3568 C   0  0  0  0  0  0  0  0  0  0  0  0
    5.8966   -3.9503    1.1400 C   0  0  0  0  0  0  0  0  0  0  0  0
    5.8450   -2.3680    0.3964 S   0  0  0  0  0  0  0  0  0  0  0  0
    3.9315   -2.9293   -3.2248 C   0  0  0  0  0  0  0  0  0  0  0  0
    3.5283   -2.2353   -4.3118 N   0  0  0  0  0  0  0  0  0  0  0  0
    3.3036   -0.3256   -5.1015 H   0  0  0  0  0  0  0  0  0  0  0  0
    4.2936    0.8223   -3.0843 H   0  0  0  0  0  0  0  0  0  0  0  0
    4.6617   -6.8356   -0.1930 H   0  0  0  0  0  0  0  0  0  0  0  0
    5.8992   -6.8014    1.0207 H   0  0  0  0  0  0  0  0  0  0  0  0
    3.5673   -8.5544    1.1102 H   0  0  0  0  0  0  0  0  0  0  0  0
    4.7713   -8.4159    2.3668 H   0  0  0  0  0  0  0  0  0  0  0  0
    2.6060   -9.3411    3.2433 H   0  0  0  0  0  0  0  0  0  0  0  0
    3.0364   -7.8375    4.0418 H   0  0  0  0  0  0  0  0  0  0  0  0
    0.6231   -5.9375    2.0803 H   0  0  0  0  0  0  0  0  0  0  0  0
    1.8308   -5.7721    3.3454 H   0  0  0  0  0  0  0  0  0  0  0  0
    2.7386   -4.9634    1.2043 H   0  0  0  0  0  0  0  0  0  0  0  0
    2.3431   -6.4688    0.4060 H   0  0  0  0  0  0  0  0  0  0  0  0
    6.3487   -4.0831    2.1107 H   0  0  0  0  0  0  0  0  0  0  0  0
    3.8202   -3.9993   -3.2803 H   0  0  0  0  0  0  0  0  0  0  0  0
  1 18  2  0
  1  2  1  0
  1 19  1  0
  2  3  2  0
  2 20  1  0
  3  4  1  0
  4  5  1  0
  4 17  2  0
  5 16  1  0
  5  6  2  0
  6  7  1  0
  7  8  1  0
  7 15  2  0
  8  9  1  0
  8 21  1  0
  8 22  1  0
  9 14  1  0
  9 10  1  0
 10 11  1  0
 10 23  1  0
 10 24  1  0
 11 12  1  0
 11 25  1  0
 11 26  1  0
 12 13  1  0
 13 14  1  0
 13 27  1  0
 13 28  1  0
 14 29  1  0
 14 30  1  0
 15 16  1  0
 15 31  1  0
 17 18  1  0
 17 32  1  0
M  END
>  <i_m_ct_stereo_status>  (134) 
1

>  <s_m_source_file>  (134) 
/var/tmp/pbs.5076255.sched01/tmp68k5m_u8/43t0xmz28c.sdf

>  <i_m_source_file_index>  (134) 
13

>  <i_lp_mmshare_version>  (134) 
48012

>  <i_f3d_flags>  (134) 
0

>  <s_epik_input>  (134) 
W2NIXTFuW2NIXVtjSF1uYzEtYzJuYyhbY0hdczIpW0NIMl1OM1tDSDJdW0NIMl1PW0NIMl1bQ0gyXTM=

>  <s_epik_cmdline>  (134) 
J2VwaWtfcHl0aG9uJywgJy1waHQnLCAnMi4wJywgJy1waCcsICc3LjAnLCAnLXRuJywgJzgnLCAnLW1hJywgJzIwMCcsICctaW1hZScsICc8aW5maWxlLm1hZT4nLCAnLW9tYWUnLCAnPG91dGZpbGUubWFlPic=

>  <r_lp_tautomer_probability>  (134) 
1

>  <r_epik_Ionization_Penalty>  (134) 
0.027331

>  <r_epik_Ionization_Penalty_Charging>  (134) 
0

>  <r_epik_Ionization_Penalty_Neutral>  (134) 
0.027331

>  <r_epik_State_Penalty>  (134) 
0.0223619

>  <r_epik_Charging_Adjusted_Penalty>  (134) 
0.0223619

>  <i_epik_Tot_Q>  (134) 
0

>  <i_epik_Tot_abs_Q>  (134) 
0

>  <s_lp_Force_Field>  (134) 
OPLS3e

>  <r_lp_Energy>  (134) 
21.3053

>  <b_lp_Chiralities_Consistent>  (134) 
1

>  <s_lp_Variant>  (134) 
38:0-1

>  <s_i_glide_gridfile>  (134) 
pfpi4k_grid

>  <i_i_glide_lignum>  (134) 
13

>  <i_i_glide_rotatable_bonds>  (134) 
3

>  <r_i_docking_score>  (134) 
-3.3533

>  <r_i_glide_ligand_efficiency>  (134) 
-0.186294

>  <r_i_glide_ligand_efficiency_sa>  (134) 
-0.488229

>  <r_i_glide_ligand_efficiency_ln>  (134) 
-0.861948

>  <r_i_glide_gscore>  (134) 
-3.3533

>  <r_i_glide_lipo>  (134) 
-0.797328

>  <r_i_glide_hbond>  (134) 
-0.32

>  <r_i_glide_metal>  (134) 
-0

>  <r_i_glide_rewards>  (134) 
-1.62047

>  <r_i_glide_evdw>  (134) 
-26.3491

>  <r_i_glide_ecoul>  (134) 
-0.475433

>  <r_i_glide_erotb>  (134) 
0.773268

>  <r_i_glide_esite>  (134) 
0

>  <r_i_glide_emodel>  (134) 
-33.6331

>  <r_i_glide_energy>  (134) 
-26.8245

>  <r_i_glide_einternal>  (134) 
0.566805

>  <r_i_glide_intrahb_reward>  (134) 
-0

>  <i_i_glide_confnum>  (134) 
4

>  <i_i_glide_posenum>  (134) 
3

>  <r_i_glide_eff_state_penalty>  (134) 
0

>  <ligand_id>  (134) 
38

>  <original_smiles>  (134) 
c1cnc(-c2nc(CN3CCOCC3)cs2)cn1

>  <smiles>  (134) 
[H]c1nc([H])c(-c2nc(C([H])([H])N3C([H])([H])C([H])([H])OC([H])([H])C3([H])[H])c([H])s2)nc1[H]

$$$$
38:0:2
     RDKit          3D

 32 34  0  0  1  0  0  0  0  0999 V2000
    0.0147   -8.8215    2.9020 C   0  0  0  0  0  0  0  0  0  0  0  0
    1.2837   -9.3083    2.5114 C   0  0  0  0  0  0  0  0  0  0  0  0
    2.2160   -8.4990    1.9609 N   0  0  0  0  0  0  0  0  0  0  0  0
    1.8730   -7.2007    1.8033 C   0  0  0  0  0  0  0  0  0  0  0  0
    2.8466   -6.2828    1.2215 C   0  0  0  0  0  0  0  0  0  0  0  0
    2.6063   -4.9966    0.9575 N   0  0  0  0  0  0  0  0  0  0  0  0
    3.6992   -4.3566    0.3810 C   0  0  0  0  0  0  0  0  0  0  0  0
    3.5893   -2.9274   -0.0466 C   0  0  0  0  0  0  0  0  0  0  0  0
    3.7632   -2.6325   -1.4585 N   0  0  0  0  0  0  0  0  0  0  0  0
    3.9262   -1.2107   -1.7070 C   0  0  0  0  0  0  0  0  0  0  0  0
    4.0984   -0.9282   -3.2085 C   0  0  0  0  0  0  0  0  0  0  0  0
    2.9968   -1.4486   -3.9461 O   0  0  0  0  0  0  0  0  0  0  0  0
    2.7934   -2.8455   -3.7338 C   0  0  0  0  0  0  0  0  0  0  0  0
    2.6251   -3.1140   -2.2324 C   0  0  0  0  0  0  0  0  0  0  0  0
    4.7869   -5.1759    0.2281 C   0  0  0  0  0  0  0  0  0  0  0  0
    4.4787   -6.7969    0.7914 S   0  0  0  0  0  0  0  0  0  0  0  0
    0.6063   -6.7225    2.1989 C   0  0  0  0  0  0  0  0  0  0  0  0
   -0.3323   -7.5217    2.7441 N   0  0  0  0  0  0  0  0  0  0  0  0
   -0.7263   -9.4700    3.3498 H   0  0  0  0  0  0  0  0  0  0  0  0
    1.5502  -10.3455    2.6401 H   0  0  0  0  0  0  0  0  0  0  0  0
    2.6154   -2.5419    0.2563 H   0  0  0  0  0  0  0  0  0  0  0  0
    4.3172   -2.3512    0.5248 H   0  0  0  0  0  0  0  0  0  0  0  0
    3.0647   -0.6628   -1.3245 H   0  0  0  0  0  0  0  0  0  0  0  0
    4.7986   -0.8388   -1.1728 H   0  0  0  0  0  0  0  0  0  0  0  0
    4.1709    0.1445   -3.3901 H   0  0  0  0  0  0  0  0  0  0  0  0
    5.0045   -1.3933   -3.5750 H   0  0  0  0  0  0  0  0  0  0  0  0
    1.8991   -3.1640   -4.2717 H   0  0  0  0  0  0  0  0  0  0  0  0
    3.6366   -3.4148   -4.1334 H   0  0  0  0  0  0  0  0  0  0  0  0
    2.4908   -4.1789   -2.0570 H   0  0  0  0  0  0  0  0  0  0  0  0
    1.7025   -2.6419   -1.8954 H   0  0  0  0  0  0  0  0  0  0  0  0
    5.7345   -4.9251   -0.2211 H   0  0  0  0  0  0  0  0  0  0  0  0
    0.3417   -5.6876    2.0899 H   0  0  0  0  0  0  0  0  0  0  0  0
  1 18  2  0
  1  2  1  0
  1 19  1  0
  2  3  2  0
  2 20  1  0
  3  4  1  0
  4  5  1  0
  4 17  2  0
  5 16  1  0
  5  6  2  0
  6  7  1  0
  7  8  1  0
  7 15  2  0
  8  9  1  0
  8 21  1  0
  8 22  1  0
  9 14  1  0
  9 10  1  0
 10 11  1  0
 10 23  1  0
 10 24  1  0
 11 12  1  0
 11 25  1  0
 11 26  1  0
 12 13  1  0
 13 14  1  0
 13 27  1  0
 13 28  1  0
 14 29  1  0
 14 30  1  0
 15 16  1  0
 15 31  1  0
 17 18  1  0
 17 32  1  0
M  END
>  <i_m_ct_stereo_status>  (135) 
1

>  <s_m_source_file>  (135) 
/var/tmp/pbs.5076255.sched01/tmp68k5m_u8/43t0xmz28c.sdf

>  <i_m_source_file_index>  (135) 
13

>  <i_lp_mmshare_version>  (135) 
48012

>  <i_f3d_flags>  (135) 
0

>  <s_epik_input>  (135) 
W2NIXTFuW2NIXVtjSF1uYzEtYzJuYyhbY0hdczIpW0NIMl1OM1tDSDJdW0NIMl1PW0NIMl1bQ0gyXTM=

>  <s_epik_cmdline>  (135) 
J2VwaWtfcHl0aG9uJywgJy1waHQnLCAnMi4wJywgJy1waCcsICc3LjAnLCAnLXRuJywgJzgnLCAnLW1hJywgJzIwMCcsICctaW1hZScsICc8aW5maWxlLm1hZT4nLCAnLW9tYWUnLCAnPG91dGZpbGUubWFlPic=

>  <r_lp_tautomer_probability>  (135) 
1

>  <r_epik_Ionization_Penalty>  (135) 
0.027331

>  <r_epik_Ionization_Penalty_Charging>  (135) 
0

>  <r_epik_Ionization_Penalty_Neutral>  (135) 
0.027331

>  <r_epik_State_Penalty>  (135) 
0.0223619

>  <r_epik_Charging_Adjusted_Penalty>  (135) 
0.0223619

>  <i_epik_Tot_Q>  (135) 
0

>  <i_epik_Tot_abs_Q>  (135) 
0

>  <s_lp_Force_Field>  (135) 
OPLS3e

>  <r_lp_Energy>  (135) 
21.3053

>  <b_lp_Chiralities_Consistent>  (135) 
1

>  <s_lp_Variant>  (135) 
38:0-1

>  <s_i_glide_gridfile>  (135) 
pfpi4k_grid

>  <i_i_glide_lignum>  (135) 
13

>  <i_i_glide_rotatable_bonds>  (135) 
3

>  <r_i_docking_score>  (135) 
-3.14476

>  <r_i_glide_ligand_efficiency>  (135) 
-0.174709

>  <r_i_glide_ligand_efficiency_sa>  (135) 
-0.457866

>  <r_i_glide_ligand_efficiency_ln>  (135) 
-0.808344

>  <r_i_glide_gscore>  (135) 
-3.14476

>  <r_i_glide_lipo>  (135) 
-0.609658

>  <r_i_glide_hbond>  (135) 
0

>  <r_i_glide_metal>  (135) 
-0

>  <r_i_glide_rewards>  (135) 
-1.62047

>  <r_i_glide_evdw>  (135) 
-28.9522

>  <r_i_glide_ecoul>  (135) 
-1.60196

>  <r_i_glide_erotb>  (135) 
0.773268

>  <r_i_glide_esite>  (135) 
0

>  <r_i_glide_emodel>  (135) 
-37.0173

>  <r_i_glide_energy>  (135) 
-30.5541

>  <r_i_glide_einternal>  (135) 
0.294864

>  <r_i_glide_intrahb_reward>  (135) 
-0

>  <i_i_glide_confnum>  (135) 
4

>  <i_i_glide_posenum>  (135) 
27

>  <r_i_glide_eff_state_penalty>  (135) 
0

>  <ligand_id>  (135) 
38

>  <original_smiles>  (135) 
c1cnc(-c2nc(CN3CCOCC3)cs2)cn1

>  <smiles>  (135) 
[H]c1nc([H])c(-c2nc(C([H])([H])N3C([H])([H])C([H])([H])OC([H])([H])C3([H])[H])c([H])s2)nc1[H]

$$$$
38:1:0
     RDKit          3D

 33 35  0  0  1  0  0  0  0  0999 V2000
   -1.1058   -9.1859    2.9137 C   0  0  0  0  0  0  0  0  0  0  0  0
   -1.2653   -7.8525    2.4820 C   0  0  0  0  0  0  0  0  0  0  0  0
   -0.2224   -7.1172    2.0472 N   0  0  0  0  0  0  0  0  0  0  0  0
    0.9930   -7.7242    2.0396 C   0  0  0  0  0  0  0  0  0  0  0  0
    2.1136   -6.9289    1.5453 C   0  0  0  0  0  0  0  0  0  0  0  0
    1.9885   -5.7257    0.9758 N   0  0  0  0  0  0  0  0  0  0  0  0
    3.2117   -5.1635    0.6191 C   0  0  0  0  0  0  0  0  0  0  0  0
    3.2050   -3.7896    0.0354 C   0  0  0  0  0  0  0  0  0  0  0  0
    3.4644   -3.8322   -1.4230 N   0  0  0  0  0  0  0  0  0  0  0  0
    2.5413   -2.9639   -2.1898 C   0  0  0  0  0  0  0  0  0  0  0  0
    2.8436   -3.0059   -3.6936 C   0  0  0  0  0  0  0  0  0  0  0  0
    4.2048   -2.6552   -3.9192 O   0  0  0  0  0  0  0  0  0  0  0  0
    5.1039   -3.5388   -3.2614 C   0  0  0  0  0  0  0  0  0  0  0  0
    4.8696   -3.5078   -1.7467 C   0  0  0  0  0  0  0  0  0  0  0  0
    4.2853   -5.9829    0.8751 C   0  0  0  0  0  0  0  0  0  0  0  0
    3.7884   -7.4865    1.6120 S   0  0  0  0  0  0  0  0  0  0  0  0
    1.1518   -9.0591    2.4809 C   0  0  0  0  0  0  0  0  0  0  0  0
    0.1041   -9.7898    2.9180 N   0  0  0  0  0  0  0  0  0  0  0  0
   -1.9517   -9.7547    3.2718 H   0  0  0  0  0  0  0  0  0  0  0  0
   -2.2329   -7.3784    2.4843 H   0  0  0  0  0  0  0  0  0  0  0  0
    2.2334   -3.3318    0.2316 H   0  0  0  0  0  0  0  0  0  0  0  0
    3.9188   -3.1424    0.5462 H   0  0  0  0  0  0  0  0  0  0  0  0
    1.5069   -3.2677   -2.0232 H   0  0  0  0  0  0  0  0  0  0  0  0
    2.6313   -1.9376   -1.8320 H   0  0  0  0  0  0  0  0  0  0  0  0
    2.6263   -3.9892   -4.1119 H   0  0  0  0  0  0  0  0  0  0  0  0
    2.2051   -2.2912   -4.2171 H   0  0  0  0  0  0  0  0  0  0  0  0
    4.9959   -4.5508   -3.6536 H   0  0  0  0  0  0  0  0  0  0  0  0
    6.1261   -3.2215   -3.4744 H   0  0  0  0  0  0  0  0  0  0  0  0
    5.1044   -2.5143   -1.3666 H   0  0  0  0  0  0  0  0  0  0  0  0
    5.5361   -4.2108   -1.2506 H   0  0  0  0  0  0  0  0  0  0  0  0
    5.3314   -5.7921    0.6924 H   0  0  0  0  0  0  0  0  0  0  0  0
    2.1061   -9.5616    2.4874 H   0  0  0  0  0  0  0  0  0  0  0  0
    3.2810   -4.7796   -1.7544 H   0  0  0  0  0  0  0  0  0  0  0  0
  1 18  2  0
  1  2  1  0
  1 19  1  0
  2  3  2  0
  2 20  1  0
  3  4  1  0
  4  5  1  0
  4 17  2  0
  5 16  1  0
  5  6  2  0
  6  7  1  0
  7  8  1  0
  7 15  2  0
  8  9  1  0
  8 21  1  0
  8 22  1  0
  9 14  1  0
  9 10  1  0
  9 33  1  0
 10 11  1  0
 10 23  1  0
 10 24  1  0
 11 12  1  0
 11 25  1  0
 11 26  1  0
 12 13  1  0
 13 14  1  0
 13 27  1  0
 13 28  1  0
 14 29  1  0
 14 30  1  0
 15 16  1  0
 15 31  1  0
 17 18  1  0
 17 32  1  0
M  CHG  1   9   1
M  END
>  <i_m_ct_stereo_status>  (136) 
1

>  <s_m_source_file>  (136) 
/var/tmp/pbs.5076255.sched01/tmp68k5m_u8/43t0xmz28c.sdf

>  <i_m_source_file_index>  (136) 
14

>  <i_lp_mmshare_version>  (136) 
48012

>  <i_f3d_flags>  (136) 
0

>  <s_epik_input>  (136) 
W2NIXTFuW2NIXVtjSF1uYzEtYzJuYyhbY0hdczIpW0NIMl1OM1tDSDJdW0NIMl1PW0NIMl1bQ0gyXTM=

>  <s_epik_cmdline>  (136) 
J2VwaWtfcHl0aG9uJywgJy1waHQnLCAnMi4wJywgJy1waCcsICc3LjAnLCAnLXRuJywgJzgnLCAnLW1hJywgJzIwMCcsICctaW1hZScsICc8aW5maWxlLm1hZT4nLCAnLW9tYWUnLCAnPG91dGZpbGUubWFlPic=

>  <r_lp_tautomer_probability>  (136) 
1

>  <r_epik_Ionization_Penalty>  (136) 
1.83632

>  <r_epik_Ionization_Penalty_Charging>  (136) 
1.83632

>  <r_epik_Ionization_Penalty_Neutral>  (136) 
7.58539e-09

>  <r_epik_State_Penalty>  (136) 
1.9527

>  <r_epik_Charging_Adjusted_Penalty>  (136) 
3.78903

>  <i_epik_Tot_Q>  (136) 
1

>  <i_epik_Tot_abs_Q>  (136) 
1

>  <s_lp_Force_Field>  (136) 
OPLS3e

>  <r_lp_Energy>  (136) 
20.7488

>  <b_lp_Chiralities_Consistent>  (136) 
1

>  <s_lp_Variant>  (136) 
38:0-2

>  <s_i_glide_gridfile>  (136) 
pfpi4k_grid

>  <i_i_glide_lignum>  (136) 
14

>  <i_i_glide_rotatable_bonds>  (136) 
3

>  <r_i_docking_score>  (136) 
-4.64592

>  <r_i_glide_ligand_efficiency>  (136) 
-0.258107

>  <r_i_glide_ligand_efficiency_sa>  (136) 
-0.676431

>  <r_i_glide_ligand_efficiency_ln>  (136) 
-1.19421

>  <r_i_glide_gscore>  (136) 
-4.64592

>  <r_i_glide_lipo>  (136) 
-0.60022

>  <r_i_glide_hbond>  (136) 
-0.226266

>  <r_i_glide_metal>  (136) 
-0

>  <r_i_glide_rewards>  (136) 
-1.61359

>  <r_i_glide_evdw>  (136) 
-30.0563

>  <r_i_glide_ecoul>  (136) 
-9.74892

>  <r_i_glide_erotb>  (136) 
0.768171

>  <r_i_glide_esite>  (136) 
-0.00886179

>  <r_i_glide_emodel>  (136) 
-48.4

>  <r_i_glide_energy>  (136) 
-39.8052

>  <r_i_glide_einternal>  (136) 
7.2617

>  <r_i_glide_intrahb_reward>  (136) 
-0

>  <i_i_glide_confnum>  (136) 
3

>  <i_i_glide_posenum>  (136) 
22

>  <r_i_glide_eff_state_penalty>  (136) 
0

>  <ligand_id>  (136) 
38

>  <original_smiles>  (136) 
c1cnc(-c2nc(CN3CCOCC3)cs2)cn1

>  <smiles>  (136) 
[H]c1nc([H])c(-c2nc(C([H])([H])[N+]3([H])C([H])([H])C([H])([H])OC([H])([H])C3([H])[H])c([H])s2)nc1[H]

$$$$
38:1:1
     RDKit          3D

 33 35  0  0  1  0  0  0  0  0999 V2000
   -0.9608   -9.2599    2.9024 C   0  0  0  0  0  0  0  0  0  0  0  0
    0.3573   -9.7678    2.9344 C   0  0  0  0  0  0  0  0  0  0  0  0
    1.4092   -9.0427    2.4897 N   0  0  0  0  0  0  0  0  0  0  0  0
    1.1348   -7.8123    2.0006 C   0  0  0  0  0  0  0  0  0  0  0  0
    2.2389   -7.0026    1.4948 C   0  0  0  0  0  0  0  0  0  0  0  0
    2.1105   -5.7762    0.9766 N   0  0  0  0  0  0  0  0  0  0  0  0
    3.3332   -5.2213    0.5946 C   0  0  0  0  0  0  0  0  0  0  0  0
    3.3417   -3.8307    0.0493 C   0  0  0  0  0  0  0  0  0  0  0  0
    3.5501   -3.8377   -1.4178 N   0  0  0  0  0  0  0  0  0  0  0  0
    2.6144   -2.9338   -2.1259 C   0  0  0  0  0  0  0  0  0  0  0  0
    2.8600   -2.9383   -3.6412 C   0  0  0  0  0  0  0  0  0  0  0  0
    4.2138   -2.5963   -3.9064 O   0  0  0  0  0  0  0  0  0  0  0  0
    5.1271   -3.5069   -3.3018 C   0  0  0  0  0  0  0  0  0  0  0  0
    4.9460   -3.5166   -1.7812 C   0  0  0  0  0  0  0  0  0  0  0  0
    4.4006   -6.0605    0.7937 C   0  0  0  0  0  0  0  0  0  0  0  0
    3.9099   -7.5784    1.4990 S   0  0  0  0  0  0  0  0  0  0  0  0
   -0.1862   -7.3129    1.9728 C   0  0  0  0  0  0  0  0  0  0  0  0
   -1.2383   -8.0211    2.4339 N   0  0  0  0  0  0  0  0  0  0  0  0
   -1.7943   -9.8427    3.2678 H   0  0  0  0  0  0  0  0  0  0  0  0
    0.5640  -10.7520    3.3279 H   0  0  0  0  0  0  0  0  0  0  0  0
    2.3919   -3.3511    0.2912 H   0  0  0  0  0  0  0  0  0  0  0  0
    4.0928   -3.2174    0.5492 H   0  0  0  0  0  0  0  0  0  0  0  0
    1.5839   -3.2305   -1.9308 H   0  0  0  0  0  0  0  0  0  0  0  0
    2.7306   -1.9194   -1.7425 H   0  0  0  0  0  0  0  0  0  0  0  0
    2.6144   -3.9086   -4.0767 H   0  0  0  0  0  0  0  0  0  0  0  0
    2.2102   -2.2025   -4.1215 H   0  0  0  0  0  0  0  0  0  0  0  0
    4.9974   -4.5057   -3.7204 H   0  0  0  0  0  0  0  0  0  0  0  0
    6.1468   -3.1915   -3.5239 H   0  0  0  0  0  0  0  0  0  0  0  0
    5.2041   -2.5351   -1.3844 H   0  0  0  0  0  0  0  0  0  0  0  0
    5.6234   -4.2387   -1.3284 H   0  0  0  0  0  0  0  0  0  0  0  0
    5.4443   -5.8826    0.5852 H   0  0  0  0  0  0  0  0  0  0  0  0
   -0.4132   -6.3379    1.5776 H   0  0  0  0  0  0  0  0  0  0  0  0
    3.3482   -4.7753   -1.7663 H   0  0  0  0  0  0  0  0  0  0  0  0
  1 18  2  0
  1  2  1  0
  1 19  1  0
  2  3  2  0
  2 20  1  0
  3  4  1  0
  4  5  1  0
  4 17  2  0
  5 16  1  0
  5  6  2  0
  6  7  1  0
  7  8  1  0
  7 15  2  0
  8  9  1  0
  8 21  1  0
  8 22  1  0
  9 14  1  0
  9 10  1  0
  9 33  1  0
 10 11  1  0
 10 23  1  0
 10 24  1  0
 11 12  1  0
 11 25  1  0
 11 26  1  0
 12 13  1  0
 13 14  1  0
 13 27  1  0
 13 28  1  0
 14 29  1  0
 14 30  1  0
 15 16  1  0
 15 31  1  0
 17 18  1  0
 17 32  1  0
M  CHG  1   9   1
M  END
>  <i_m_ct_stereo_status>  (137) 
1

>  <s_m_source_file>  (137) 
/var/tmp/pbs.5076255.sched01/tmp68k5m_u8/43t0xmz28c.sdf

>  <i_m_source_file_index>  (137) 
14

>  <i_lp_mmshare_version>  (137) 
48012

>  <i_f3d_flags>  (137) 
0

>  <s_epik_input>  (137) 
W2NIXTFuW2NIXVtjSF1uYzEtYzJuYyhbY0hdczIpW0NIMl1OM1tDSDJdW0NIMl1PW0NIMl1bQ0gyXTM=

>  <s_epik_cmdline>  (137) 
J2VwaWtfcHl0aG9uJywgJy1waHQnLCAnMi4wJywgJy1waCcsICc3LjAnLCAnLXRuJywgJzgnLCAnLW1hJywgJzIwMCcsICctaW1hZScsICc8aW5maWxlLm1hZT4nLCAnLW9tYWUnLCAnPG91dGZpbGUubWFlPic=

>  <r_lp_tautomer_probability>  (137) 
1

>  <r_epik_Ionization_Penalty>  (137) 
1.83632

>  <r_epik_Ionization_Penalty_Charging>  (137) 
1.83632

>  <r_epik_Ionization_Penalty_Neutral>  (137) 
7.58539e-09

>  <r_epik_State_Penalty>  (137) 
1.9527

>  <r_epik_Charging_Adjusted_Penalty>  (137) 
3.78903

>  <i_epik_Tot_Q>  (137) 
1

>  <i_epik_Tot_abs_Q>  (137) 
1

>  <s_lp_Force_Field>  (137) 
OPLS3e

>  <r_lp_Energy>  (137) 
20.7488

>  <b_lp_Chiralities_Consistent>  (137) 
1

>  <s_lp_Variant>  (137) 
38:0-2

>  <s_i_glide_gridfile>  (137) 
pfpi4k_grid

>  <i_i_glide_lignum>  (137) 
14

>  <i_i_glide_rotatable_bonds>  (137) 
3

>  <r_i_docking_score>  (137) 
-4.41458

>  <r_i_glide_ligand_efficiency>  (137) 
-0.245255

>  <r_i_glide_ligand_efficiency_sa>  (137) 
-0.642749

>  <r_i_glide_ligand_efficiency_ln>  (137) 
-1.13475

>  <r_i_glide_gscore>  (137) 
-4.41458

>  <r_i_glide_lipo>  (137) 
-0.636624

>  <r_i_glide_hbond>  (137) 
-0.151095

>  <r_i_glide_metal>  (137) 
-0

>  <r_i_glide_rewards>  (137) 
-1.61359

>  <r_i_glide_evdw>  (137) 
-30.348

>  <r_i_glide_ecoul>  (137) 
-8.34176

>  <r_i_glide_erotb>  (137) 
0.768171

>  <r_i_glide_esite>  (137) 
-0.0127816

>  <r_i_glide_emodel>  (137) 
-49.0369

>  <r_i_glide_energy>  (137) 
-38.6897

>  <r_i_glide_einternal>  (137) 
2.63826

>  <r_i_glide_intrahb_reward>  (137) 
-0

>  <i_i_glide_confnum>  (137) 
3

>  <i_i_glide_posenum>  (137) 
2

>  <r_i_glide_eff_state_penalty>  (137) 
0

>  <ligand_id>  (137) 
38

>  <original_smiles>  (137) 
c1cnc(-c2nc(CN3CCOCC3)cs2)cn1

>  <smiles>  (137) 
[H]c1nc([H])c(-c2nc(C([H])([H])[N+]3([H])C([H])([H])C([H])([H])OC([H])([H])C3([H])[H])c([H])s2)nc1[H]

$$$$
38:1:2
     RDKit          3D

 33 35  0  0  1  0  0  0  0  0999 V2000
    1.1539   -8.1661    2.6198 C   0  0  0  0  0  0  0  0  0  0  0  0
    0.6047   -7.0817    3.3404 C   0  0  0  0  0  0  0  0  0  0  0  0
    1.0140   -5.8093    3.1308 N   0  0  0  0  0  0  0  0  0  0  0  0
    1.9806   -5.6237    2.2017 C   0  0  0  0  0  0  0  0  0  0  0  0
    2.4618   -4.2642    1.9552 C   0  0  0  0  0  0  0  0  0  0  0  0
    3.2839   -3.9202    0.9626 N   0  0  0  0  0  0  0  0  0  0  0  0
    3.5283   -2.5488    0.9103 C   0  0  0  0  0  0  0  0  0  0  0  0
    4.4102   -2.0169   -0.1707 C   0  0  0  0  0  0  0  0  0  0  0  0
    3.6597   -1.8446   -1.4436 N   0  0  0  0  0  0  0  0  0  0  0  0
    4.2528   -0.7898   -2.2941 C   0  0  0  0  0  0  0  0  0  0  0  0
    3.4681   -0.6228   -3.6039 C   0  0  0  0  0  0  0  0  0  0  0  0
    3.4440   -1.8695   -4.2921 O   0  0  0  0  0  0  0  0  0  0  0  0
    2.7864   -2.8825   -3.5379 C   0  0  0  0  0  0  0  0  0  0  0  0
    3.5464   -3.1025   -2.2250 C   0  0  0  0  0  0  0  0  0  0  0  0
    2.9123   -1.8446    1.9108 C   0  0  0  0  0  0  0  0  0  0  0  0
    1.9714   -2.8836    2.9480 S   0  0  0  0  0  0  0  0  0  0  0  0
    2.5185   -6.7106    1.4785 C   0  0  0  0  0  0  0  0  0  0  0  0
    2.1120   -7.9822    1.6842 N   0  0  0  0  0  0  0  0  0  0  0  0
    0.8245   -9.1816    2.7885 H   0  0  0  0  0  0  0  0  0  0  0  0
   -0.1583   -7.2381    4.0875 H   0  0  0  0  0  0  0  0  0  0  0  0
    4.8613   -1.0808    0.1588 H   0  0  0  0  0  0  0  0  0  0  0  0
    5.2551   -2.6869   -0.3284 H   0  0  0  0  0  0  0  0  0  0  0  0
    4.2533    0.1419   -1.7524 H   0  0  0  0  0  0  0  0  0  0  0  0
    5.2924   -1.0399   -2.5123 H   0  0  0  0  0  0  0  0  0  0  0  0
    2.4635   -0.2530   -3.4043 H   0  0  0  0  0  0  0  0  0  0  0  0
    3.9573    0.1219   -4.2338 H   0  0  0  0  0  0  0  0  0  0  0  0
    1.7430   -2.6270   -3.3492 H   0  0  0  0  0  0  0  0  0  0  0  0
    2.7864   -3.8056   -4.1205 H   0  0  0  0  0  0  0  0  0  0  0  0
    4.5415   -3.4877   -2.4510 H   0  0  0  0  0  0  0  0  0  0  0  0
    3.0340   -3.8688   -1.6504 H   0  0  0  0  0  0  0  0  0  0  0  0
    2.9517   -0.7847    2.1100 H   0  0  0  0  0  0  0  0  0  0  0  0
    3.2765   -6.5759    0.7262 H   0  0  0  0  0  0  0  0  0  0  0  0
    2.7172   -1.5441   -1.2057 H   0  0  0  0  0  0  0  0  0  0  0  0
  1 18  2  0
  1  2  1  0
  1 19  1  0
  2  3  2  0
  2 20  1  0
  3  4  1  0
  4  5  1  0
  4 17  2  0
  5 16  1  0
  5  6  2  0
  6  7  1  0
  7  8  1  0
  7 15  2  0
  8  9  1  0
  8 21  1  0
  8 22  1  0
  9 14  1  0
  9 10  1  0
  9 33  1  0
 10 11  1  0
 10 23  1  0
 10 24  1  0
 11 12  1  0
 11 25  1  0
 11 26  1  0
 12 13  1  0
 13 14  1  0
 13 27  1  0
 13 28  1  0
 14 29  1  0
 14 30  1  0
 15 16  1  0
 15 31  1  0
 17 18  1  0
 17 32  1  0
M  CHG  1   9   1
M  END
>  <i_m_ct_stereo_status>  (138) 
1

>  <s_m_source_file>  (138) 
/var/tmp/pbs.5076255.sched01/tmp68k5m_u8/43t0xmz28c.sdf

>  <i_m_source_file_index>  (138) 
14

>  <i_lp_mmshare_version>  (138) 
48012

>  <i_f3d_flags>  (138) 
0

>  <s_epik_input>  (138) 
W2NIXTFuW2NIXVtjSF1uYzEtYzJuYyhbY0hdczIpW0NIMl1OM1tDSDJdW0NIMl1PW0NIMl1bQ0gyXTM=

>  <s_epik_cmdline>  (138) 
J2VwaWtfcHl0aG9uJywgJy1waHQnLCAnMi4wJywgJy1waCcsICc3LjAnLCAnLXRuJywgJzgnLCAnLW1hJywgJzIwMCcsICctaW1hZScsICc8aW5maWxlLm1hZT4nLCAnLW9tYWUnLCAnPG91dGZpbGUubWFlPic=

>  <r_lp_tautomer_probability>  (138) 
1

>  <r_epik_Ionization_Penalty>  (138) 
1.83632

>  <r_epik_Ionization_Penalty_Charging>  (138) 
1.83632

>  <r_epik_Ionization_Penalty_Neutral>  (138) 
7.58539e-09

>  <r_epik_State_Penalty>  (138) 
1.9527

>  <r_epik_Charging_Adjusted_Penalty>  (138) 
3.78903

>  <i_epik_Tot_Q>  (138) 
1

>  <i_epik_Tot_abs_Q>  (138) 
1

>  <s_lp_Force_Field>  (138) 
OPLS3e

>  <r_lp_Energy>  (138) 
20.7488

>  <b_lp_Chiralities_Consistent>  (138) 
1

>  <s_lp_Variant>  (138) 
38:0-2

>  <s_i_glide_gridfile>  (138) 
pfpi4k_grid

>  <i_i_glide_lignum>  (138) 
14

>  <i_i_glide_rotatable_bonds>  (138) 
3

>  <r_i_docking_score>  (138) 
-3.89861

>  <r_i_glide_ligand_efficiency>  (138) 
-0.216589

>  <r_i_glide_ligand_efficiency_sa>  (138) 
-0.567625

>  <r_i_glide_ligand_efficiency_ln>  (138) 
-1.00212

>  <r_i_glide_gscore>  (138) 
-3.89861

>  <r_i_glide_lipo>  (138) 
-0.469388

>  <r_i_glide_hbond>  (138) 
-0.458368

>  <r_i_glide_metal>  (138) 
-0

>  <r_i_glide_rewards>  (138) 
-1.61359

>  <r_i_glide_evdw>  (138) 
-24.3188

>  <r_i_glide_ecoul>  (138) 
-5.61605

>  <r_i_glide_erotb>  (138) 
0.768171

>  <r_i_glide_esite>  (138) 
-0.0670816

>  <r_i_glide_emodel>  (138) 
-38.6109

>  <r_i_glide_energy>  (138) 
-29.9349

>  <r_i_glide_einternal>  (138) 
3.10858

>  <r_i_glide_intrahb_reward>  (138) 
-0

>  <i_i_glide_confnum>  (138) 
4

>  <i_i_glide_posenum>  (138) 
23

>  <r_i_glide_eff_state_penalty>  (138) 
0

>  <ligand_id>  (138) 
38

>  <original_smiles>  (138) 
c1cnc(-c2nc(CN3CCOCC3)cs2)cn1

>  <smiles>  (138) 
[H]c1nc([H])c(-c2nc(C([H])([H])[N+]3([H])C([H])([H])C([H])([H])OC([H])([H])C3([H])[H])c([H])s2)nc1[H]

$$$$
39:0:0
     RDKit          3D

 79 85  0  0  1  0  0  0  0  0999 V2000
    6.4717   -4.2577    0.3713 C   0  0  0  0  0  0  0  0  0  0  0  0
    6.1703   -2.8397    0.8459 C   0  0  0  0  0  0  0  0  0  0  0  0
    6.5058   -1.8618    0.1768 O   0  0  0  0  0  0  0  0  0  0  0  0
    5.5340   -2.8093    2.0359 O   0  0  0  0  0  0  0  0  0  0  0  0
    5.1553   -1.5586    2.6052 C   0  0  2  0  0  0  0  0  0  0  0  0
    4.8526   -1.5340    4.0960 C   0  0  2  0  0  0  0  0  0  0  0  0
    4.9796   -2.7503    5.0185 C   0  0  1  0  0  0  0  0  0  0  0  0
    5.0821   -2.3263    6.4937 C   0  0  0  0  0  0  0  0  0  0  0  0
    6.2920   -2.1303    7.0638 C   0  0  0  0  0  0  0  0  0  0  0  0
    6.4466   -1.8041    8.4890 C   0  0  0  0  0  0  0  0  0  0  0  0
    7.5539   -1.5844    8.9714 O   0  0  0  0  0  0  0  0  0  0  0  0
    5.2322   -1.7521    9.3120 C   0  0  0  0  0  0  0  0  0  0  0  0
    4.0238   -1.9621    8.7622 C   0  0  0  0  0  0  0  0  0  0  0  0
    3.7556   -2.2557    7.2798 C   0  0  1  0  0  0  0  0  0  0  0  0
    2.9845   -1.0221    6.7536 C   0  0  0  0  0  0  0  0  0  0  0  0
    2.9616   -3.6229    7.1566 C   0  0  1  0  0  0  0  0  0  0  0  0
    1.4221   -3.4131    7.1055 C   0  0  0  0  0  0  0  0  0  0  0  0
    0.4570   -4.6334    7.1462 C   0  0  1  0  0  0  0  0  0  0  0  0
   -0.9660   -4.1689    7.5420 C   0  0  0  0  0  0  0  0  0  0  0  0
   -0.9832   -3.5971    8.8397 O   0  0  0  0  0  0  0  0  0  0  0  0
    0.3982   -5.4417    5.8113 C   0  0  1  0  0  0  0  0  0  0  0  0
    0.2374   -4.4854    4.7782 O   0  0  0  0  0  0  0  0  0  0  0  0
    1.5541   -6.4745    5.5943 C   0  0  2  0  0  0  0  0  0  0  0  0
    1.5002   -7.1095    4.1815 C   0  0  0  0  0  0  0  0  0  0  0  0
    0.9799   -6.5939    3.1964 O   0  0  0  0  0  0  0  0  0  0  0  0
    2.1424   -8.4369    4.0039 C   0  0  0  0  0  0  0  0  0  0  0  0
    2.1736   -9.3384    4.9972 C   0  0  0  0  0  0  0  0  0  0  0  0
    1.5446   -9.0953    6.3507 C   0  0  1  0  0  0  0  0  0  0  0  0
    0.1047   -9.6417    6.3196 C   0  0  0  0  0  0  0  0  0  0  0  0
    2.2136   -9.8530    7.3372 O   0  0  0  0  0  0  0  0  0  0  0  0
    1.6090   -7.5804    6.7099 C   0  0  1  0  0  0  0  0  0  0  0  0
    2.8896   -6.9203    7.2685 C   0  0  1  0  0  0  0  0  0  0  0  0
    4.0017   -7.7395    7.5545 O   0  0  0  0  0  0  0  0  0  0  0  0
    3.0009   -6.0646    6.0112 C   0  0  2  0  0  0  0  0  0  0  0  0
    3.5923   -4.6233    6.1240 C   0  0  1  0  0  0  0  0  0  0  0  0
    3.9084   -3.8759    4.7892 C   0  0  2  0  0  0  0  0  0  0  0  0
    4.4428   -4.7977    3.8656 O   0  0  0  0  0  0  0  0  0  0  0  0
    2.7140   -3.3139    4.3193 O   0  0  0  0  0  0  0  0  0  0  0  0
    2.7580   -2.6334    3.0630 C   0  0  0  0  0  0  0  0  0  0  0  0
    3.7261   -1.4565    3.0815 C   0  0  2  0  0  0  0  0  0  0  0  0
    3.0176   -0.1309    2.8645 C   0  0  0  0  0  0  0  0  0  0  0  0
    5.5630   -4.8594    0.3531 H   0  0  0  0  0  0  0  0  0  0  0  0
    7.2004   -4.7357    1.0264 H   0  0  0  0  0  0  0  0  0  0  0  0
    6.8842   -4.2357   -0.6376 H   0  0  0  0  0  0  0  0  0  0  0  0
    5.6094   -0.6762    2.1557 H   0  0  0  0  0  0  0  0  0  0  0  0
    5.1439   -0.5970    4.5747 H   0  0  0  0  0  0  0  0  0  0  0  0
    5.9503   -3.1990    4.8107 H   0  0  0  0  0  0  0  0  0  0  0  0
    7.1989   -2.2265    6.4855 H   0  0  0  0  0  0  0  0  0  0  0  0
    5.3478   -1.5250   10.3665 H   0  0  0  0  0  0  0  0  0  0  0  0
    3.1474   -1.9032    9.4006 H   0  0  0  0  0  0  0  0  0  0  0  0
    3.6167   -0.1307    6.7703 H   0  0  0  0  0  0  0  0  0  0  0  0
    2.1060   -0.7868    7.3572 H   0  0  0  0  0  0  0  0  0  0  0  0
    2.6484   -1.1524    5.7271 H   0  0  0  0  0  0  0  0  0  0  0  0
    3.1143   -4.1234    8.1115 H   0  0  0  0  0  0  0  0  0  0  0  0
    1.2060   -2.8063    7.9838 H   0  0  0  0  0  0  0  0  0  0  0  0
    1.1404   -2.7676    6.2751 H   0  0  0  0  0  0  0  0  0  0  0  0
    0.7644   -5.2842    7.9571 H   0  0  0  0  0  0  0  0  0  0  0  0
   -1.3480   -3.4415    6.8244 H   0  0  0  0  0  0  0  0  0  0  0  0
   -1.6648   -5.0067    7.5398 H   0  0  0  0  0  0  0  0  0  0  0  0
   -0.6449   -4.2341    9.4558 H   0  0  0  0  0  0  0  0  0  0  0  0
   -0.5310   -6.0160    5.8132 H   0  0  0  0  0  0  0  0  0  0  0  0
    1.0536   -4.0047    4.6704 H   0  0  0  0  0  0  0  0  0  0  0  0
    2.5595   -8.6727    3.0319 H   0  0  0  0  0  0  0  0  0  0  0  0
    2.6232  -10.3122    4.8409 H   0  0  0  0  0  0  0  0  0  0  0  0
   -0.5089   -9.1390    5.5668 H   0  0  0  0  0  0  0  0  0  0  0  0
   -0.3978   -9.5459    7.2846 H   0  0  0  0  0  0  0  0  0  0  0  0
    0.1073  -10.7014    6.0645 H   0  0  0  0  0  0  0  0  0  0  0  0
    1.8768  -10.7588    7.3334 H   0  0  0  0  0  0  0  0  0  0  0  0
    0.8343   -7.3901    7.4475 H   0  0  0  0  0  0  0  0  0  0  0  0
    2.6584   -6.3253    8.1486 H   0  0  0  0  0  0  0  0  0  0  0  0
    3.7202   -8.6356    7.3892 H   0  0  0  0  0  0  0  0  0  0  0  0
    3.6824   -6.6470    5.3944 H   0  0  0  0  0  0  0  0  0  0  0  0
    4.5857   -4.8234    6.5421 H   0  0  0  0  0  0  0  0  0  0  0  0
    3.8792   -5.5566    3.8469 H   0  0  0  0  0  0  0  0  0  0  0  0
    3.0188   -3.3174    2.2564 H   0  0  0  0  0  0  0  0  0  0  0  0
    1.7493   -2.2773    2.8506 H   0  0  0  0  0  0  0  0  0  0  0  0
    2.2382    0.0212    3.6130 H   0  0  0  0  0  0  0  0  0  0  0  0
    2.5708   -0.1010    1.8698 H   0  0  0  0  0  0  0  0  0  0  0  0
    3.7306    0.6920    2.9417 H   0  0  0  0  0  0  0  0  0  0  0  0
  1  2  1  0
  1 42  1  0
  1 43  1  0
  1 44  1  0
  2  3  2  0
  2  4  1  0
  4  5  1  0
  5 40  1  0
  5  6  1  0
  5 45  1  6
  6 40  1  0
  6  7  1  0
  6 46  1  1
  7 36  1  0
  7  8  1  0
  7 47  1  6
  8 14  1  0
  8  9  2  0
  9 10  1  0
  9 48  1  0
 10 11  2  0
 10 12  1  0
 12 13  2  0
 12 49  1  0
 13 14  1  0
 13 50  1  0
 14 15  1  6
 14 16  1  0
 15 51  1  0
 15 52  1  0
 15 53  1  0
 16 35  1  0
 16 17  1  0
 16 54  1  1
 17 18  1  0
 17 55  1  0
 17 56  1  0
 18 19  1  0
 18 21  1  0
 18 57  1  1
 19 20  1  0
 19 58  1  0
 19 59  1  0
 20 60  1  0
 21 22  1  0
 21 23  1  0
 21 61  1  1
 22 62  1  0
 23 31  1  0
 23 34  1  0
 23 24  1  6
 24 25  2  0
 24 26  1  0
 26 27  2  0
 26 63  1  0
 27 28  1  0
 27 64  1  0
 28 29  1  0
 28 30  1  1
 28 31  1  0
 29 65  1  0
 29 66  1  0
 29 67  1  0
 30 68  1  0
 31 32  1  0
 31 69  1  1
 32 33  1  0
 32 34  1  0
 32 70  1  1
 33 71  1  0
 34 35  1  0
 34 72  1  6
 35 36  1  0
 35 73  1  1
 36 37  1  6
 36 38  1  0
 37 74  1  0
 38 39  1  0
 39 40  1  0
 39 75  1  0
 39 76  1  0
 40 41  1  6
 41 77  1  0
 41 78  1  0
 41 79  1  0
M  END
>  <i_m_ct_stereo_status>  (139) 
1

>  <s_m_source_file>  (139) 
/var/tmp/pbs.5076255.sched01/tmp68k5m_u8/43t0xmz28c.sdf

>  <i_m_source_file_index>  (139) 
15

>  <i_lp_mmshare_version>  (139) 
48012

>  <i_f3d_flags>  (139) 
0

>  <s_epik_input>  (139) 
W0NIM11DKD1PKU9bQ0BIXTFbQ0BAXShbQ0gzXSkoW0NIMl1PW0NAQF0yM1tPSF0pW0NASF0xW0NASF0yQyg9W0NIXUMoPU8pW0NIXT1bQ0hdNClbQ0BAXTQoW0NIM10pW0NAQEhdKFtDSDJdW0NAQEhdKFtDSDJdW09IXSlbQ0BIXTVbT0hdKVtDQEhdM1tDQEhdNltDQEhdKFtPSF0pW0NAQEhdKFtDQEBdNTY3KVtDQF0oW0NIM10pKFtPSF0pW0NIXT1bQ0hdQzc9Tw==

>  <s_epik_cmdline>  (139) 
J2VwaWtfcHl0aG9uJywgJy1waHQnLCAnMi4wJywgJy1waCcsICc3LjAnLCAnLXRuJywgJzgnLCAnLW1hJywgJzIwMCcsICctaW1hZScsICc8aW5maWxlLm1hZT4nLCAnLW9tYWUnLCAnPG91dGZpbGUubWFlPic=

>  <r_lp_tautomer_probability>  (139) 
1

>  <r_epik_Ionization_Penalty>  (139) 
1.14929e-06

>  <r_epik_Ionization_Penalty_Charging>  (139) 
0

>  <r_epik_Ionization_Penalty_Neutral>  (139) 
1.14929e-06

>  <r_epik_State_Penalty>  (139) 
-0

>  <r_epik_Charging_Adjusted_Penalty>  (139) 
0

>  <i_epik_Tot_Q>  (139) 
0

>  <i_epik_Tot_abs_Q>  (139) 
0

>  <s_epik_Chemistry_Notes>  (139) 
This compound has an ester and may undergo hydrolysis at high or low pH.

>  <s_lp_Force_Field>  (139) 
OPLS3e

>  <r_lp_Energy>  (139) 
82.1201

>  <b_lp_Chiralities_Consistent>  (139) 
1

>  <s_lp_Variant>  (139) 
39:0-1

>  <s_i_glide_gridfile>  (139) 
pfpi4k_grid

>  <i_i_glide_lignum>  (139) 
15

>  <i_i_glide_rotatable_bonds>  (139) 
8

>  <r_i_docking_score>  (139) 
-3.70968

>  <r_i_glide_ligand_efficiency>  (139) 
-0.0904799

>  <r_i_glide_ligand_efficiency_sa>  (139) 
-0.311994

>  <r_i_glide_ligand_efficiency_ln>  (139) 
-0.78702

>  <r_i_glide_gscore>  (139) 
-3.70968

>  <r_i_glide_lipo>  (139) 
-0.299837

>  <r_i_glide_hbond>  (139) 
-0.128085

>  <r_i_glide_metal>  (139) 
-0

>  <r_i_glide_rewards>  (139) 
-1.11838

>  <r_i_glide_evdw>  (139) 
-20.691

>  <r_i_glide_ecoul>  (139) 
-7.72915

>  <r_i_glide_erotb>  (139) 
0.0376101

>  <r_i_glide_esite>  (139) 
-0.00705811

>  <r_i_glide_emodel>  (139) 
-44.842

>  <r_i_glide_energy>  (139) 
-28.4202

>  <r_i_glide_einternal>  (139) 
3.29858

>  <r_i_glide_intrahb_reward>  (139) 
-1

>  <i_i_glide_confnum>  (139) 
2

>  <i_i_glide_posenum>  (139) 
25

>  <r_i_glide_eff_state_penalty>  (139) 
0

>  <ligand_id>  (139) 
39

>  <original_smiles>  (139) 
CC(=O)OC1C2C3C4=CC(=O)C=CC4(C)C4CC(CO)C(O)C56C(=O)C=CC(C)(O)C5C(O)C6C4C3(O)OCC12C

>  <smiles>  (139) 
[H]OC([H])([H])C1([H])C([H])([H])C2([H])C3(C([H])([H])[H])C([H])=C([H])C(=O)C([H])=C3C3([H])C(O[H])(OC([H])([H])C4(C([H])([H])[H])C([H])(OC(=O)C([H])([H])[H])C34[H])C2([H])C2([H])C([H])(O[H])C3([H])C(O[H])(C([H])([H])[H])C([H])=C([H])C(=O)C32C1([H])O[H]

$$$$
39:0:1
     RDKit          3D

 79 85  0  0  1  0  0  0  0  0999 V2000
    6.4341   -4.2051    0.3922 C   0  0  0  0  0  0  0  0  0  0  0  0
    6.1344   -2.7960    0.8888 C   0  0  0  0  0  0  0  0  0  0  0  0
    6.4518   -1.8045    0.2239 O   0  0  0  0  0  0  0  0  0  0  0  0
    5.5243   -2.7822    2.0967 O   0  0  0  0  0  0  0  0  0  0  0  0
    5.1724   -1.5317    2.6884 C   0  0  2  0  0  0  0  0  0  0  0  0
    4.8931   -1.5236    4.1832 C   0  0  2  0  0  0  0  0  0  0  0  0
    5.0193   -2.7572    5.0832 C   0  0  1  0  0  0  0  0  0  0  0  0
    5.1436   -2.3611    6.5620 C   0  0  0  0  0  0  0  0  0  0  0  0
    6.3607   -2.1919    7.1212 C   0  0  0  0  0  0  0  0  0  0  0  0
    6.5413   -1.8917    8.5482 C   0  0  0  0  0  0  0  0  0  0  0  0
    7.6587   -1.6945    9.0217 O   0  0  0  0  0  0  0  0  0  0  0  0
    5.3369   -1.8394    9.3886 C   0  0  0  0  0  0  0  0  0  0  0  0
    4.1159   -2.0237    8.8490 C   0  0  0  0  0  0  0  0  0  0  0  0
    3.8283   -2.2890    7.3667 C   0  0  1  0  0  0  0  0  0  0  0  0
    3.0679   -1.0344    6.8726 C   0  0  0  0  0  0  0  0  0  0  0  0
    3.0138   -3.6410    7.2280 C   0  0  1  0  0  0  0  0  0  0  0  0
    1.4742   -3.4102    7.2054 C   0  0  0  0  0  0  0  0  0  0  0  0
    0.4933   -4.6179    7.2345 C   0  0  1  0  0  0  0  0  0  0  0  0
   -0.9258   -4.1456    7.6480 C   0  0  0  0  0  0  0  0  0  0  0  0
   -0.9615   -3.6036    8.9593 O   0  0  0  0  0  0  0  0  0  0  0  0
    0.4093   -5.4016    5.8880 C   0  0  1  0  0  0  0  0  0  0  0  0
    0.2451   -4.4205    4.8761 O   0  0  0  0  0  0  0  0  0  0  0  0
    1.5479   -6.4439    5.6388 C   0  0  2  0  0  0  0  0  0  0  0  0
    1.4730   -7.0513    4.2157 C   0  0  0  0  0  0  0  0  0  0  0  0
    0.9329   -6.5161    3.2421 O   0  0  0  0  0  0  0  0  0  0  0  0
    2.0951   -8.3863    4.0083 C   0  0  0  0  0  0  0  0  0  0  0  0
    2.1305   -9.3085    4.9961 C   0  0  0  0  0  0  0  0  0  0  0  0
    1.5132   -9.0750    6.3509 C   0  0  1  0  0  0  0  0  0  0  0  0
    0.0670   -9.5984    6.3228 C   0  0  0  0  0  0  0  0  0  0  0  0
    2.1465   -9.8466    7.3427 O   0  0  0  0  0  0  0  0  0  0  0  0
    1.6039   -7.5721    6.7340 C   0  0  1  0  0  0  0  0  0  0  0  0
    2.8956   -6.9290    7.2889 C   0  0  1  0  0  0  0  0  0  0  0  0
    4.0135   -7.7436    7.5719 O   0  0  0  0  0  0  0  0  0  0  0  0
    3.0056   -6.0549    6.0404 C   0  0  2  0  0  0  0  0  0  0  0  0
    3.6199   -4.6269    6.1689 C   0  0  1  0  0  0  0  0  0  0  0  0
    3.9287   -3.8607    4.8428 C   0  0  2  0  0  0  0  0  0  0  0  0
    4.4341   -4.7697    3.8844 O   0  0  0  0  0  0  0  0  0  0  0  0
    2.7324   -3.2767    4.4005 O   0  0  0  0  0  0  0  0  0  0  0  0
    2.7674   -2.5750    3.1571 C   0  0  0  0  0  0  0  0  0  0  0  0
    3.7529   -1.4150    3.1850 C   0  0  2  0  0  0  0  0  0  0  0  0
    3.0627   -0.0752    3.0002 C   0  0  0  0  0  0  0  0  0  0  0  0
    5.5285   -4.8121    0.3895 H   0  0  0  0  0  0  0  0  0  0  0  0
    7.1831   -4.6828    1.0247 H   0  0  0  0  0  0  0  0  0  0  0  0
    6.8218   -4.1684   -0.6249 H   0  0  0  0  0  0  0  0  0  0  0  0
    5.6388   -0.6482    2.2505 H   0  0  0  0  0  0  0  0  0  0  0  0
    5.2048   -0.5997    4.6741 H   0  0  0  0  0  0  0  0  0  0  0  0
    5.9834   -3.2161    4.8589 H   0  0  0  0  0  0  0  0  0  0  0  0
    7.2599   -2.2886    6.5310 H   0  0  0  0  0  0  0  0  0  0  0  0
    5.4690   -1.6340   10.4428 H   0  0  0  0  0  0  0  0  0  0  0  0
    3.2502   -1.9656    9.5002 H   0  0  0  0  0  0  0  0  0  0  0  0
    3.7117   -0.1508    6.8971 H   0  0  0  0  0  0  0  0  0  0  0  0
    2.1990   -0.7992    7.4929 H   0  0  0  0  0  0  0  0  0  0  0  0
    2.7157   -1.1426    5.8483 H   0  0  0  0  0  0  0  0  0  0  0  0
    3.1740   -4.1597    8.1733 H   0  0  0  0  0  0  0  0  0  0  0  0
    1.2737   -2.8181    8.0982 H   0  0  0  0  0  0  0  0  0  0  0  0
    1.1939   -2.7473    6.3887 H   0  0  0  0  0  0  0  0  0  0  0  0
    0.8020   -5.2862    8.0330 H   0  0  0  0  0  0  0  0  0  0  0  0
   -1.2979   -3.3966    6.9482 H   0  0  0  0  0  0  0  0  0  0  0  0
   -1.6313   -4.9784    7.6273 H   0  0  0  0  0  0  0  0  0  0  0  0
   -0.5802   -4.2343    9.5536 H   0  0  0  0  0  0  0  0  0  0  0  0
   -0.5246   -5.9636    5.8914 H   0  0  0  0  0  0  0  0  0  0  0  0
    1.0769   -3.9782    4.7435 H   0  0  0  0  0  0  0  0  0  0  0  0
    2.4988   -8.6073    3.0256 H   0  0  0  0  0  0  0  0  0  0  0  0
    2.5594  -10.2802    4.8087 H   0  0  0  0  0  0  0  0  0  0  0  0
   -0.5521   -9.0780    5.5844 H   0  0  0  0  0  0  0  0  0  0  0  0
   -0.4273   -9.5162    7.2968 H   0  0  0  0  0  0  0  0  0  0  0  0
    0.0530  -10.6570    6.0519 H   0  0  0  0  0  0  0  0  0  0  0  0
    1.8374  -10.7645    7.3028 H   0  0  0  0  0  0  0  0  0  0  0  0
    0.8396   -7.3796    7.4788 H   0  0  0  0  0  0  0  0  0  0  0  0
    2.6718   -6.3521    8.1846 H   0  0  0  0  0  0  0  0  0  0  0  0
    3.7144   -8.4157    8.1708 H   0  0  0  0  0  0  0  0  0  0  0  0
    3.6736   -6.6357    5.4019 H   0  0  0  0  0  0  0  0  0  0  0  0
    4.6149   -4.8527    6.5699 H   0  0  0  0  0  0  0  0  0  0  0  0
    4.7429   -4.2657    3.1417 H   0  0  0  0  0  0  0  0  0  0  0  0
    3.0058   -3.2440    2.3341 H   0  0  0  0  0  0  0  0  0  0  0  0
    1.7631   -2.2000    2.9644 H   0  0  0  0  0  0  0  0  0  0  0  0
    2.2938    0.0734    3.7620 H   0  0  0  0  0  0  0  0  0  0  0  0
    2.6033   -0.0224    2.0111 H   0  0  0  0  0  0  0  0  0  0  0  0
    3.7890    0.7376    3.0830 H   0  0  0  0  0  0  0  0  0  0  0  0
  1  2  1  0
  1 42  1  0
  1 43  1  0
  1 44  1  0
  2  3  2  0
  2  4  1  0
  4  5  1  0
  5 40  1  0
  5  6  1  0
  5 45  1  1
  6 40  1  0
  6  7  1  0
  6 46  1  1
  7 36  1  0
  7  8  1  0
  7 47  1  6
  8 14  1  0
  8  9  2  0
  9 10  1  0
  9 48  1  0
 10 11  2  0
 10 12  1  0
 12 13  2  0
 12 49  1  0
 13 14  1  0
 13 50  1  0
 14 15  1  6
 14 16  1  0
 15 51  1  0
 15 52  1  0
 15 53  1  0
 16 35  1  0
 16 17  1  0
 16 54  1  1
 17 18  1  0
 17 55  1  0
 17 56  1  0
 18 19  1  0
 18 21  1  0
 18 57  1  1
 19 20  1  0
 19 58  1  0
 19 59  1  0
 20 60  1  0
 21 22  1  0
 21 23  1  0
 21 61  1  1
 22 62  1  0
 23 31  1  0
 23 34  1  0
 23 24  1  6
 24 25  2  0
 24 26  1  0
 26 27  2  0
 26 63  1  0
 27 28  1  0
 27 64  1  0
 28 29  1  0
 28 30  1  1
 28 31  1  0
 29 65  1  0
 29 66  1  0
 29 67  1  0
 30 68  1  0
 31 32  1  0
 31 69  1  1
 32 33  1  0
 32 34  1  0
 32 70  1  1
 33 71  1  0
 34 35  1  0
 34 72  1  6
 35 36  1  0
 35 73  1  1
 36 37  1  6
 36 38  1  0
 37 74  1  0
 38 39  1  0
 39 40  1  0
 39 75  1  0
 39 76  1  0
 40 41  1  1
 41 77  1  0
 41 78  1  0
 41 79  1  0
M  END
>  <i_m_ct_stereo_status>  (140) 
1

>  <s_m_source_file>  (140) 
/var/tmp/pbs.5076255.sched01/tmp68k5m_u8/43t0xmz28c.sdf

>  <i_m_source_file_index>  (140) 
15

>  <i_lp_mmshare_version>  (140) 
48012

>  <i_f3d_flags>  (140) 
0

>  <s_epik_input>  (140) 
W0NIM11DKD1PKU9bQ0BIXTFbQ0BAXShbQ0gzXSkoW0NIMl1PW0NAQF0yM1tPSF0pW0NASF0xW0NASF0yQyg9W0NIXUMoPU8pW0NIXT1bQ0hdNClbQ0BAXTQoW0NIM10pW0NAQEhdKFtDSDJdW0NAQEhdKFtDSDJdW09IXSlbQ0BIXTVbT0hdKVtDQEhdM1tDQEhdNltDQEhdKFtPSF0pW0NAQEhdKFtDQEBdNTY3KVtDQF0oW0NIM10pKFtPSF0pW0NIXT1bQ0hdQzc9Tw==

>  <s_epik_cmdline>  (140) 
J2VwaWtfcHl0aG9uJywgJy1waHQnLCAnMi4wJywgJy1waCcsICc3LjAnLCAnLXRuJywgJzgnLCAnLW1hJywgJzIwMCcsICctaW1hZScsICc8aW5maWxlLm1hZT4nLCAnLW9tYWUnLCAnPG91dGZpbGUubWFlPic=

>  <r_lp_tautomer_probability>  (140) 
1

>  <r_epik_Ionization_Penalty>  (140) 
1.14929e-06

>  <r_epik_Ionization_Penalty_Charging>  (140) 
0

>  <r_epik_Ionization_Penalty_Neutral>  (140) 
1.14929e-06

>  <r_epik_State_Penalty>  (140) 
-0

>  <r_epik_Charging_Adjusted_Penalty>  (140) 
0

>  <i_epik_Tot_Q>  (140) 
0

>  <i_epik_Tot_abs_Q>  (140) 
0

>  <s_epik_Chemistry_Notes>  (140) 
This compound has an ester and may undergo hydrolysis at high or low pH.

>  <s_lp_Force_Field>  (140) 
OPLS3e

>  <r_lp_Energy>  (140) 
82.1201

>  <b_lp_Chiralities_Consistent>  (140) 
1

>  <s_lp_Variant>  (140) 
39:0-1

>  <s_i_glide_gridfile>  (140) 
pfpi4k_grid

>  <i_i_glide_lignum>  (140) 
15

>  <i_i_glide_rotatable_bonds>  (140) 
8

>  <r_i_docking_score>  (140) 
-3.69763

>  <r_i_glide_ligand_efficiency>  (140) 
-0.0901861

>  <r_i_glide_ligand_efficiency_sa>  (140) 
-0.310981

>  <r_i_glide_ligand_efficiency_ln>  (140) 
-0.784465

>  <r_i_glide_gscore>  (140) 
-3.69763

>  <r_i_glide_lipo>  (140) 
-0.301011

>  <r_i_glide_hbond>  (140) 
-0.134385

>  <r_i_glide_metal>  (140) 
-0

>  <r_i_glide_rewards>  (140) 
-1.1218

>  <r_i_glide_evdw>  (140) 
-20.7597

>  <r_i_glide_ecoul>  (140) 
-7.55347

>  <r_i_glide_erotb>  (140) 
0.0376101

>  <r_i_glide_esite>  (140) 
-0.00703202

>  <r_i_glide_emodel>  (140) 
-44.9863

>  <r_i_glide_energy>  (140) 
-28.3132

>  <r_i_glide_einternal>  (140) 
3.26728

>  <r_i_glide_intrahb_reward>  (140) 
-1

>  <i_i_glide_confnum>  (140) 
2

>  <i_i_glide_posenum>  (140) 
28

>  <r_i_glide_eff_state_penalty>  (140) 
0

>  <ligand_id>  (140) 
39

>  <original_smiles>  (140) 
CC(=O)OC1C2C3C4=CC(=O)C=CC4(C)C4CC(CO)C(O)C56C(=O)C=CC(C)(O)C5C(O)C6C4C3(O)OCC12C

>  <smiles>  (140) 
[H]OC([H])([H])C1([H])C([H])([H])C2([H])C3(C([H])([H])[H])C([H])=C([H])C(=O)C([H])=C3C3([H])C(O[H])(OC([H])([H])C4(C([H])([H])[H])C([H])(OC(=O)C([H])([H])[H])C34[H])C2([H])C2([H])C([H])(O[H])C3([H])C(O[H])(C([H])([H])[H])C([H])=C([H])C(=O)C32C1([H])O[H]

$$$$
39:0:2
     RDKit          3D

 79 85  0  0  1  0  0  0  0  0999 V2000
    3.3447   -2.2660    0.2155 C   0  0  0  0  0  0  0  0  0  0  0  0
    3.2186   -1.3095    1.3949 C   0  0  0  0  0  0  0  0  0  0  0  0
    4.0371   -0.4127    1.5956 O   0  0  0  0  0  0  0  0  0  0  0  0
    2.1520   -1.5977    2.1698 O   0  0  0  0  0  0  0  0  0  0  0  0
    1.9152   -0.8365    3.3465 C   0  0  2  0  0  0  0  0  0  0  0  0
    2.4885   -1.4143    4.6332 C   0  0  2  0  0  0  0  0  0  0  0  0
    3.3054   -2.7103    4.6627 C   0  0  1  0  0  0  0  0  0  0  0  0
    4.1345   -2.8122    5.9503 C   0  0  0  0  0  0  0  0  0  0  0  0
    5.3999   -2.3415    5.9750 C   0  0  0  0  0  0  0  0  0  0  0  0
    6.2695   -2.4852    7.1518 C   0  0  0  0  0  0  0  0  0  0  0  0
    7.4039   -2.0102    7.1681 O   0  0  0  0  0  0  0  0  0  0  0  0
    5.7314   -3.2173    8.3012 C   0  0  0  0  0  0  0  0  0  0  0  0
    4.4767   -3.7075    8.2846 C   0  0  0  0  0  0  0  0  0  0  0  0
    3.4798   -3.5606    7.1284 C   0  0  1  0  0  0  0  0  0  0  0  0
    2.3569   -2.6476    7.6699 C   0  0  0  0  0  0  0  0  0  0  0  0
    2.9920   -5.0021    6.6777 C   0  0  1  0  0  0  0  0  0  0  0  0
    1.6763   -5.4412    7.3851 C   0  0  0  0  0  0  0  0  0  0  0  0
    1.1182   -6.8778    7.1878 C   0  0  1  0  0  0  0  0  0  0  0  0
    0.1202   -7.1939    8.3261 C   0  0  0  0  0  0  0  0  0  0  0  0
   -0.1835   -8.5742    8.4019 O   0  0  0  0  0  0  0  0  0  0  0  0
    0.4585   -7.1233    5.7927 C   0  0  1  0  0  0  0  0  0  0  0  0
   -0.4009   -6.0173    5.5544 O   0  0  0  0  0  0  0  0  0  0  0  0
    1.4559   -7.4581    4.6383 C   0  0  2  0  0  0  0  0  0  0  0  0
    0.7397   -7.5240    3.2638 C   0  0  0  0  0  0  0  0  0  0  0  0
   -0.3054   -6.9369    2.9659 O   0  0  0  0  0  0  0  0  0  0  0  0
    1.3801   -8.3355    2.2035 C   0  0  0  0  0  0  0  0  0  0  0  0
    2.1138   -9.4281    2.4932 C   0  0  0  0  0  0  0  0  0  0  0  0
    2.3052   -9.9364    3.9032 C   0  0  1  0  0  0  0  0  0  0  0  0
    1.2067  -10.9782    4.1958 C   0  0  0  0  0  0  0  0  0  0  0  0
    3.5057  -10.6671    3.9855 O   0  0  0  0  0  0  0  0  0  0  0  0
    2.3164   -8.7538    4.9096 C   0  0  1  0  0  0  0  0  0  0  0  0
    3.5511   -7.8508    5.1259 C   0  0  1  0  0  0  0  0  0  0  0  0
    4.7746   -8.1556    4.4922 O   0  0  0  0  0  0  0  0  0  0  0  0
    2.7934   -6.6552    4.5603 C   0  0  2  0  0  0  0  0  0  0  0  0
    3.0949   -5.2348    5.1271 C   0  0  1  0  0  0  0  0  0  0  0  0
    2.4882   -4.0177    4.3615 C   0  0  2  0  0  0  0  0  0  0  0  0
    2.5492   -4.2666    2.9744 O   0  0  0  0  0  0  0  0  0  0  0  0
    1.1645   -3.8675    4.7892 O   0  0  0  0  0  0  0  0  0  0  0  0
    0.3917   -2.8460    4.1648 C   0  0  0  0  0  0  0  0  0  0  0  0
    0.9968   -1.4676    4.3668 C   0  0  2  0  0  0  0  0  0  0  0  0
    0.0725   -0.5547    5.1556 C   0  0  0  0  0  0  0  0  0  0  0  0
    2.4446   -2.2541   -0.3996 H   0  0  0  0  0  0  0  0  0  0  0  0
    3.5026   -3.2831    0.5733 H   0  0  0  0  0  0  0  0  0  0  0  0
    4.1884   -1.9895   -0.4154 H   0  0  0  0  0  0  0  0  0  0  0  0
    1.8704    0.2445    3.2033 H   0  0  0  0  0  0  0  0  0  0  0  0
    2.8348   -0.6563    5.3374 H   0  0  0  0  0  0  0  0  0  0  0  0
    4.0576   -2.6214    3.8754 H   0  0  0  0  0  0  0  0  0  0  0  0
    5.8110   -1.8511    5.1107 H   0  0  0  0  0  0  0  0  0  0  0  0
    6.3751   -3.3408    9.1637 H   0  0  0  0  0  0  0  0  0  0  0  0
    4.1138   -4.2294    9.1626 H   0  0  0  0  0  0  0  0  0  0  0  0
    2.7349   -1.6398    7.8659 H   0  0  0  0  0  0  0  0  0  0  0  0
    1.9419   -3.0107    8.6102 H   0  0  0  0  0  0  0  0  0  0  0  0
    1.5347   -2.5455    6.9651 H   0  0  0  0  0  0  0  0  0  0  0  0
    3.7379   -5.6860    7.0795 H   0  0  0  0  0  0  0  0  0  0  0  0
    1.8818   -5.3344    8.4506 H   0  0  0  0  0  0  0  0  0  0  0  0
    0.8806   -4.7215    7.1995 H   0  0  0  0  0  0  0  0  0  0  0  0
    1.9414   -7.5610    7.3566 H   0  0  0  0  0  0  0  0  0  0  0  0
    0.5294   -6.9025    9.2959 H   0  0  0  0  0  0  0  0  0  0  0  0
   -0.8007   -6.6242    8.1944 H   0  0  0  0  0  0  0  0  0  0  0  0
    0.6239   -9.0743    8.3814 H   0  0  0  0  0  0  0  0  0  0  0  0
   -0.1999   -7.9879    5.8855 H   0  0  0  0  0  0  0  0  0  0  0  0
    0.1372   -5.2455    5.4097 H   0  0  0  0  0  0  0  0  0  0  0  0
    1.2220   -8.0470    1.1751 H   0  0  0  0  0  0  0  0  0  0  0  0
    2.5505  -10.0236    1.7014 H   0  0  0  0  0  0  0  0  0  0  0  0
    0.2103  -10.5430    4.1388 H   0  0  0  0  0  0  0  0  0  0  0  0
    1.3155  -11.4274    5.1841 H   0  0  0  0  0  0  0  0  0  0  0  0
    1.2440  -11.7904    3.4689 H   0  0  0  0  0  0  0  0  0  0  0  0
    3.4227  -11.2986    4.6879 H   0  0  0  0  0  0  0  0  0  0  0  0
    2.0594   -9.1565    5.8881 H   0  0  0  0  0  0  0  0  0  0  0  0
    3.7461   -7.7423    6.1932 H   0  0  0  0  0  0  0  0  0  0  0  0
    4.5743   -8.4993    3.6298 H   0  0  0  0  0  0  0  0  0  0  0  0
    3.0965   -6.6479    3.5107 H   0  0  0  0  0  0  0  0  0  0  0  0
    4.1689   -5.1475    4.9266 H   0  0  0  0  0  0  0  0  0  0  0  0
    2.3776   -3.4468    2.5304 H   0  0  0  0  0  0  0  0  0  0  0  0
    0.2679   -3.0396    3.1021 H   0  0  0  0  0  0  0  0  0  0  0  0
   -0.6038   -2.8795    4.5996 H   0  0  0  0  0  0  0  0  0  0  0  0
   -0.1695   -0.9995    6.1226 H   0  0  0  0  0  0  0  0  0  0  0  0
   -0.8511   -0.3758    4.6008 H   0  0  0  0  0  0  0  0  0  0  0  0
    0.5577    0.4084    5.3323 H   0  0  0  0  0  0  0  0  0  0  0  0
  1  2  1  0
  1 42  1  0
  1 43  1  0
  1 44  1  0
  2  3  2  0
  2  4  1  0
  4  5  1  0
  5 40  1  0
  5  6  1  0
  5 45  1  6
  6 40  1  0
  6  7  1  0
  6 46  1  1
  7 36  1  0
  7  8  1  0
  7 47  1  6
  8 14  1  0
  8  9  2  0
  9 10  1  0
  9 48  1  0
 10 11  2  0
 10 12  1  0
 12 13  2  0
 12 49  1  0
 13 14  1  0
 13 50  1  0
 14 15  1  1
 14 16  1  0
 15 51  1  0
 15 52  1  0
 15 53  1  0
 16 35  1  0
 16 17  1  0
 16 54  1  1
 17 18  1  0
 17 55  1  0
 17 56  1  0
 18 19  1  0
 18 21  1  0
 18 57  1  1
 19 20  1  0
 19 58  1  0
 19 59  1  0
 20 60  1  0
 21 22  1  0
 21 23  1  0
 21 61  1  1
 22 62  1  0
 23 31  1  0
 23 34  1  0
 23 24  1  6
 24 25  2  0
 24 26  1  0
 26 27  2  0
 26 63  1  0
 27 28  1  0
 27 64  1  0
 28 29  1  0
 28 30  1  6
 28 31  1  0
 29 65  1  0
 29 66  1  0
 29 67  1  0
 30 68  1  0
 31 32  1  0
 31 69  1  1
 32 33  1  0
 32 34  1  0
 32 70  1  1
 33 71  1  0
 34 35  1  0
 34 72  1  6
 35 36  1  0
 35 73  1  6
 36 37  1  6
 36 38  1  0
 37 74  1  0
 38 39  1  0
 39 40  1  0
 39 75  1  0
 39 76  1  0
 40 41  1  1
 41 77  1  0
 41 78  1  0
 41 79  1  0
M  END
>  <i_m_ct_stereo_status>  (141) 
1

>  <s_m_source_file>  (141) 
/var/tmp/pbs.5076255.sched01/tmp68k5m_u8/43t0xmz28c.sdf

>  <i_m_source_file_index>  (141) 
15

>  <i_lp_mmshare_version>  (141) 
48012

>  <i_f3d_flags>  (141) 
0

>  <s_epik_input>  (141) 
W0NIM11DKD1PKU9bQ0BIXTFbQ0BAXShbQ0gzXSkoW0NIMl1PW0NAQF0yM1tPSF0pW0NASF0xW0NASF0yQyg9W0NIXUMoPU8pW0NIXT1bQ0hdNClbQ0BAXTQoW0NIM10pW0NAQEhdKFtDSDJdW0NAQEhdKFtDSDJdW09IXSlbQ0BIXTVbT0hdKVtDQEhdM1tDQEhdNltDQEhdKFtPSF0pW0NAQEhdKFtDQEBdNTY3KVtDQF0oW0NIM10pKFtPSF0pW0NIXT1bQ0hdQzc9Tw==

>  <s_epik_cmdline>  (141) 
J2VwaWtfcHl0aG9uJywgJy1waHQnLCAnMi4wJywgJy1waCcsICc3LjAnLCAnLXRuJywgJzgnLCAnLW1hJywgJzIwMCcsICctaW1hZScsICc8aW5maWxlLm1hZT4nLCAnLW9tYWUnLCAnPG91dGZpbGUubWFlPic=

>  <r_lp_tautomer_probability>  (141) 
1

>  <r_epik_Ionization_Penalty>  (141) 
1.14929e-06

>  <r_epik_Ionization_Penalty_Charging>  (141) 
0

>  <r_epik_Ionization_Penalty_Neutral>  (141) 
1.14929e-06

>  <r_epik_State_Penalty>  (141) 
-0

>  <r_epik_Charging_Adjusted_Penalty>  (141) 
0

>  <i_epik_Tot_Q>  (141) 
0

>  <i_epik_Tot_abs_Q>  (141) 
0

>  <s_epik_Chemistry_Notes>  (141) 
This compound has an ester and may undergo hydrolysis at high or low pH.

>  <s_lp_Force_Field>  (141) 
OPLS3e

>  <r_lp_Energy>  (141) 
82.1201

>  <b_lp_Chiralities_Consistent>  (141) 
1

>  <s_lp_Variant>  (141) 
39:0-1

>  <s_i_glide_gridfile>  (141) 
pfpi4k_grid

>  <i_i_glide_lignum>  (141) 
15

>  <i_i_glide_rotatable_bonds>  (141) 
8

>  <r_i_docking_score>  (141) 
-3.55404

>  <r_i_glide_ligand_efficiency>  (141) 
-0.086684

>  <r_i_glide_ligand_efficiency_sa>  (141) 
-0.298905

>  <r_i_glide_ligand_efficiency_ln>  (141) 
-0.754002

>  <r_i_glide_gscore>  (141) 
-3.55404

>  <r_i_glide_lipo>  (141) 
-0.191297

>  <r_i_glide_hbond>  (141) 
-0.10351

>  <r_i_glide_metal>  (141) 
-0

>  <r_i_glide_rewards>  (141) 
-1.02077

>  <r_i_glide_evdw>  (141) 
-26.1036

>  <r_i_glide_ecoul>  (141) 
-6.07601

>  <r_i_glide_erotb>  (141) 
0.0376101

>  <r_i_glide_esite>  (141) 
-0.0594977

>  <r_i_glide_emodel>  (141) 
-49.8038

>  <r_i_glide_energy>  (141) 
-32.1796

>  <r_i_glide_einternal>  (141) 
0.939507

>  <r_i_glide_intrahb_reward>  (141) 
-1

>  <i_i_glide_confnum>  (141) 
1

>  <i_i_glide_posenum>  (141) 
4

>  <r_i_glide_eff_state_penalty>  (141) 
0

>  <ligand_id>  (141) 
39

>  <original_smiles>  (141) 
CC(=O)OC1C2C3C4=CC(=O)C=CC4(C)C4CC(CO)C(O)C56C(=O)C=CC(C)(O)C5C(O)C6C4C3(O)OCC12C

>  <smiles>  (141) 
[H]OC([H])([H])C1([H])C([H])([H])C2([H])C3(C([H])([H])[H])C([H])=C([H])C(=O)C([H])=C3C3([H])C(O[H])(OC([H])([H])C4(C([H])([H])[H])C([H])(OC(=O)C([H])([H])[H])C34[H])C2([H])C2([H])C([H])(O[H])C3([H])C(O[H])(C([H])([H])[H])C([H])=C([H])C(=O)C32C1([H])O[H]

$$$$
40:0:0
     RDKit          3D

 39 42  0  0  1  0  0  0  0  0999 V2000
    3.6017   -1.3459   -4.0910 C   0  0  0  0  0  0  0  0  0  0  0  0
    3.6482   -1.0389   -2.5908 C   0  0  0  0  0  0  0  0  0  0  0  0
    4.4681   -1.9952   -1.8632 N   0  0  0  0  0  0  0  0  0  0  0  0
    4.0687   -3.0613   -1.0682 C   0  0  0  0  0  0  0  0  0  0  0  0
    5.2248   -3.6166   -0.6052 C   0  0  0  0  0  0  0  0  0  0  0  0
    6.2724   -2.8566   -1.1631 C   0  0  0  0  0  0  0  0  0  0  0  0
    5.8182   -1.8655   -1.9191 N   0  0  0  0  0  0  0  0  0  0  0  0
    7.7259   -3.1391   -0.9072 C   0  0  0  0  0  0  0  0  0  0  0  0
    7.9039   -3.8065    0.4822 C   0  0  0  0  0  0  0  0  0  0  0  0
    6.8438   -4.8637    0.7986 C   0  0  0  0  0  0  0  0  0  0  0  0
    7.1050   -5.9974    1.5907 C   0  0  0  0  0  0  0  0  0  0  0  0
    6.1412   -6.9118    1.8428 N   0  0  0  0  0  0  0  0  0  0  0  0
    4.9291   -6.6720    1.3472 C   0  0  0  0  0  0  0  0  0  0  0  0
    3.9533   -7.5806    1.6979 N   0  0  0  0  0  0  0  0  0  0  0  0
    2.5369   -7.4664    1.6662 C   0  0  0  0  0  0  0  0  0  0  0  0
    1.7254   -6.4311    1.1108 C   0  0  0  0  0  0  0  0  0  0  0  0
    0.4269   -6.6372    1.2580 N   0  0  0  0  0  0  0  0  0  0  0  0
    0.3566   -7.8126    1.9077 N   0  0  0  0  0  0  0  0  0  0  0  0
   -0.9496   -8.3395    2.2189 C   0  0  0  0  0  0  0  0  0  0  0  0
    1.6094   -8.3433    2.1655 C   0  0  0  0  0  0  0  0  0  0  0  0
    4.5711   -5.6313    0.5898 N   0  0  0  0  0  0  0  0  0  0  0  0
    5.5282   -4.7312    0.2977 C   0  0  0  0  0  0  0  0  0  0  0  0
    4.3486   -8.3899    2.1538 H   0  0  0  0  0  0  0  0  0  0  0  0
    2.9783   -0.6175   -4.6126 H   0  0  0  0  0  0  0  0  0  0  0  0
    3.1780   -2.3324   -4.2755 H   0  0  0  0  0  0  0  0  0  0  0  0
    4.5988   -1.3077   -4.5299 H   0  0  0  0  0  0  0  0  0  0  0  0
    4.0437   -0.0342   -2.4252 H   0  0  0  0  0  0  0  0  0  0  0  0
    2.6374   -1.0584   -2.1795 H   0  0  0  0  0  0  0  0  0  0  0  0
    3.0279   -3.3037   -0.8979 H   0  0  0  0  0  0  0  0  0  0  0  0
    8.0884   -3.8314   -1.6700 H   0  0  0  0  0  0  0  0  0  0  0  0
    8.3449   -2.2455   -0.9933 H   0  0  0  0  0  0  0  0  0  0  0  0
    8.9087   -4.2110    0.6092 H   0  0  0  0  0  0  0  0  0  0  0  0
    7.7719   -3.0330    1.2409 H   0  0  0  0  0  0  0  0  0  0  0  0
    8.0880   -6.1740    2.0109 H   0  0  0  0  0  0  0  0  0  0  0  0
    2.0282   -5.5309    0.5930 H   0  0  0  0  0  0  0  0  0  0  0  0
   -0.8622   -9.2698    2.7758 H   0  0  0  0  0  0  0  0  0  0  0  0
   -1.4858   -8.5363    1.2897 H   0  0  0  0  0  0  0  0  0  0  0  0
   -1.5098   -7.6150    2.8077 H   0  0  0  0  0  0  0  0  0  0  0  0
    1.7213   -9.2900    2.6725 H   0  0  0  0  0  0  0  0  0  0  0  0
  1  2  1  0
  1 24  1  0
  1 25  1  0
  1 26  1  0
  2  3  1  0
  2 27  1  0
  2 28  1  0
  3  7  1  0
  3  4  1  0
  4  5  2  0
  4 29  1  0
  5  6  1  0
  5 22  1  0
  6  7  2  0
  6  8  1  0
  8  9  1  0
  8 30  1  0
  8 31  1  0
  9 32  1  0
  9 33  1  0
  9 10  1  0
 10 11  1  0
 10 22  2  0
 11 12  2  0
 11 34  1  0
 12 13  1  0
 13 14  1  0
 13 21  2  0
 14 15  1  0
 14 23  1  0
 15 20  2  0
 15 16  1  0
 16 17  2  0
 16 35  1  0
 17 18  1  0
 18 19  1  0
 18 20  1  0
 19 36  1  0
 19 37  1  0
 19 38  1  0
 20 39  1  0
 21 22  1  0
M  END
>  <i_m_ct_stereo_status>  (142) 
1

>  <s_m_source_file>  (142) 
/var/tmp/pbs.5076255.sched01/tmp68k5m_u8/43t0xmz28c.sdf

>  <i_m_source_file_index>  (142) 
16

>  <i_lp_mmshare_version>  (142) 
48012

>  <i_f3d_flags>  (142) 
0

>  <s_epik_input>  (142) 
W0NIM11bQ0gyXW4oW2NIXTEpbmMoYzEyKVtDSDJdW0NIMl1jM2MyW25IXWMoXG5bY0hdMyk9TlxjNFtjSF1ubihbQ0gzXSlbY0hdNA==

>  <s_epik_cmdline>  (142) 
J2VwaWtfcHl0aG9uJywgJy1waHQnLCAnMi4wJywgJy1waCcsICc3LjAnLCAnLXRuJywgJzgnLCAnLW1hJywgJzIwMCcsICctaW1hZScsICc8aW5maWxlLm1hZT4nLCAnLW9tYWUnLCAnPG91dGZpbGUubWFlPic=

>  <r_lp_tautomer_probability>  (142) 
1

>  <r_epik_Ionization_Penalty>  (142) 
0.000430216

>  <r_epik_Ionization_Penalty_Charging>  (142) 
0

>  <r_epik_Ionization_Penalty_Neutral>  (142) 
0.000430216

>  <r_epik_State_Penalty>  (142) 
-0

>  <r_epik_Charging_Adjusted_Penalty>  (142) 
0

>  <i_epik_Tot_Q>  (142) 
0

>  <i_epik_Tot_abs_Q>  (142) 
0

>  <s_lp_Force_Field>  (142) 
OPLS3e

>  <r_lp_Energy>  (142) 
19.7322

>  <b_lp_Chiralities_Consistent>  (142) 
1

>  <s_lp_Variant>  (142) 
40:0-1

>  <s_i_glide_gridfile>  (142) 
pfpi4k_grid

>  <i_i_glide_lignum>  (142) 
16

>  <i_i_glide_rotatable_bonds>  (142) 
3

>  <r_i_docking_score>  (142) 
-4.21627

>  <r_i_glide_ligand_efficiency>  (142) 
-0.191649

>  <r_i_glide_ligand_efficiency_sa>  (142) 
-0.537008

>  <r_i_glide_ligand_efficiency_ln>  (142) 
-1.03061

>  <r_i_glide_gscore>  (142) 
-4.21627

>  <r_i_glide_lipo>  (142) 
-0.584403

>  <r_i_glide_hbond>  (142) 
-0.16188

>  <r_i_glide_metal>  (142) 
-0

>  <r_i_glide_rewards>  (142) 
-1.51083

>  <r_i_glide_evdw>  (142) 
-31.8088

>  <r_i_glide_ecoul>  (142) 
-4.68557

>  <r_i_glide_erotb>  (142) 
0.419659

>  <r_i_glide_esite>  (142) 
-0.0855511

>  <r_i_glide_emodel>  (142) 
-46.226

>  <r_i_glide_energy>  (142) 
-36.4943

>  <r_i_glide_einternal>  (142) 
1.13371

>  <r_i_glide_intrahb_reward>  (142) 
-0

>  <i_i_glide_confnum>  (142) 
6

>  <i_i_glide_posenum>  (142) 
22

>  <r_i_glide_eff_state_penalty>  (142) 
0

>  <ligand_id>  (142) 
40

>  <original_smiles>  (142) 
CCn1cc2c(n1)CCc1cnc(=Nc3cnn(C)c3)[nH]c1-2

>  <smiles>  (142) 
[H]c1nn(C([H])([H])[H])c([H])c1N([H])c1nc([H])c2c(n1)-c1c(nn(C([H])([H])C([H])([H])[H])c1[H])C([H])([H])C2([H])[H]

$$$$
40:0:1
     RDKit          3D

 39 42  0  0  1  0  0  0  0  0999 V2000
    0.7425    1.5402    1.8643 C   0  0  0  0  0  0  0  0  0  0  0  0
    1.2925    0.5183    2.8716 C   0  0  0  0  0  0  0  0  0  0  0  0
    2.1558   -0.4759    2.2540 N   0  0  0  0  0  0  0  0  0  0  0  0
    2.0971   -1.8607    2.3600 C   0  0  0  0  0  0  0  0  0  0  0  0
    3.1396   -2.3219    1.6125 C   0  0  0  0  0  0  0  0  0  0  0  0
    3.7830   -1.1785    1.1003 C   0  0  0  0  0  0  0  0  0  0  0  0
    3.2115   -0.0580    1.5063 N   0  0  0  0  0  0  0  0  0  0  0  0
    4.9901   -1.2361    0.2127 C   0  0  0  0  0  0  0  0  0  0  0  0
    5.8181   -2.5081    0.5315 C   0  0  0  0  0  0  0  0  0  0  0  0
    4.9637   -3.7577    0.7588 C   0  0  0  0  0  0  0  0  0  0  0  0
    5.4056   -5.0559    0.4425 C   0  0  0  0  0  0  0  0  0  0  0  0
    4.6377   -6.1403    0.6878 N   0  0  0  0  0  0  0  0  0  0  0  0
    3.4445   -5.9225    1.2339 C   0  0  0  0  0  0  0  0  0  0  0  0
    2.7047   -7.0517    1.5183 N   0  0  0  0  0  0  0  0  0  0  0  0
    1.4311   -7.1932    2.1267 C   0  0  0  0  0  0  0  0  0  0  0  0
    0.6928   -6.2351    2.8875 C   0  0  0  0  0  0  0  0  0  0  0  0
   -0.4985   -6.6652    3.2651 N   0  0  0  0  0  0  0  0  0  0  0  0
   -0.5390   -7.9329    2.8201 N   0  0  0  0  0  0  0  0  0  0  0  0
   -1.7188   -8.7147    3.1167 C   0  0  0  0  0  0  0  0  0  0  0  0
    0.6042   -8.2850    2.1292 C   0  0  0  0  0  0  0  0  0  0  0  0
    2.9135   -4.7393    1.5499 N   0  0  0  0  0  0  0  0  0  0  0  0
    3.6724   -3.6543    1.3196 C   0  0  0  0  0  0  0  0  0  0  0  0
    3.1762   -7.8903    1.2111 H   0  0  0  0  0  0  0  0  0  0  0  0
    0.0951    2.2736    2.3485 H   0  0  0  0  0  0  0  0  0  0  0  0
    0.1653    1.0432    1.0850 H   0  0  0  0  0  0  0  0  0  0  0  0
    1.5470    2.0910    1.3785 H   0  0  0  0  0  0  0  0  0  0  0  0
    1.8536    1.0301    3.6559 H   0  0  0  0  0  0  0  0  0  0  0  0
    0.4601    0.0063    3.3528 H   0  0  0  0  0  0  0  0  0  0  0  0
    1.3497   -2.3716    2.9483 H   0  0  0  0  0  0  0  0  0  0  0  0
    4.6466   -1.3006   -0.8195 H   0  0  0  0  0  0  0  0  0  0  0  0
    5.5926   -0.3304    0.2952 H   0  0  0  0  0  0  0  0  0  0  0  0
    6.5793   -2.6912   -0.2295 H   0  0  0  0  0  0  0  0  0  0  0  0
    6.3408   -2.3335    1.4729 H   0  0  0  0  0  0  0  0  0  0  0  0
    6.3728   -5.2248   -0.0158 H   0  0  0  0  0  0  0  0  0  0  0  0
    0.9656   -5.2257    3.1617 H   0  0  0  0  0  0  0  0  0  0  0  0
   -1.6202   -9.7237    2.7247 H   0  0  0  0  0  0  0  0  0  0  0  0
   -2.5824   -8.2321    2.6672 H   0  0  0  0  0  0  0  0  0  0  0  0
   -1.8619   -8.7640    4.1964 H   0  0  0  0  0  0  0  0  0  0  0  0
    0.7200   -9.2676    1.6912 H   0  0  0  0  0  0  0  0  0  0  0  0
  1  2  1  0
  1 24  1  0
  1 25  1  0
  1 26  1  0
  2  3  1  0
  2 27  1  0
  2 28  1  0
  3  7  1  0
  3  4  1  0
  4  5  2  0
  4 29  1  0
  5  6  1  0
  5 22  1  0
  6  7  2  0
  6  8  1  0
  8  9  1  0
  8 30  1  0
  8 31  1  0
  9 32  1  0
  9 33  1  0
  9 10  1  0
 10 11  1  0
 10 22  2  0
 11 12  2  0
 11 34  1  0
 12 13  1  0
 13 14  1  0
 13 21  2  0
 14 15  1  0
 14 23  1  0
 15 20  2  0
 15 16  1  0
 16 17  2  0
 16 35  1  0
 17 18  1  0
 18 19  1  0
 18 20  1  0
 19 36  1  0
 19 37  1  0
 19 38  1  0
 20 39  1  0
 21 22  1  0
M  END
>  <i_m_ct_stereo_status>  (143) 
1

>  <s_m_source_file>  (143) 
/var/tmp/pbs.5076255.sched01/tmp68k5m_u8/43t0xmz28c.sdf

>  <i_m_source_file_index>  (143) 
16

>  <i_lp_mmshare_version>  (143) 
48012

>  <i_f3d_flags>  (143) 
0

>  <s_epik_input>  (143) 
W0NIM11bQ0gyXW4oW2NIXTEpbmMoYzEyKVtDSDJdW0NIMl1jM2MyW25IXWMoXG5bY0hdMyk9TlxjNFtjSF1ubihbQ0gzXSlbY0hdNA==

>  <s_epik_cmdline>  (143) 
J2VwaWtfcHl0aG9uJywgJy1waHQnLCAnMi4wJywgJy1waCcsICc3LjAnLCAnLXRuJywgJzgnLCAnLW1hJywgJzIwMCcsICctaW1hZScsICc8aW5maWxlLm1hZT4nLCAnLW9tYWUnLCAnPG91dGZpbGUubWFlPic=

>  <r_lp_tautomer_probability>  (143) 
1

>  <r_epik_Ionization_Penalty>  (143) 
0.000430216

>  <r_epik_Ionization_Penalty_Charging>  (143) 
0

>  <r_epik_Ionization_Penalty_Neutral>  (143) 
0.000430216

>  <r_epik_State_Penalty>  (143) 
-0

>  <r_epik_Charging_Adjusted_Penalty>  (143) 
0

>  <i_epik_Tot_Q>  (143) 
0

>  <i_epik_Tot_abs_Q>  (143) 
0

>  <s_lp_Force_Field>  (143) 
OPLS3e

>  <r_lp_Energy>  (143) 
19.7322

>  <b_lp_Chiralities_Consistent>  (143) 
1

>  <s_lp_Variant>  (143) 
40:0-1

>  <s_i_glide_gridfile>  (143) 
pfpi4k_grid

>  <i_i_glide_lignum>  (143) 
16

>  <i_i_glide_rotatable_bonds>  (143) 
3

>  <r_i_docking_score>  (143) 
-3.36314

>  <r_i_glide_ligand_efficiency>  (143) 
-0.15287

>  <r_i_glide_ligand_efficiency_sa>  (143) 
-0.428348

>  <r_i_glide_ligand_efficiency_ln>  (143) 
-0.822074

>  <r_i_glide_gscore>  (143) 
-3.36314

>  <r_i_glide_lipo>  (143) 
-0.228223

>  <r_i_glide_hbond>  (143) 
-0.152218

>  <r_i_glide_metal>  (143) 
-0

>  <r_i_glide_rewards>  (143) 
-1.43585

>  <r_i_glide_evdw>  (143) 
-25.9251

>  <r_i_glide_ecoul>  (143) 
-3.85296

>  <r_i_glide_erotb>  (143) 
0.419659

>  <r_i_glide_esite>  (143) 
-0.0923081

>  <r_i_glide_emodel>  (143) 
-37.4967

>  <r_i_glide_energy>  (143) 
-29.7781

>  <r_i_glide_einternal>  (143) 
0.886722

>  <r_i_glide_intrahb_reward>  (143) 
-0

>  <i_i_glide_confnum>  (143) 
6

>  <i_i_glide_posenum>  (143) 
1

>  <r_i_glide_eff_state_penalty>  (143) 
0

>  <ligand_id>  (143) 
40

>  <original_smiles>  (143) 
CCn1cc2c(n1)CCc1cnc(=Nc3cnn(C)c3)[nH]c1-2

>  <smiles>  (143) 
[H]c1nn(C([H])([H])[H])c([H])c1N([H])c1nc([H])c2c(n1)-c1c(nn(C([H])([H])C([H])([H])[H])c1[H])C([H])([H])C2([H])[H]

$$$$
40:0:2
     RDKit          3D

 39 42  0  0  1  0  0  0  0  0999 V2000
    0.0411   -7.5439    2.1672 C   0  0  0  0  0  0  0  0  0  0  0  0
    0.9933   -6.8393    3.1454 C   0  0  0  0  0  0  0  0  0  0  0  0
    1.9415   -5.9728    2.4686 N   0  0  0  0  0  0  0  0  0  0  0  0
    1.9663   -4.5873    2.4258 C   0  0  0  0  0  0  0  0  0  0  0  0
    3.0197   -4.2720    1.6203 C   0  0  0  0  0  0  0  0  0  0  0  0
    3.6072   -5.4984    1.2525 C   0  0  0  0  0  0  0  0  0  0  0  0
    2.9545   -6.5333    1.7564 N   0  0  0  0  0  0  0  0  0  0  0  0
    4.8218   -5.6033    0.3758 C   0  0  0  0  0  0  0  0  0  0  0  0
    4.8867   -4.3931   -0.5893 C   0  0  0  0  0  0  0  0  0  0  0  0
    4.5111   -3.0622    0.0695 C   0  0  0  0  0  0  0  0  0  0  0  0
    5.0764   -1.8366   -0.3213 C   0  0  0  0  0  0  0  0  0  0  0  0
    4.7288   -0.6787    0.2773 N   0  0  0  0  0  0  0  0  0  0  0  0
    3.7715   -0.7405    1.1987 C   0  0  0  0  0  0  0  0  0  0  0  0
    3.4015    0.4705    1.7296 N   0  0  0  0  0  0  0  0  0  0  0  0
    2.2186    0.8412    2.3951 C   0  0  0  0  0  0  0  0  0  0  0  0
    2.0216    1.3269    3.7208 C   0  0  0  0  0  0  0  0  0  0  0  0
    0.7440    1.5490    3.9960 N   0  0  0  0  0  0  0  0  0  0  0  0
    0.0985    1.2452    2.8491 N   0  0  0  0  0  0  0  0  0  0  0  0
   -1.3394    1.3726    2.7864 C   0  0  0  0  0  0  0  0  0  0  0  0
    0.9622    0.8220    1.8673 C   0  0  0  0  0  0  0  0  0  0  0  0
    3.1629   -1.8413    1.6556 N   0  0  0  0  0  0  0  0  0  0  0  0
    3.5532   -3.0074    1.1048 C   0  0  0  0  0  0  0  0  0  0  0  0
    4.0717    1.2043    1.5486 H   0  0  0  0  0  0  0  0  0  0  0  0
   -0.6789   -8.1675    2.7019 H   0  0  0  0  0  0  0  0  0  0  0  0
    0.5939   -8.1927    1.4870 H   0  0  0  0  0  0  0  0  0  0  0  0
   -0.5172   -6.8266    1.5669 H   0  0  0  0  0  0  0  0  0  0  0  0
    0.4229   -6.2361    3.8491 H   0  0  0  0  0  0  0  0  0  0  0  0
    1.5440   -7.5747    3.7336 H   0  0  0  0  0  0  0  0  0  0  0  0
    1.2258   -3.9691    2.9120 H   0  0  0  0  0  0  0  0  0  0  0  0
    5.7057   -5.5790    1.0133 H   0  0  0  0  0  0  0  0  0  0  0  0
    4.8525   -6.5463   -0.1707 H   0  0  0  0  0  0  0  0  0  0  0  0
    5.8540   -4.3230   -1.0843 H   0  0  0  0  0  0  0  0  0  0  0  0
    4.1489   -4.5529   -1.3754 H   0  0  0  0  0  0  0  0  0  0  0  0
    5.8169   -1.7848   -1.1068 H   0  0  0  0  0  0  0  0  0  0  0  0
    2.7587    1.5100    4.4928 H   0  0  0  0  0  0  0  0  0  0  0  0
   -1.7042    1.0435    1.8138 H   0  0  0  0  0  0  0  0  0  0  0  0
   -1.6287    2.4125    2.9382 H   0  0  0  0  0  0  0  0  0  0  0  0
   -1.7856    0.7533    3.5646 H   0  0  0  0  0  0  0  0  0  0  0  0
    0.6194    0.5437    0.8812 H   0  0  0  0  0  0  0  0  0  0  0  0
  1  2  1  0
  1 24  1  0
  1 25  1  0
  1 26  1  0
  2  3  1  0
  2 27  1  0
  2 28  1  0
  3  7  1  0
  3  4  1  0
  4  5  2  0
  4 29  1  0
  5  6  1  0
  5 22  1  0
  6  7  2  0
  6  8  1  0
  8  9  1  0
  8 30  1  0
  8 31  1  0
  9 32  1  0
  9 33  1  0
  9 10  1  0
 10 11  1  0
 10 22  2  0
 11 12  2  0
 11 34  1  0
 12 13  1  0
 13 14  1  0
 13 21  2  0
 14 15  1  0
 14 23  1  0
 15 20  2  0
 15 16  1  0
 16 17  2  0
 16 35  1  0
 17 18  1  0
 18 19  1  0
 18 20  1  0
 19 36  1  0
 19 37  1  0
 19 38  1  0
 20 39  1  0
 21 22  1  0
M  END
>  <i_m_ct_stereo_status>  (144) 
1

>  <s_m_source_file>  (144) 
/var/tmp/pbs.5076255.sched01/tmp68k5m_u8/43t0xmz28c.sdf

>  <i_m_source_file_index>  (144) 
16

>  <i_lp_mmshare_version>  (144) 
48012

>  <i_f3d_flags>  (144) 
0

>  <s_epik_input>  (144) 
W0NIM11bQ0gyXW4oW2NIXTEpbmMoYzEyKVtDSDJdW0NIMl1jM2MyW25IXWMoXG5bY0hdMyk9TlxjNFtjSF1ubihbQ0gzXSlbY0hdNA==

>  <s_epik_cmdline>  (144) 
J2VwaWtfcHl0aG9uJywgJy1waHQnLCAnMi4wJywgJy1waCcsICc3LjAnLCAnLXRuJywgJzgnLCAnLW1hJywgJzIwMCcsICctaW1hZScsICc8aW5maWxlLm1hZT4nLCAnLW9tYWUnLCAnPG91dGZpbGUubWFlPic=

>  <r_lp_tautomer_probability>  (144) 
1

>  <r_epik_Ionization_Penalty>  (144) 
0.000430216

>  <r_epik_Ionization_Penalty_Charging>  (144) 
0

>  <r_epik_Ionization_Penalty_Neutral>  (144) 
0.000430216

>  <r_epik_State_Penalty>  (144) 
-0

>  <r_epik_Charging_Adjusted_Penalty>  (144) 
0

>  <i_epik_Tot_Q>  (144) 
0

>  <i_epik_Tot_abs_Q>  (144) 
0

>  <s_lp_Force_Field>  (144) 
OPLS3e

>  <r_lp_Energy>  (144) 
19.7322

>  <b_lp_Chiralities_Consistent>  (144) 
1

>  <s_lp_Variant>  (144) 
40:0-1

>  <s_i_glide_gridfile>  (144) 
pfpi4k_grid

>  <i_i_glide_lignum>  (144) 
16

>  <i_i_glide_rotatable_bonds>  (144) 
3

>  <r_i_docking_score>  (144) 
-3.07133

>  <r_i_glide_ligand_efficiency>  (144) 
-0.139606

>  <r_i_glide_ligand_efficiency_sa>  (144) 
-0.391182

>  <r_i_glide_ligand_efficiency_ln>  (144) 
-0.750746

>  <r_i_glide_gscore>  (144) 
-3.07133

>  <r_i_glide_lipo>  (144) 
-0.163451

>  <r_i_glide_hbond>  (144) 
-0.29579

>  <r_i_glide_metal>  (144) 
-0

>  <r_i_glide_rewards>  (144) 
-1.39539

>  <r_i_glide_evdw>  (144) 
-24.8401

>  <r_i_glide_ecoul>  (144) 
-2.15917

>  <r_i_glide_erotb>  (144) 
0.419659

>  <r_i_glide_esite>  (144) 
-0.0704773

>  <r_i_glide_emodel>  (144) 
-32.5869

>  <r_i_glide_energy>  (144) 
-26.9993

>  <r_i_glide_einternal>  (144) 
3.94968

>  <r_i_glide_intrahb_reward>  (144) 
-0

>  <i_i_glide_confnum>  (144) 
4

>  <i_i_glide_posenum>  (144) 
38

>  <r_i_glide_eff_state_penalty>  (144) 
0

>  <ligand_id>  (144) 
40

>  <original_smiles>  (144) 
CCn1cc2c(n1)CCc1cnc(=Nc3cnn(C)c3)[nH]c1-2

>  <smiles>  (144) 
[H]c1nn(C([H])([H])[H])c([H])c1N([H])c1nc([H])c2c(n1)-c1c(nn(C([H])([H])C([H])([H])[H])c1[H])C([H])([H])C2([H])[H]

$$$$
41:0:0
     RDKit          3D

 30 32  0  0  1  0  0  0  0  0999 V2000
    5.2064   -3.2089   -2.9163 C   0  0  0  0  0  0  0  0  0  0  0  0
    4.4007   -2.9632   -1.6312 C   0  0  2  0  0  0  0  0  0  0  0  0
    4.3732   -1.4695   -1.2467 C   0  0  0  0  0  0  0  0  0  0  0  0
    5.6936   -1.0544   -0.8886 O   0  0  0  0  0  0  0  0  0  0  0  0
    6.1863   -1.7494    0.2557 C   0  0  0  0  0  0  0  0  0  0  0  0
    6.2476   -3.2650   -0.0130 C   0  0  0  0  0  0  0  0  0  0  0  0
    4.9487   -3.7280   -0.5079 N   0  0  0  0  0  0  0  0  0  0  0  0
    4.2710   -4.7861    0.0909 C   0  0  0  0  0  0  0  0  0  0  0  0
    5.0058   -5.8535    0.6823 C   0  0  0  0  0  0  0  0  0  0  0  0
    4.3603   -6.9110    1.2807 C   0  0  0  0  0  0  0  0  0  0  0  0
    3.0034   -6.9289    1.2867 N   0  0  0  0  0  0  0  0  0  0  0  0
    2.2149   -7.8900    1.8275 N   0  0  0  0  0  0  0  0  0  0  0  0
    0.9996   -7.4445    1.5455 C   0  0  0  0  0  0  0  0  0  0  0  0
    0.9264   -6.2554    0.8782 N   0  0  0  0  0  0  0  0  0  0  0  0
    2.2108   -5.9237    0.7149 C   0  0  0  0  0  0  0  0  0  0  0  0
    2.8839   -4.8269    0.1170 C   0  0  0  0  0  0  0  0  0  0  0  0
    4.8224   -2.6152   -3.7451 H   0  0  0  0  0  0  0  0  0  0  0  0
    5.1571   -4.2603   -3.1967 H   0  0  0  0  0  0  0  0  0  0  0  0
    6.2569   -2.9506   -2.7978 H   0  0  0  0  0  0  0  0  0  0  0  0
    3.3813   -3.2630   -1.8668 H   0  0  0  0  0  0  0  0  0  0  0  0
    4.0093   -0.8652   -2.0777 H   0  0  0  0  0  0  0  0  0  0  0  0
    3.6823   -1.2965   -0.4150 H   0  0  0  0  0  0  0  0  0  0  0  0
    7.1816   -1.3747    0.4991 H   0  0  0  0  0  0  0  0  0  0  0  0
    5.5452   -1.5485    1.1163 H   0  0  0  0  0  0  0  0  0  0  0  0
    7.0018   -3.4896   -0.7657 H   0  0  0  0  0  0  0  0  0  0  0  0
    6.5640   -3.7651    0.9032 H   0  0  0  0  0  0  0  0  0  0  0  0
    6.0936   -5.8757    0.6638 H   0  0  0  0  0  0  0  0  0  0  0  0
    4.8736   -7.7474    1.7407 H   0  0  0  0  0  0  0  0  0  0  0  0
    0.1242   -7.9979    1.8434 H   0  0  0  0  0  0  0  0  0  0  0  0
    2.2747   -4.0441   -0.3137 H   0  0  0  0  0  0  0  0  0  0  0  0
  1  2  1  0
  1 17  1  0
  1 18  1  0
  1 19  1  0
  2  7  1  0
  2  3  1  0
  2 20  1  6
  3  4  1  0
  3 21  1  0
  3 22  1  0
  4  5  1  0
  5  6  1  0
  5 23  1  0
  5 24  1  0
  6  7  1  0
  6 25  1  0
  6 26  1  0
  7  8  1  0
  8 16  2  0
  8  9  1  0
  9 10  2  0
  9 27  1  0
 10 11  1  0
 10 28  1  0
 11 15  1  0
 11 12  1  0
 12 13  2  0
 13 14  1  0
 13 29  1  0
 14 15  2  0
 15 16  1  0
 16 30  1  0
M  END
>  <i_m_ct_stereo_status>  (145) 
1

>  <s_m_source_file>  (145) 
/var/tmp/pbs.5076255.sched01/tmp68k5m_u8/43t0xmz28c.sdf

>  <i_m_source_file_index>  (145) 
17

>  <i_lp_mmshare_version>  (145) 
48012

>  <i_f3d_flags>  (145) 
0

>  <s_epik_input>  (145) 
W0NIM11bQ0BASF0xW0NIMl1PW0NIMl1bQ0gyXU4xYyhbY0hdW2NIXTIpW2NIXWMobjIzKW5bY0hdbjM=

>  <s_epik_cmdline>  (145) 
J2VwaWtfcHl0aG9uJywgJy1waHQnLCAnMi4wJywgJy1waCcsICc3LjAnLCAnLXRuJywgJzgnLCAnLW1hJywgJzIwMCcsICctaW1hZScsICc8aW5maWxlLm1hZT4nLCAnLW9tYWUnLCAnPG91dGZpbGUubWFlPic=

>  <r_epik_Ionization_Penalty>  (145) 
0.00149091

>  <r_epik_Ionization_Penalty_Charging>  (145) 
0

>  <r_epik_Ionization_Penalty_Neutral>  (145) 
0.00149091

>  <r_epik_State_Penalty>  (145) 
0.000998413

>  <r_epik_Charging_Adjusted_Penalty>  (145) 
0.000998413

>  <i_epik_Tot_Q>  (145) 
0

>  <i_epik_Tot_abs_Q>  (145) 
0

>  <s_lp_Force_Field>  (145) 
OPLS3e

>  <r_lp_Energy>  (145) 
27.898

>  <b_lp_Chiralities_Consistent>  (145) 
1

>  <s_lp_Variant>  (145) 
41:0-1

>  <s_i_glide_gridfile>  (145) 
pfpi4k_grid

>  <i_i_glide_lignum>  (145) 
17

>  <i_i_glide_rotatable_bonds>  (145) 
1

>  <r_i_docking_score>  (145) 
-4.40281

>  <r_i_glide_ligand_efficiency>  (145) 
-0.275176

>  <r_i_glide_ligand_efficiency_sa>  (145) 
-0.6934

>  <r_i_glide_ligand_efficiency_ln>  (145) 
-1.16705

>  <r_i_glide_gscore>  (145) 
-4.40281

>  <r_i_glide_lipo>  (145) 
-0.537074

>  <r_i_glide_hbond>  (145) 
-0.192299

>  <r_i_glide_metal>  (145) 
-0

>  <r_i_glide_rewards>  (145) 
-2.04411

>  <r_i_glide_evdw>  (145) 
-22.737

>  <r_i_glide_ecoul>  (145) 
-5.01735

>  <r_i_glide_erotb>  (145) 
0.352717

>  <r_i_glide_esite>  (145) 
-0.0925972

>  <r_i_glide_emodel>  (145) 
-36.0027

>  <r_i_glide_energy>  (145) 
-27.7544

>  <r_i_glide_einternal>  (145) 
0.0195074

>  <r_i_glide_intrahb_reward>  (145) 
-0

>  <i_i_glide_confnum>  (145) 
5

>  <i_i_glide_posenum>  (145) 
1

>  <r_i_glide_eff_state_penalty>  (145) 
0

>  <ligand_id>  (145) 
41

>  <original_smiles>  (145) 
CC1COCCN1c1ccn2ncnc2c1

>  <smiles>  (145) 
[H]c1nc2c([H])c(N3C([H])([H])C([H])([H])OC([H])([H])C3([H])C([H])([H])[H])c([H])c([H])n2n1

$$$$
41:0:1
     RDKit          3D

 30 32  0  0  1  0  0  0  0  0999 V2000
    4.8553   -2.4748    1.7867 C   0  0  0  0  0  0  0  0  0  0  0  0
    5.2519   -2.3932    0.2997 C   0  0  2  0  0  0  0  0  0  0  0  0
    4.6798   -1.1223   -0.3602 C   0  0  0  0  0  0  0  0  0  0  0  0
    5.0633   -1.0710   -1.7363 O   0  0  0  0  0  0  0  0  0  0  0  0
    4.5281   -2.1668   -2.4810 C   0  0  0  0  0  0  0  0  0  0  0  0
    5.1007   -3.4835   -1.9264 C   0  0  0  0  0  0  0  0  0  0  0  0
    4.8551   -3.5577   -0.4911 N   0  0  0  0  0  0  0  0  0  0  0  0
    4.2257   -4.6528    0.0674 C   0  0  0  0  0  0  0  0  0  0  0  0
    5.0065   -5.6650    0.6793 C   0  0  0  0  0  0  0  0  0  0  0  0
    4.3956   -6.7392    1.2899 C   0  0  0  0  0  0  0  0  0  0  0  0
    3.0388   -6.8187    1.2797 N   0  0  0  0  0  0  0  0  0  0  0  0
    2.2881   -7.8083    1.8225 N   0  0  0  0  0  0  0  0  0  0  0  0
    1.0535   -7.4286    1.5094 C   0  0  0  0  0  0  0  0  0  0  0  0
    0.9388   -6.2543    0.8208 N   0  0  0  0  0  0  0  0  0  0  0  0
    2.2092   -5.8582    0.6784 C   0  0  0  0  0  0  0  0  0  0  0  0
    2.8488   -4.7361    0.0786 C   0  0  0  0  0  0  0  0  0  0  0  0
    5.1553   -1.5762    2.3265 H   0  0  0  0  0  0  0  0  0  0  0  0
    5.3254   -3.3242    2.2862 H   0  0  0  0  0  0  0  0  0  0  0  0
    3.7747   -2.5711    1.8980 H   0  0  0  0  0  0  0  0  0  0  0  0
    6.3393   -2.3392    0.2385 H   0  0  0  0  0  0  0  0  0  0  0  0
    3.5925   -1.0992   -0.2723 H   0  0  0  0  0  0  0  0  0  0  0  0
    5.0603   -0.2345    0.1424 H   0  0  0  0  0  0  0  0  0  0  0  0
    3.4375   -2.1675   -2.4280 H   0  0  0  0  0  0  0  0  0  0  0  0
    4.7998   -2.0449   -3.5291 H   0  0  0  0  0  0  0  0  0  0  0  0
    4.6764   -4.3509   -2.4377 H   0  0  0  0  0  0  0  0  0  0  0  0
    6.1782   -3.5033   -2.0924 H   0  0  0  0  0  0  0  0  0  0  0  0
    6.0894   -5.5844    0.7094 H   0  0  0  0  0  0  0  0  0  0  0  0
    4.9330   -7.5384    1.7937 H   0  0  0  0  0  0  0  0  0  0  0  0
    0.1979   -8.0263    1.7991 H   0  0  0  0  0  0  0  0  0  0  0  0
    2.2583   -3.9629   -0.4040 H   0  0  0  0  0  0  0  0  0  0  0  0
  1  2  1  0
  1 17  1  0
  1 18  1  0
  1 19  1  0
  2  7  1  0
  2  3  1  0
  2 20  1  1
  3  4  1  0
  3 21  1  0
  3 22  1  0
  4  5  1  0
  5  6  1  0
  5 23  1  0
  5 24  1  0
  6  7  1  0
  6 25  1  0
  6 26  1  0
  7  8  1  0
  8 16  2  0
  8  9  1  0
  9 10  2  0
  9 27  1  0
 10 11  1  0
 10 28  1  0
 11 15  1  0
 11 12  1  0
 12 13  2  0
 13 14  1  0
 13 29  1  0
 14 15  2  0
 15 16  1  0
 16 30  1  0
M  END
>  <i_m_ct_stereo_status>  (146) 
1

>  <s_m_source_file>  (146) 
/var/tmp/pbs.5076255.sched01/tmp68k5m_u8/43t0xmz28c.sdf

>  <i_m_source_file_index>  (146) 
17

>  <i_lp_mmshare_version>  (146) 
48012

>  <i_f3d_flags>  (146) 
0

>  <s_epik_input>  (146) 
W0NIM11bQ0BASF0xW0NIMl1PW0NIMl1bQ0gyXU4xYyhbY0hdW2NIXTIpW2NIXWMobjIzKW5bY0hdbjM=

>  <s_epik_cmdline>  (146) 
J2VwaWtfcHl0aG9uJywgJy1waHQnLCAnMi4wJywgJy1waCcsICc3LjAnLCAnLXRuJywgJzgnLCAnLW1hJywgJzIwMCcsICctaW1hZScsICc8aW5maWxlLm1hZT4nLCAnLW9tYWUnLCAnPG91dGZpbGUubWFlPic=

>  <r_epik_Ionization_Penalty>  (146) 
0.00149091

>  <r_epik_Ionization_Penalty_Charging>  (146) 
0

>  <r_epik_Ionization_Penalty_Neutral>  (146) 
0.00149091

>  <r_epik_State_Penalty>  (146) 
0.000998413

>  <r_epik_Charging_Adjusted_Penalty>  (146) 
0.000998413

>  <i_epik_Tot_Q>  (146) 
0

>  <i_epik_Tot_abs_Q>  (146) 
0

>  <s_lp_Force_Field>  (146) 
OPLS3e

>  <r_lp_Energy>  (146) 
27.898

>  <b_lp_Chiralities_Consistent>  (146) 
1

>  <s_lp_Variant>  (146) 
41:0-1

>  <s_i_glide_gridfile>  (146) 
pfpi4k_grid

>  <i_i_glide_lignum>  (146) 
17

>  <i_i_glide_rotatable_bonds>  (146) 
1

>  <r_i_docking_score>  (146) 
-4.19631

>  <r_i_glide_ligand_efficiency>  (146) 
-0.262269

>  <r_i_glide_ligand_efficiency_sa>  (146) 
-0.660877

>  <r_i_glide_ligand_efficiency_ln>  (146) 
-1.11231

>  <r_i_glide_gscore>  (146) 
-4.19631

>  <r_i_glide_lipo>  (146) 
-0.399099

>  <r_i_glide_hbond>  (146) 
-0.16

>  <r_i_glide_metal>  (146) 
-0

>  <r_i_glide_rewards>  (146) 
-2.0416

>  <r_i_glide_evdw>  (146) 
-21.8884

>  <r_i_glide_ecoul>  (146) 
-5.06671

>  <r_i_glide_erotb>  (146) 
0.352717

>  <r_i_glide_esite>  (146) 
-0.0938926

>  <r_i_glide_emodel>  (146) 
-34.0265

>  <r_i_glide_energy>  (146) 
-26.9551

>  <r_i_glide_einternal>  (146) 
1.66421

>  <r_i_glide_intrahb_reward>  (146) 
-0

>  <i_i_glide_confnum>  (146) 
2

>  <i_i_glide_posenum>  (146) 
10

>  <r_i_glide_eff_state_penalty>  (146) 
0

>  <ligand_id>  (146) 
41

>  <original_smiles>  (146) 
CC1COCCN1c1ccn2ncnc2c1

>  <smiles>  (146) 
[H]c1nc2c([H])c(N3C([H])([H])C([H])([H])OC([H])([H])C3([H])C([H])([H])[H])c([H])c([H])n2n1

$$$$
41:0:2
     RDKit          3D

 30 32  0  0  1  0  0  0  0  0999 V2000
    6.4419   -2.9247   -2.0211 C   0  0  0  0  0  0  0  0  0  0  0  0
    4.9780   -3.3881   -2.0645 C   0  0  2  0  0  0  0  0  0  0  0  0
    4.3767   -3.3471   -3.4871 C   0  0  0  0  0  0  0  0  0  0  0  0
    4.2807   -1.9938   -3.9302 O   0  0  0  0  0  0  0  0  0  0  0  0
    3.4219   -1.2102   -3.1054 C   0  0  0  0  0  0  0  0  0  0  0  0
    3.9235   -1.1921   -1.6471 C   0  0  0  0  0  0  0  0  0  0  0  0
    4.1583   -2.5594   -1.1871 N   0  0  0  0  0  0  0  0  0  0  0  0
    3.5881   -3.0381   -0.0131 C   0  0  0  0  0  0  0  0  0  0  0  0
    3.3806   -2.1669    1.0941 C   0  0  0  0  0  0  0  0  0  0  0  0
    2.8120   -2.6237    2.2617 C   0  0  0  0  0  0  0  0  0  0  0  0
    2.4510   -3.9308    2.3410 N   0  0  0  0  0  0  0  0  0  0  0  0
    1.8700   -4.5457    3.4067 N   0  0  0  0  0  0  0  0  0  0  0  0
    1.7348   -5.7905    2.9644 C   0  0  0  0  0  0  0  0  0  0  0  0
    2.1258   -6.0221    1.6788 N   0  0  0  0  0  0  0  0  0  0  0  0
    2.6157   -4.8442    1.2967 C   0  0  0  0  0  0  0  0  0  0  0  0
    3.2022   -4.3617    0.1018 C   0  0  0  0  0  0  0  0  0  0  0  0
    7.0581   -3.5019   -2.7098 H   0  0  0  0  0  0  0  0  0  0  0  0
    6.8578   -3.0225   -1.0178 H   0  0  0  0  0  0  0  0  0  0  0  0
    6.5374   -1.8798   -2.3136 H   0  0  0  0  0  0  0  0  0  0  0  0
    4.9914   -4.4270   -1.7463 H   0  0  0  0  0  0  0  0  0  0  0  0
    4.9989   -3.9160   -4.1791 H   0  0  0  0  0  0  0  0  0  0  0  0
    3.3880   -3.8138   -3.5018 H   0  0  0  0  0  0  0  0  0  0  0  0
    3.3791   -0.1902   -3.4917 H   0  0  0  0  0  0  0  0  0  0  0  0
    2.4112   -1.6180   -3.1403 H   0  0  0  0  0  0  0  0  0  0  0  0
    4.8577   -0.6346   -1.5653 H   0  0  0  0  0  0  0  0  0  0  0  0
    3.1901   -0.6686   -1.0353 H   0  0  0  0  0  0  0  0  0  0  0  0
    3.6628   -1.1173    1.0536 H   0  0  0  0  0  0  0  0  0  0  0  0
    2.6252   -1.9984    3.1244 H   0  0  0  0  0  0  0  0  0  0  0  0
    1.3072   -6.5604    3.5839 H   0  0  0  0  0  0  0  0  0  0  0  0
    3.3001   -5.0630   -0.7207 H   0  0  0  0  0  0  0  0  0  0  0  0
  1  2  1  0
  1 17  1  0
  1 18  1  0
  1 19  1  0
  2  7  1  0
  2  3  1  0
  2 20  1  1
  3  4  1  0
  3 21  1  0
  3 22  1  0
  4  5  1  0
  5  6  1  0
  5 23  1  0
  5 24  1  0
  6  7  1  0
  6 25  1  0
  6 26  1  0
  7  8  1  0
  8 16  2  0
  8  9  1  0
  9 10  2  0
  9 27  1  0
 10 11  1  0
 10 28  1  0
 11 15  1  0
 11 12  1  0
 12 13  2  0
 13 14  1  0
 13 29  1  0
 14 15  2  0
 15 16  1  0
 16 30  1  0
M  END
>  <i_m_ct_stereo_status>  (147) 
1

>  <s_m_source_file>  (147) 
/var/tmp/pbs.5076255.sched01/tmp68k5m_u8/43t0xmz28c.sdf

>  <i_m_source_file_index>  (147) 
17

>  <i_lp_mmshare_version>  (147) 
48012

>  <i_f3d_flags>  (147) 
0

>  <s_epik_input>  (147) 
W0NIM11bQ0BASF0xW0NIMl1PW0NIMl1bQ0gyXU4xYyhbY0hdW2NIXTIpW2NIXWMobjIzKW5bY0hdbjM=

>  <s_epik_cmdline>  (147) 
J2VwaWtfcHl0aG9uJywgJy1waHQnLCAnMi4wJywgJy1waCcsICc3LjAnLCAnLXRuJywgJzgnLCAnLW1hJywgJzIwMCcsICctaW1hZScsICc8aW5maWxlLm1hZT4nLCAnLW9tYWUnLCAnPG91dGZpbGUubWFlPic=

>  <r_epik_Ionization_Penalty>  (147) 
0.00149091

>  <r_epik_Ionization_Penalty_Charging>  (147) 
0

>  <r_epik_Ionization_Penalty_Neutral>  (147) 
0.00149091

>  <r_epik_State_Penalty>  (147) 
0.000998413

>  <r_epik_Charging_Adjusted_Penalty>  (147) 
0.000998413

>  <i_epik_Tot_Q>  (147) 
0

>  <i_epik_Tot_abs_Q>  (147) 
0

>  <s_lp_Force_Field>  (147) 
OPLS3e

>  <r_lp_Energy>  (147) 
27.898

>  <b_lp_Chiralities_Consistent>  (147) 
1

>  <s_lp_Variant>  (147) 
41:0-1

>  <s_i_glide_gridfile>  (147) 
pfpi4k_grid

>  <i_i_glide_lignum>  (147) 
17

>  <i_i_glide_rotatable_bonds>  (147) 
1

>  <r_i_docking_score>  (147) 
-3.84209

>  <r_i_glide_ligand_efficiency>  (147) 
-0.240131

>  <r_i_glide_ligand_efficiency_sa>  (147) 
-0.605091

>  <r_i_glide_ligand_efficiency_ln>  (147) 
-1.01842

>  <r_i_glide_gscore>  (147) 
-3.84209

>  <r_i_glide_lipo>  (147) 
-0.346267

>  <r_i_glide_hbond>  (147) 
-0.146014

>  <r_i_glide_metal>  (147) 
-0

>  <r_i_glide_rewards>  (147) 
-1.92099

>  <r_i_glide_evdw>  (147) 
-22.6977

>  <r_i_glide_ecoul>  (147) 
-3.8826

>  <r_i_glide_erotb>  (147) 
0.352717

>  <r_i_glide_esite>  (147) 
-0.0642634

>  <r_i_glide_emodel>  (147) 
-33.7843

>  <r_i_glide_energy>  (147) 
-26.5803

>  <r_i_glide_einternal>  (147) 
0.000128135

>  <r_i_glide_intrahb_reward>  (147) 
-0

>  <i_i_glide_confnum>  (147) 
5

>  <i_i_glide_posenum>  (147) 
39

>  <r_i_glide_eff_state_penalty>  (147) 
0

>  <ligand_id>  (147) 
41

>  <original_smiles>  (147) 
CC1COCCN1c1ccn2ncnc2c1

>  <smiles>  (147) 
[H]c1nc2c([H])c(N3C([H])([H])C([H])([H])OC([H])([H])C3([H])C([H])([H])[H])c([H])c([H])n2n1

$$$$
43:0:0
     RDKit          3D

 37 40  0  0  1  0  0  0  0  0999 V2000
   -1.7636    0.3312    6.4651 O   0  0  0  0  0  0  0  0  0  0  0  0
   -1.0827    1.1814    5.8769 C   0  0  0  0  0  0  0  0  0  0  0  0
   -0.7925    2.3958    6.3676 N   0  0  0  0  0  0  0  0  0  0  0  0
   -1.2504    2.9861    7.6299 C   0  0  1  0  0  0  0  0  0  0  0  0
   -2.7880    3.1876    7.5933 C   0  0  0  0  0  0  0  0  0  0  0  0
   -3.2622    3.8388    8.9078 C   0  0  2  0  0  0  0  0  0  0  0  0
   -2.5842    5.2113    9.0820 C   0  0  0  0  0  0  0  0  0  0  0  0
   -1.0587    5.0256    9.1320 C   0  0  1  0  0  0  0  0  0  0  0  0
   -0.6798    4.1211   10.3256 C   0  0  0  0  0  0  0  0  0  0  0  0
   -1.3535    2.7494   10.1471 C   0  0  1  0  0  0  0  0  0  0  0  0
   -2.8844    2.9257   10.0866 C   0  0  0  0  0  0  0  0  0  0  0  0
   -0.8575    2.0979    8.8441 C   0  0  0  0  0  0  0  0  0  0  0  0
   -0.5766    4.3756    7.8126 C   0  0  0  0  0  0  0  0  0  0  0  0
   -0.4467    0.9324    4.5660 C   0  0  0  0  0  0  0  0  0  0  0  0
   -0.5215    1.8262    3.4564 C   0  0  0  0  0  0  0  0  0  0  0  0
    0.1429    1.3632    2.3551 C   0  0  0  0  0  0  0  0  0  0  0  0
    0.9034   -0.1723    2.6552 S   0  0  0  0  0  0  0  0  0  0  0  0
    0.2663   -0.2031    4.2850 C   0  0  0  0  0  0  0  0  0  0  0  0
   -0.1836    2.9636    5.7963 H   0  0  0  0  0  0  0  0  0  0  0  0
   -3.0562    3.8106    6.7391 H   0  0  0  0  0  0  0  0  0  0  0  0
   -3.3150    2.2420    7.4566 H   0  0  0  0  0  0  0  0  0  0  0  0
   -4.3436    3.9638    8.8831 H   0  0  0  0  0  0  0  0  0  0  0  0
   -2.8565    5.8728    8.2605 H   0  0  0  0  0  0  0  0  0  0  0  0
   -2.9431    5.6903    9.9952 H   0  0  0  0  0  0  0  0  0  0  0  0
   -0.5782    5.9971    9.2555 H   0  0  0  0  0  0  0  0  0  0  0  0
    0.4028    4.0052   10.3879 H   0  0  0  0  0  0  0  0  0  0  0  0
   -1.0048    4.5720   11.2640 H   0  0  0  0  0  0  0  0  0  0  0  0
   -1.0996    2.1057   10.9891 H   0  0  0  0  0  0  0  0  0  0  0  0
   -3.2514    3.3341   11.0290 H   0  0  0  0  0  0  0  0  0  0  0  0
   -3.3688    1.9589    9.9622 H   0  0  0  0  0  0  0  0  0  0  0  0
   -1.2939    1.1017    8.7841 H   0  0  0  0  0  0  0  0  0  0  0  0
    0.2259    1.9607    8.8723 H   0  0  0  0  0  0  0  0  0  0  0  0
    0.5091    4.2754    7.8300 H   0  0  0  0  0  0  0  0  0  0  0  0
   -0.8080    5.0352    6.9739 H   0  0  0  0  0  0  0  0  0  0  0  0
   -1.0595    2.7595    3.5040 H   0  0  0  0  0  0  0  0  0  0  0  0
    0.2152    1.8373    1.3847 H   0  0  0  0  0  0  0  0  0  0  0  0
    0.4565   -1.0384    4.9414 H   0  0  0  0  0  0  0  0  0  0  0  0
  1  2  2  0
  2  3  1  0
  2 14  1  0
  4  3  1  6
  3 19  1  0
  4 12  1  0
  4 13  1  0
  4  5  1  0
  5  6  1  0
  5 20  1  0
  5 21  1  0
  6 11  1  0
  6  7  1  0
  6 22  1  6
  7  8  1  0
  7 23  1  0
  7 24  1  0
  8  9  1  0
  8 13  1  0
  8 25  1  1
  9 10  1  0
  9 26  1  0
  9 27  1  0
 10 11  1  0
 10 12  1  0
 10 28  1  1
 11 29  1  0
 11 30  1  0
 12 31  1  0
 12 32  1  0
 13 33  1  0
 13 34  1  0
 14 18  2  0
 14 15  1  0
 15 16  2  0
 15 35  1  0
 16 17  1  0
 16 36  1  0
 17 18  1  0
 18 37  1  0
M  END
>  <i_m_ct_stereo_status>  (148) 
1

>  <s_m_source_file>  (148) 
/var/tmp/pbs.5076255.sched01/tmp68k5m_u8/43t0xmz28c.sdf

>  <i_m_source_file_index>  (148) 
19

>  <i_lp_mmshare_version>  (148) 
48012

>  <i_f3d_flags>  (148) 
0

>  <s_epik_input>  (148) 
W2NIXTFzW2NIXVtjSF1jMUMoPU8pW05IXUMyM1tDSDJdW0NASF00W0NIMl1bQ0BASF0oW0NIMl0zKVtDSDJdW0NASF0oW0NIMl00KVtDSDJdMg==

>  <s_epik_cmdline>  (148) 
J2VwaWtfcHl0aG9uJywgJy1waHQnLCAnMi4wJywgJy1waCcsICc3LjAnLCAnLXRuJywgJzgnLCAnLW1hJywgJzIwMCcsICctaW1hZScsICc8aW5maWxlLm1hZT4nLCAnLW9tYWUnLCAnPG91dGZpbGUubWFlPic=

>  <r_lp_tautomer_probability>  (148) 
1

>  <r_epik_Ionization_Penalty>  (148) 
3.56872e-08

>  <r_epik_Ionization_Penalty_Charging>  (148) 
0

>  <r_epik_Ionization_Penalty_Neutral>  (148) 
3.56872e-08

>  <r_epik_State_Penalty>  (148) 
-0

>  <r_epik_Charging_Adjusted_Penalty>  (148) 
0

>  <i_epik_Tot_Q>  (148) 
0

>  <i_epik_Tot_abs_Q>  (148) 
0

>  <s_lp_Force_Field>  (148) 
OPLS3e

>  <r_lp_Energy>  (148) 
-0.477557

>  <b_lp_Chiralities_Consistent>  (148) 
1

>  <s_lp_Variant>  (148) 
43:0-1

>  <s_i_glide_gridfile>  (148) 
pfpi4k_grid

>  <i_i_glide_lignum>  (148) 
19

>  <i_i_glide_rotatable_bonds>  (148) 
3

>  <r_i_docking_score>  (148) 
-2.77952

>  <r_i_glide_ligand_efficiency>  (148) 
-0.154418

>  <r_i_glide_ligand_efficiency_sa>  (148) 
-0.404689

>  <r_i_glide_ligand_efficiency_ln>  (148) 
-0.714461

>  <r_i_glide_gscore>  (148) 
-2.77952

>  <r_i_glide_lipo>  (148) 
-0.213911

>  <r_i_glide_hbond>  (148) 
-0.16

>  <r_i_glide_metal>  (148) 
-0

>  <r_i_glide_rewards>  (148) 
-1.62693

>  <r_i_glide_evdw>  (148) 
-21.1518

>  <r_i_glide_ecoul>  (148) 
-3.1358

>  <r_i_glide_erotb>  (148) 
0.77811

>  <r_i_glide_esite>  (148) 
-0.0288271

>  <r_i_glide_emodel>  (148) 
-28.2494

>  <r_i_glide_energy>  (148) 
-24.2876

>  <r_i_glide_einternal>  (148) 
1.59599

>  <r_i_glide_intrahb_reward>  (148) 
-0

>  <i_i_glide_confnum>  (148) 
1

>  <i_i_glide_posenum>  (148) 
29

>  <r_i_glide_eff_state_penalty>  (148) 
0

>  <ligand_id>  (148) 
43

>  <original_smiles>  (148) 
O=C(NC12CC3CC(CC(C3)C1)C2)c1ccsc1

>  <smiles>  (148) 
[H]c1sc([H])c(C(=O)N([H])C23C([H])([H])C4([H])C([H])([H])C([H])(C([H])([H])C([H])(C4([H])[H])C2([H])[H])C3([H])[H])c1[H]

$$$$
43:0:1
     RDKit          3D

 37 40  0  0  1  0  0  0  0  0999 V2000
    3.4908   -4.0482    2.7670 O   0  0  0  0  0  0  0  0  0  0  0  0
    2.9827   -4.6040    1.7949 C   0  0  0  0  0  0  0  0  0  0  0  0
    3.3273   -4.3640    0.5153 N   0  0  0  0  0  0  0  0  0  0  0  0
    4.3127   -3.4022    0.0192 C   0  0  1  0  0  0  0  0  0  0  0  0
    5.7236   -3.7345    0.5774 C   0  0  0  0  0  0  0  0  0  0  0  0
    6.7448   -2.7261    0.0381 C   0  0  2  0  0  0  0  0  0  0  0  0
    6.3208   -1.3066    0.4725 C   0  0  0  0  0  0  0  0  0  0  0  0
    4.9427   -0.9669   -0.1348 C   0  0  1  0  0  0  0  0  0  0  0  0
    5.0013   -1.0608   -1.6727 C   0  0  0  0  0  0  0  0  0  0  0  0
    5.4070   -2.4931   -2.0801 C   0  0  1  0  0  0  0  0  0  0  0  0
    6.7956   -2.8333   -1.4981 C   0  0  0  0  0  0  0  0  0  0  0  0
    4.3637   -3.4903   -1.5336 C   0  0  0  0  0  0  0  0  0  0  0  0
    3.8991   -1.9557    0.4021 C   0  0  0  0  0  0  0  0  0  0  0  0
    1.8828   -5.5900    1.9395 C   0  0  0  0  0  0  0  0  0  0  0  0
    1.3173   -6.3496    0.8748 C   0  0  0  0  0  0  0  0  0  0  0  0
    0.2970   -7.1638    1.2731 C   0  0  0  0  0  0  0  0  0  0  0  0
    0.0201   -7.0537    2.9890 S   0  0  0  0  0  0  0  0  0  0  0  0
    1.2786   -5.8548    3.1434 C   0  0  0  0  0  0  0  0  0  0  0  0
    2.8373   -4.8842   -0.1965 H   0  0  0  0  0  0  0  0  0  0  0  0
    5.7468   -3.6912    1.6659 H   0  0  0  0  0  0  0  0  0  0  0  0
    6.0048   -4.7525    0.3025 H   0  0  0  0  0  0  0  0  0  0  0  0
    7.7226   -2.9591    0.4554 H   0  0  0  0  0  0  0  0  0  0  0  0
    6.2704   -1.2464    1.5607 H   0  0  0  0  0  0  0  0  0  0  0  0
    7.0633   -0.5772    0.1601 H   0  0  0  0  0  0  0  0  0  0  0  0
    4.6520    0.0431    0.1535 H   0  0  0  0  0  0  0  0  0  0  0  0
    4.0320   -0.8044   -2.1036 H   0  0  0  0  0  0  0  0  0  0  0  0
    5.7114   -0.3366   -2.0665 H   0  0  0  0  0  0  0  0  0  0  0  0
    5.4453   -2.5649   -3.1666 H   0  0  0  0  0  0  0  0  0  0  0  0
    7.5658   -2.1855   -1.9109 H   0  0  0  0  0  0  0  0  0  0  0  0
    7.0765   -3.8447   -1.7857 H   0  0  0  0  0  0  0  0  0  0  0  0
    4.6213   -4.5019   -1.8518 H   0  0  0  0  0  0  0  0  0  0  0  0
    3.3848   -3.2773   -1.9684 H   0  0  0  0  0  0  0  0  0  0  0  0
    2.9136   -1.7197   -0.0042 H   0  0  0  0  0  0  0  0  0  0  0  0
    3.8227   -1.8312    1.4826 H   0  0  0  0  0  0  0  0  0  0  0  0
    1.6725   -6.2607   -0.1421 H   0  0  0  0  0  0  0  0  0  0  0  0
   -0.2791   -7.8504    0.6674 H   0  0  0  0  0  0  0  0  0  0  0  0
    1.5033   -5.4108    4.1026 H   0  0  0  0  0  0  0  0  0  0  0  0
  1  2  2  0
  2  3  1  0
  2 14  1  0
  4  3  1  1
  3 19  1  0
  4 12  1  0
  4 13  1  0
  4  5  1  0
  5  6  1  0
  5 20  1  0
  5 21  1  0
  6 11  1  0
  6  7  1  0
  6 22  1  1
  7  8  1  0
  7 23  1  0
  7 24  1  0
  8  9  1  0
  8 13  1  0
  8 25  1  6
  9 10  1  0
  9 26  1  0
  9 27  1  0
 10 11  1  0
 10 12  1  0
 10 28  1  6
 11 29  1  0
 11 30  1  0
 12 31  1  0
 12 32  1  0
 13 33  1  0
 13 34  1  0
 14 18  2  0
 14 15  1  0
 15 16  2  0
 15 35  1  0
 16 17  1  0
 16 36  1  0
 17 18  1  0
 18 37  1  0
M  END
>  <i_m_ct_stereo_status>  (149) 
1

>  <s_m_source_file>  (149) 
/var/tmp/pbs.5076255.sched01/tmp68k5m_u8/43t0xmz28c.sdf

>  <i_m_source_file_index>  (149) 
19

>  <i_lp_mmshare_version>  (149) 
48012

>  <i_f3d_flags>  (149) 
0

>  <s_epik_input>  (149) 
W2NIXTFzW2NIXVtjSF1jMUMoPU8pW05IXUMyM1tDSDJdW0NASF00W0NIMl1bQ0BASF0oW0NIMl0zKVtDSDJdW0NASF0oW0NIMl00KVtDSDJdMg==

>  <s_epik_cmdline>  (149) 
J2VwaWtfcHl0aG9uJywgJy1waHQnLCAnMi4wJywgJy1waCcsICc3LjAnLCAnLXRuJywgJzgnLCAnLW1hJywgJzIwMCcsICctaW1hZScsICc8aW5maWxlLm1hZT4nLCAnLW9tYWUnLCAnPG91dGZpbGUubWFlPic=

>  <r_lp_tautomer_probability>  (149) 
1

>  <r_epik_Ionization_Penalty>  (149) 
3.56872e-08

>  <r_epik_Ionization_Penalty_Charging>  (149) 
0

>  <r_epik_Ionization_Penalty_Neutral>  (149) 
3.56872e-08

>  <r_epik_State_Penalty>  (149) 
-0

>  <r_epik_Charging_Adjusted_Penalty>  (149) 
0

>  <i_epik_Tot_Q>  (149) 
0

>  <i_epik_Tot_abs_Q>  (149) 
0

>  <s_lp_Force_Field>  (149) 
OPLS3e

>  <r_lp_Energy>  (149) 
-0.477557

>  <b_lp_Chiralities_Consistent>  (149) 
1

>  <s_lp_Variant>  (149) 
43:0-1

>  <s_i_glide_gridfile>  (149) 
pfpi4k_grid

>  <i_i_glide_lignum>  (149) 
19

>  <i_i_glide_rotatable_bonds>  (149) 
3

>  <r_i_docking_score>  (149) 
-2.77642

>  <r_i_glide_ligand_efficiency>  (149) 
-0.154246

>  <r_i_glide_ligand_efficiency_sa>  (149) 
-0.404238

>  <r_i_glide_ligand_efficiency_ln>  (149) 
-0.713665

>  <r_i_glide_gscore>  (149) 
-2.77642

>  <r_i_glide_lipo>  (149) 
-0.238265

>  <r_i_glide_hbond>  (149) 
0

>  <r_i_glide_metal>  (149) 
-0

>  <r_i_glide_rewards>  (149) 
-1.62693

>  <r_i_glide_evdw>  (149) 
-24.9887

>  <r_i_glide_ecoul>  (149) 
-2.86354

>  <r_i_glide_erotb>  (149) 
0.77811

>  <r_i_glide_esite>  (149) 
-0.010374

>  <r_i_glide_emodel>  (149) 
-32.3253

>  <r_i_glide_energy>  (149) 
-27.8522

>  <r_i_glide_einternal>  (149) 
0.668095

>  <r_i_glide_intrahb_reward>  (149) 
-0

>  <i_i_glide_confnum>  (149) 
2

>  <i_i_glide_posenum>  (149) 
25

>  <r_i_glide_eff_state_penalty>  (149) 
0

>  <ligand_id>  (149) 
43

>  <original_smiles>  (149) 
O=C(NC12CC3CC(CC(C3)C1)C2)c1ccsc1

>  <smiles>  (149) 
[H]c1sc([H])c(C(=O)N([H])C23C([H])([H])C4([H])C([H])([H])C([H])(C([H])([H])C([H])(C4([H])[H])C2([H])[H])C3([H])[H])c1[H]

$$$$
43:0:2
     RDKit          3D

 37 40  0  0  1  0  0  0  0  0999 V2000
    5.4188   -6.2033    1.5395 O   0  0  0  0  0  0  0  0  0  0  0  0
    4.2231   -6.1401    1.2476 C   0  0  0  0  0  0  0  0  0  0  0  0
    3.6510   -5.1173    0.5881 N   0  0  0  0  0  0  0  0  0  0  0  0
    4.2609   -3.8515    0.1908 C   0  0  1  0  0  0  0  0  0  0  0  0
    5.4366   -4.1035   -0.7858 C   0  0  0  0  0  0  0  0  0  0  0  0
    6.0623   -2.7669   -1.2101 C   0  0  2  0  0  0  0  0  0  0  0  0
    6.5684   -2.0287    0.0505 C   0  0  0  0  0  0  0  0  0  0  0  0
    5.3826   -1.7340    0.9920 C   0  0  1  0  0  0  0  0  0  0  0  0
    4.3277   -0.8821    0.2578 C   0  0  0  0  0  0  0  0  0  0  0  0
    3.8215   -1.6514   -0.9821 C   0  0  1  0  0  0  0  0  0  0  0  0
    4.9980   -1.9244   -1.9403 C   0  0  0  0  0  0  0  0  0  0  0  0
    3.1947   -2.9918   -0.5396 C   0  0  0  0  0  0  0  0  0  0  0  0
    4.7515   -3.0640    1.4372 C   0  0  0  0  0  0  0  0  0  0  0  0
    3.2749   -7.2275    1.5648 C   0  0  0  0  0  0  0  0  0  0  0  0
    1.8748   -7.0414    1.7880 C   0  0  0  0  0  0  0  0  0  0  0  0
    1.2242   -8.2056    2.0804 C   0  0  0  0  0  0  0  0  0  0  0  0
    2.3165   -9.5566    2.1371 S   0  0  0  0  0  0  0  0  0  0  0  0
    3.6649   -8.5319    1.7230 C   0  0  0  0  0  0  0  0  0  0  0  0
    2.6790   -5.2363    0.3569 H   0  0  0  0  0  0  0  0  0  0  0  0
    6.2165   -4.7116   -0.3260 H   0  0  0  0  0  0  0  0  0  0  0  0
    5.0841   -4.6576   -1.6583 H   0  0  0  0  0  0  0  0  0  0  0  0
    6.8975   -2.9682   -1.8811 H   0  0  0  0  0  0  0  0  0  0  0  0
    7.3091   -2.6400    0.5685 H   0  0  0  0  0  0  0  0  0  0  0  0
    7.0648   -1.0996   -0.2169 H   0  0  0  0  0  0  0  0  0  0  0  0
    5.7399   -1.1952    1.8696 H   0  0  0  0  0  0  0  0  0  0  0  0
    3.4933   -0.6542    0.9221 H   0  0  0  0  0  0  0  0  0  0  0  0
    4.7542    0.0772   -0.0356 H   0  0  0  0  0  0  0  0  0  0  0  0
    3.0677   -1.0568   -1.4969 H   0  0  0  0  0  0  0  0  0  0  0  0
    5.4191   -0.9835   -2.2938 H   0  0  0  0  0  0  0  0  0  0  0  0
    4.6426   -2.4607   -2.8217 H   0  0  0  0  0  0  0  0  0  0  0  0
    2.7993   -3.5228   -1.4075 H   0  0  0  0  0  0  0  0  0  0  0  0
    2.3422   -2.7947    0.1123 H   0  0  0  0  0  0  0  0  0  0  0  0
    3.9210   -2.8753    2.1200 H   0  0  0  0  0  0  0  0  0  0  0  0
    5.4915   -3.6317    2.0031 H   0  0  0  0  0  0  0  0  0  0  0  0
    1.4076   -6.0707    1.7312 H   0  0  0  0  0  0  0  0  0  0  0  0
    0.1740   -8.3605    2.2828 H   0  0  0  0  0  0  0  0  0  0  0  0
    4.6618   -8.9440    1.6402 H   0  0  0  0  0  0  0  0  0  0  0  0
  1  2  2  0
  2  3  1  0
  2 14  1  0
  4  3  1  1
  3 19  1  0
  4 12  1  0
  4 13  1  0
  4  5  1  0
  5  6  1  0
  5 20  1  0
  5 21  1  0
  6 11  1  0
  6  7  1  0
  6 22  1  6
  7  8  1  0
  7 23  1  0
  7 24  1  0
  8  9  1  0
  8 13  1  0
  8 25  1  1
  9 10  1  0
  9 26  1  0
  9 27  1  0
 10 11  1  0
 10 12  1  0
 10 28  1  6
 11 29  1  0
 11 30  1  0
 12 31  1  0
 12 32  1  0
 13 33  1  0
 13 34  1  0
 14 18  2  0
 14 15  1  0
 15 16  2  0
 15 35  1  0
 16 17  1  0
 16 36  1  0
 17 18  1  0
 18 37  1  0
M  END
>  <i_m_ct_stereo_status>  (150) 
1

>  <s_m_source_file>  (150) 
/var/tmp/pbs.5076255.sched01/tmp68k5m_u8/43t0xmz28c.sdf

>  <i_m_source_file_index>  (150) 
19

>  <i_lp_mmshare_version>  (150) 
48012

>  <i_f3d_flags>  (150) 
0

>  <s_epik_input>  (150) 
W2NIXTFzW2NIXVtjSF1jMUMoPU8pW05IXUMyM1tDSDJdW0NASF00W0NIMl1bQ0BASF0oW0NIMl0zKVtDSDJdW0NASF0oW0NIMl00KVtDSDJdMg==

>  <s_epik_cmdline>  (150) 
J2VwaWtfcHl0aG9uJywgJy1waHQnLCAnMi4wJywgJy1waCcsICc3LjAnLCAnLXRuJywgJzgnLCAnLW1hJywgJzIwMCcsICctaW1hZScsICc8aW5maWxlLm1hZT4nLCAnLW9tYWUnLCAnPG91dGZpbGUubWFlPic=

>  <r_lp_tautomer_probability>  (150) 
1

>  <r_epik_Ionization_Penalty>  (150) 
3.56872e-08

>  <r_epik_Ionization_Penalty_Charging>  (150) 
0

>  <r_epik_Ionization_Penalty_Neutral>  (150) 
3.56872e-08

>  <r_epik_State_Penalty>  (150) 
-0

>  <r_epik_Charging_Adjusted_Penalty>  (150) 
0

>  <i_epik_Tot_Q>  (150) 
0

>  <i_epik_Tot_abs_Q>  (150) 
0

>  <s_lp_Force_Field>  (150) 
OPLS3e

>  <r_lp_Energy>  (150) 
-0.477557

>  <b_lp_Chiralities_Consistent>  (150) 
1

>  <s_lp_Variant>  (150) 
43:0-1

>  <s_i_glide_gridfile>  (150) 
pfpi4k_grid

>  <i_i_glide_lignum>  (150) 
19

>  <i_i_glide_rotatable_bonds>  (150) 
3

>  <r_i_docking_score>  (150) 
-2.56831

>  <r_i_glide_ligand_efficiency>  (150) 
-0.142684

>  <r_i_glide_ligand_efficiency_sa>  (150) 
-0.373938

>  <r_i_glide_ligand_efficiency_ln>  (150) 
-0.660171

>  <r_i_glide_gscore>  (150) 
-2.56831

>  <r_i_glide_lipo>  (150) 
-0.291708

>  <r_i_glide_hbond>  (150) 
0

>  <r_i_glide_metal>  (150) 
-0

>  <r_i_glide_rewards>  (150) 
-1.72019

>  <r_i_glide_evdw>  (150) 
-25.6063

>  <r_i_glide_ecoul>  (150) 
-0.342945

>  <r_i_glide_erotb>  (150) 
0.77811

>  <r_i_glide_esite>  (150) 
-0.00276321

>  <r_i_glide_emodel>  (150) 
-30.0188

>  <r_i_glide_energy>  (150) 
-25.9493

>  <r_i_glide_einternal>  (150) 
0.741505

>  <r_i_glide_intrahb_reward>  (150) 
-0

>  <i_i_glide_confnum>  (150) 
2

>  <i_i_glide_posenum>  (150) 
9

>  <r_i_glide_eff_state_penalty>  (150) 
0

>  <ligand_id>  (150) 
43

>  <original_smiles>  (150) 
O=C(NC12CC3CC(CC(C3)C1)C2)c1ccsc1

>  <smiles>  (150) 
[H]c1sc([H])c(C(=O)N([H])C23C([H])([H])C4([H])C([H])([H])C([H])(C([H])([H])C([H])(C4([H])[H])C2([H])[H])C3([H])[H])c1[H]

$$$$
44:0:0
     RDKit          3D

 26 27  0  0  1  0  0  0  0  0999 V2000
    5.7590   -9.0141    3.7391 C   0  0  0  0  0  0  0  0  0  0  0  0
    4.9911   -9.7211    2.6056 C   0  0  0  0  0  0  0  0  0  0  0  0
    5.7151   -9.6074    1.2517 C   0  0  0  0  0  0  0  0  0  0  0  0
    3.5879   -9.2475    2.5271 N   0  0  0  0  0  0  0  0  0  0  0  0
    2.5607  -10.1887    2.8596 C   0  0  0  0  0  0  0  0  0  0  0  0
    1.2673   -9.9579    2.8617 N   0  0  0  0  0  0  0  0  0  0  0  0
    0.9169   -8.6656    2.4887 C   0  0  0  0  0  0  0  0  0  0  0  0
    1.8002   -7.7155    2.1612 C   0  0  0  0  0  0  0  0  0  0  0  0
    1.0781   -6.5349    1.8509 C   0  0  0  0  0  0  0  0  0  0  0  0
   -0.2310   -6.7774    1.9847 N   0  0  0  0  0  0  0  0  0  0  0  0
   -0.3321   -8.0907    2.3736 N   0  0  0  0  0  0  0  0  0  0  0  0
   -1.6166   -8.6962    2.6020 C   0  0  0  0  0  0  0  0  0  0  0  0
    3.2640   -7.9689    2.1758 C   0  0  0  0  0  0  0  0  0  0  0  0
    4.0384   -7.0576    1.8941 O   0  0  0  0  0  0  0  0  0  0  0  0
    6.7943   -9.3479    3.7717 H   0  0  0  0  0  0  0  0  0  0  0  0
    5.3137   -9.2251    4.7109 H   0  0  0  0  0  0  0  0  0  0  0  0
    5.7759   -7.9308    3.6241 H   0  0  0  0  0  0  0  0  0  0  0  0
    5.0005  -10.7857    2.8552 H   0  0  0  0  0  0  0  0  0  0  0  0
    6.7445   -9.9429    1.3305 H   0  0  0  0  0  0  0  0  0  0  0  0
    5.7421   -8.5944    0.8643 H   0  0  0  0  0  0  0  0  0  0  0  0
    5.2245  -10.2213    0.5021 H   0  0  0  0  0  0  0  0  0  0  0  0
    2.9442  -11.1836    3.1304 H   0  0  0  0  0  0  0  0  0  0  0  0
    1.4328   -5.5538    1.5520 H   0  0  0  0  0  0  0  0  0  0  0  0
   -1.4883   -9.7370    2.9003 H   0  0  0  0  0  0  0  0  0  0  0  0
   -2.2045   -8.6698    1.6887 H   0  0  0  0  0  0  0  0  0  0  0  0
   -2.1370   -8.1697    3.3980 H   0  0  0  0  0  0  0  0  0  0  0  0
  1  2  1  0
  1 15  1  0
  1 16  1  0
  1 17  1  0
  2  3  1  0
  2  4  1  0
  2 18  1  0
  3 19  1  0
  3 20  1  0
  3 21  1  0
  4 13  1  0
  4  5  1  0
  5  6  2  0
  5 22  1  0
  6  7  1  0
  7 11  1  0
  7  8  2  0
  8  9  1  0
  8 13  1  0
  9 10  2  0
  9 23  1  0
 10 11  1  0
 11 12  1  0
 12 24  1  0
 12 25  1  0
 12 26  1  0
 13 14  2  0
M  END
>  <i_m_ct_stereo_status>  (151) 
1

>  <s_m_source_file>  (151) 
/var/tmp/pbs.5076255.sched01/tmp68k5m_u8/43t0xmz28c.sdf

>  <i_m_source_file_index>  (151) 
20

>  <i_lp_mmshare_version>  (151) 
48012

>  <i_f3d_flags>  (151) 
0

>  <s_epik_input>  (151) 
W0NIM11bQ0hdKFtDSDNdKW4oW2NIXW4xKWMoPU8pYyhjMTIpW2NIXW5uMltDSDNd

>  <s_epik_cmdline>  (151) 
J2VwaWtfcHl0aG9uJywgJy1waHQnLCAnMi4wJywgJy1waCcsICc3LjAnLCAnLXRuJywgJzgnLCAnLW1hJywgJzIwMCcsICctaW1hZScsICc8aW5maWxlLm1hZT4nLCAnLW9tYWUnLCAnPG91dGZpbGUubWFlPic=

>  <r_lp_tautomer_probability>  (151) 
1

>  <r_epik_Ionization_Penalty>  (151) 
8.26382e-07

>  <r_epik_Ionization_Penalty_Charging>  (151) 
8.37539e-12

>  <r_epik_Ionization_Penalty_Neutral>  (151) 
8.26374e-07

>  <r_epik_State_Penalty>  (151) 
-0

>  <r_epik_Charging_Adjusted_Penalty>  (151) 
8.37539e-12

>  <i_epik_Tot_Q>  (151) 
0

>  <i_epik_Tot_abs_Q>  (151) 
0

>  <s_lp_Force_Field>  (151) 
OPLS3e

>  <r_lp_Energy>  (151) 
23.0649

>  <b_lp_Chiralities_Consistent>  (151) 
1

>  <s_lp_Variant>  (151) 
44:0-1

>  <s_i_glide_gridfile>  (151) 
pfpi4k_grid

>  <i_i_glide_lignum>  (151) 
20

>  <i_i_glide_rotatable_bonds>  (151) 
1

>  <r_i_docking_score>  (151) 
-3.84151

>  <r_i_glide_ligand_efficiency>  (151) 
-0.274394

>  <r_i_glide_ligand_efficiency_sa>  (151) 
-0.661328

>  <r_i_glide_ligand_efficiency_ln>  (151) 
-1.05563

>  <r_i_glide_gscore>  (151) 
-3.84151

>  <r_i_glide_lipo>  (151) 
-0.0855394

>  <r_i_glide_hbond>  (151) 
-0.1512

>  <r_i_glide_metal>  (151) 
-0

>  <r_i_glide_rewards>  (151) 
-2.09852

>  <r_i_glide_evdw>  (151) 
-19.0617

>  <r_i_glide_ecoul>  (151) 
-3.01169

>  <r_i_glide_erotb>  (151) 
0

>  <r_i_glide_esite>  (151) 
-0.101416

>  <r_i_glide_emodel>  (151) 
-28.0578

>  <r_i_glide_energy>  (151) 
-22.0734

>  <r_i_glide_einternal>  (151) 
0.101363

>  <r_i_glide_intrahb_reward>  (151) 
-0

>  <i_i_glide_confnum>  (151) 
2

>  <i_i_glide_posenum>  (151) 
1

>  <r_i_glide_eff_state_penalty>  (151) 
0

>  <ligand_id>  (151) 
44

>  <original_smiles>  (151) 
CC(C)n1cnc2c(cnn2C)c1=O

>  <smiles>  (151) 
[H]c1nn(C([H])([H])[H])c2nc([H])n(C([H])(C([H])([H])[H])C([H])([H])[H])c(=O)c12

$$$$
44:0:1
     RDKit          3D

 26 27  0  0  1  0  0  0  0  0999 V2000
    3.5459   -4.6662    2.4358 C   0  0  0  0  0  0  0  0  0  0  0  0
    3.8276   -5.9254    1.5893 C   0  0  0  0  0  0  0  0  0  0  0  0
    3.7491   -5.6387    0.0824 C   0  0  0  0  0  0  0  0  0  0  0  0
    2.9610   -7.0668    1.9781 N   0  0  0  0  0  0  0  0  0  0  0  0
    3.6239   -8.2350    2.4667 C   0  0  0  0  0  0  0  0  0  0  0  0
    3.0276   -9.3322    2.8638 N   0  0  0  0  0  0  0  0  0  0  0  0
    1.6482   -9.2957    2.7859 C   0  0  0  0  0  0  0  0  0  0  0  0
    0.9316   -8.2424    2.3493 C   0  0  0  0  0  0  0  0  0  0  0  0
   -0.4348   -8.5946    2.4229 C   0  0  0  0  0  0  0  0  0  0  0  0
   -0.5392   -9.8406    2.8798 N   0  0  0  0  0  0  0  0  0  0  0  0
    0.7332  -10.2686    3.1159 N   0  0  0  0  0  0  0  0  0  0  0  0
    0.9674  -11.5925    3.6403 C   0  0  0  0  0  0  0  0  0  0  0  0
    1.5981   -7.0125    1.8742 C   0  0  0  0  0  0  0  0  0  0  0  0
    0.9303   -6.0696    1.4449 O   0  0  0  0  0  0  0  0  0  0  0  0
    4.1724   -3.8314    2.1199 H   0  0  0  0  0  0  0  0  0  0  0  0
    3.7490   -4.8519    3.4908 H   0  0  0  0  0  0  0  0  0  0  0  0
    2.5140   -4.3268    2.3615 H   0  0  0  0  0  0  0  0  0  0  0  0
    4.8767   -6.1684    1.7793 H   0  0  0  0  0  0  0  0  0  0  0  0
    4.3662   -4.7844   -0.1958 H   0  0  0  0  0  0  0  0  0  0  0  0
    2.7357   -5.4176   -0.2553 H   0  0  0  0  0  0  0  0  0  0  0  0
    4.1034   -6.4948   -0.4940 H   0  0  0  0  0  0  0  0  0  0  0  0
    4.7155   -8.1531    2.4972 H   0  0  0  0  0  0  0  0  0  0  0  0
   -1.3145   -8.0310    2.1414 H   0  0  0  0  0  0  0  0  0  0  0  0
    2.0362  -11.7595    3.7645 H   0  0  0  0  0  0  0  0  0  0  0  0
    0.5872  -12.3405    2.9471 H   0  0  0  0  0  0  0  0  0  0  0  0
    0.4811  -11.6999    4.6094 H   0  0  0  0  0  0  0  0  0  0  0  0
  1  2  1  0
  1 15  1  0
  1 16  1  0
  1 17  1  0
  2  3  1  0
  2  4  1  0
  2 18  1  0
  3 19  1  0
  3 20  1  0
  3 21  1  0
  4 13  1  0
  4  5  1  0
  5  6  2  0
  5 22  1  0
  6  7  1  0
  7 11  1  0
  7  8  2  0
  8  9  1  0
  8 13  1  0
  9 10  2  0
  9 23  1  0
 10 11  1  0
 11 12  1  0
 12 24  1  0
 12 25  1  0
 12 26  1  0
 13 14  2  0
M  END
>  <i_m_ct_stereo_status>  (152) 
1

>  <s_m_source_file>  (152) 
/var/tmp/pbs.5076255.sched01/tmp68k5m_u8/43t0xmz28c.sdf

>  <i_m_source_file_index>  (152) 
20

>  <i_lp_mmshare_version>  (152) 
48012

>  <i_f3d_flags>  (152) 
0

>  <s_epik_input>  (152) 
W0NIM11bQ0hdKFtDSDNdKW4oW2NIXW4xKWMoPU8pYyhjMTIpW2NIXW5uMltDSDNd

>  <s_epik_cmdline>  (152) 
J2VwaWtfcHl0aG9uJywgJy1waHQnLCAnMi4wJywgJy1waCcsICc3LjAnLCAnLXRuJywgJzgnLCAnLW1hJywgJzIwMCcsICctaW1hZScsICc8aW5maWxlLm1hZT4nLCAnLW9tYWUnLCAnPG91dGZpbGUubWFlPic=

>  <r_lp_tautomer_probability>  (152) 
1

>  <r_epik_Ionization_Penalty>  (152) 
8.26382e-07

>  <r_epik_Ionization_Penalty_Charging>  (152) 
8.37539e-12

>  <r_epik_Ionization_Penalty_Neutral>  (152) 
8.26374e-07

>  <r_epik_State_Penalty>  (152) 
-0

>  <r_epik_Charging_Adjusted_Penalty>  (152) 
8.37539e-12

>  <i_epik_Tot_Q>  (152) 
0

>  <i_epik_Tot_abs_Q>  (152) 
0

>  <s_lp_Force_Field>  (152) 
OPLS3e

>  <r_lp_Energy>  (152) 
23.0649

>  <b_lp_Chiralities_Consistent>  (152) 
1

>  <s_lp_Variant>  (152) 
44:0-1

>  <s_i_glide_gridfile>  (152) 
pfpi4k_grid

>  <i_i_glide_lignum>  (152) 
20

>  <i_i_glide_rotatable_bonds>  (152) 
1

>  <r_i_docking_score>  (152) 
-3.76734

>  <r_i_glide_ligand_efficiency>  (152) 
-0.269096

>  <r_i_glide_ligand_efficiency_sa>  (152) 
-0.64856

>  <r_i_glide_ligand_efficiency_ln>  (152) 
-1.03525

>  <r_i_glide_gscore>  (152) 
-3.76734

>  <r_i_glide_lipo>  (152) 
-0.145527

>  <r_i_glide_hbond>  (152) 
-0.16

>  <r_i_glide_metal>  (152) 
-0

>  <r_i_glide_rewards>  (152) 
-2.25842

>  <r_i_glide_evdw>  (152) 
-18.0915

>  <r_i_glide_ecoul>  (152) 
-1.957

>  <r_i_glide_erotb>  (152) 
0

>  <r_i_glide_esite>  (152) 
-0.00527496

>  <r_i_glide_emodel>  (152) 
-25.9475

>  <r_i_glide_energy>  (152) 
-20.0485

>  <r_i_glide_einternal>  (152) 
0.0621865

>  <r_i_glide_intrahb_reward>  (152) 
-0

>  <i_i_glide_confnum>  (152) 
2

>  <i_i_glide_posenum>  (152) 
2

>  <r_i_glide_eff_state_penalty>  (152) 
0

>  <ligand_id>  (152) 
44

>  <original_smiles>  (152) 
CC(C)n1cnc2c(cnn2C)c1=O

>  <smiles>  (152) 
[H]c1nn(C([H])([H])[H])c2nc([H])n(C([H])(C([H])([H])[H])C([H])([H])[H])c(=O)c12

$$$$
44:0:2
     RDKit          3D

 26 27  0  0  1  0  0  0  0  0999 V2000
    5.0825   -6.5859    0.4162 C   0  0  0  0  0  0  0  0  0  0  0  0
    4.2698   -6.0734    1.6188 C   0  0  0  0  0  0  0  0  0  0  0  0
    5.1387   -5.9002    2.8825 C   0  0  0  0  0  0  0  0  0  0  0  0
    3.0805   -6.9215    1.8691 N   0  0  0  0  0  0  0  0  0  0  0  0
    1.8085   -6.3076    1.6768 C   0  0  0  0  0  0  0  0  0  0  0  0
    0.6451   -6.8874    1.8488 N   0  0  0  0  0  0  0  0  0  0  0  0
    0.7250   -8.2081    2.2594 C   0  0  0  0  0  0  0  0  0  0  0  0
    1.8754   -8.8805    2.4668 C   0  0  0  0  0  0  0  0  0  0  0  0
    1.5384  -10.1936    2.8685 C   0  0  0  0  0  0  0  0  0  0  0  0
    0.2121  -10.3122    2.8966 N   0  0  0  0  0  0  0  0  0  0  0  0
   -0.2911   -9.0977    2.5330 N   0  0  0  0  0  0  0  0  0  0  0  0
   -1.7159   -8.8989    2.4692 C   0  0  0  0  0  0  0  0  0  0  0  0
    3.1894   -8.2280    2.2594 C   0  0  0  0  0  0  0  0  0  0  0  0
    4.2360   -8.8488    2.4422 O   0  0  0  0  0  0  0  0  0  0  0  0
    5.9706   -5.9774    0.2544 H   0  0  0  0  0  0  0  0  0  0  0  0
    4.4936   -6.5581   -0.5011 H   0  0  0  0  0  0  0  0  0  0  0  0
    5.4139   -7.6139    0.5506 H   0  0  0  0  0  0  0  0  0  0  0  0
    3.9600   -5.0617    1.3442 H   0  0  0  0  0  0  0  0  0  0  0  0
    6.0191   -5.2962    2.6726 H   0  0  0  0  0  0  0  0  0  0  0  0
    5.4978   -6.8462    3.2826 H   0  0  0  0  0  0  0  0  0  0  0  0
    4.5788   -5.4075    3.6764 H   0  0  0  0  0  0  0  0  0  0  0  0
    1.8624   -5.2613    1.3589 H   0  0  0  0  0  0  0  0  0  0  0  0
    2.1814  -11.0293    3.1172 H   0  0  0  0  0  0  0  0  0  0  0  0
   -1.9318   -7.8804    2.1562 H   0  0  0  0  0  0  0  0  0  0  0  0
   -2.1571   -9.0712    3.4494 H   0  0  0  0  0  0  0  0  0  0  0  0
   -2.1486   -9.5849    1.7452 H   0  0  0  0  0  0  0  0  0  0  0  0
  1  2  1  0
  1 15  1  0
  1 16  1  0
  1 17  1  0
  2  3  1  0
  2  4  1  0
  2 18  1  0
  3 19  1  0
  3 20  1  0
  3 21  1  0
  4 13  1  0
  4  5  1  0
  5  6  2  0
  5 22  1  0
  6  7  1  0
  7 11  1  0
  7  8  2  0
  8  9  1  0
  8 13  1  0
  9 10  2  0
  9 23  1  0
 10 11  1  0
 11 12  1  0
 12 24  1  0
 12 25  1  0
 12 26  1  0
 13 14  2  0
M  END
>  <i_m_ct_stereo_status>  (153) 
1

>  <s_m_source_file>  (153) 
/var/tmp/pbs.5076255.sched01/tmp68k5m_u8/43t0xmz28c.sdf

>  <i_m_source_file_index>  (153) 
20

>  <i_lp_mmshare_version>  (153) 
48012

>  <i_f3d_flags>  (153) 
0

>  <s_epik_input>  (153) 
W0NIM11bQ0hdKFtDSDNdKW4oW2NIXW4xKWMoPU8pYyhjMTIpW2NIXW5uMltDSDNd

>  <s_epik_cmdline>  (153) 
J2VwaWtfcHl0aG9uJywgJy1waHQnLCAnMi4wJywgJy1waCcsICc3LjAnLCAnLXRuJywgJzgnLCAnLW1hJywgJzIwMCcsICctaW1hZScsICc8aW5maWxlLm1hZT4nLCAnLW9tYWUnLCAnPG91dGZpbGUubWFlPic=

>  <r_lp_tautomer_probability>  (153) 
1

>  <r_epik_Ionization_Penalty>  (153) 
8.26382e-07

>  <r_epik_Ionization_Penalty_Charging>  (153) 
8.37539e-12

>  <r_epik_Ionization_Penalty_Neutral>  (153) 
8.26374e-07

>  <r_epik_State_Penalty>  (153) 
-0

>  <r_epik_Charging_Adjusted_Penalty>  (153) 
8.37539e-12

>  <i_epik_Tot_Q>  (153) 
0

>  <i_epik_Tot_abs_Q>  (153) 
0

>  <s_lp_Force_Field>  (153) 
OPLS3e

>  <r_lp_Energy>  (153) 
23.0649

>  <b_lp_Chiralities_Consistent>  (153) 
1

>  <s_lp_Variant>  (153) 
44:0-1

>  <s_i_glide_gridfile>  (153) 
pfpi4k_grid

>  <i_i_glide_lignum>  (153) 
20

>  <i_i_glide_rotatable_bonds>  (153) 
1

>  <r_i_docking_score>  (153) 
-3.66047

>  <r_i_glide_ligand_efficiency>  (153) 
-0.261462

>  <r_i_glide_ligand_efficiency_sa>  (153) 
-0.63016

>  <r_i_glide_ligand_efficiency_ln>  (153) 
-1.00588

>  <r_i_glide_gscore>  (153) 
-3.66047

>  <r_i_glide_lipo>  (153) 
-0.500325

>  <r_i_glide_hbond>  (153) 
0

>  <r_i_glide_metal>  (153) 
-0

>  <r_i_glide_rewards>  (153) 
-2.13963

>  <r_i_glide_evdw>  (153) 
-19.6898

>  <r_i_glide_ecoul>  (153) 
0.338812

>  <r_i_glide_erotb>  (153) 
0

>  <r_i_glide_esite>  (153) 
-0.0868456

>  <r_i_glide_emodel>  (153) 
-25.0998

>  <r_i_glide_energy>  (153) 
-19.3509

>  <r_i_glide_einternal>  (153) 
0.0329863

>  <r_i_glide_intrahb_reward>  (153) 
-0

>  <i_i_glide_confnum>  (153) 
2

>  <i_i_glide_posenum>  (153) 
19

>  <r_i_glide_eff_state_penalty>  (153) 
0

>  <ligand_id>  (153) 
44

>  <original_smiles>  (153) 
CC(C)n1cnc2c(cnn2C)c1=O

>  <smiles>  (153) 
[H]c1nn(C([H])([H])[H])c2nc([H])n(C([H])(C([H])([H])[H])C([H])([H])[H])c(=O)c12

$$$$
45:0:0
     RDKit          3D

 26 29  0  0  1  0  0  0  0  0999 V2000
    4.6288   -4.5869   -4.1269 C   0  0  0  0  0  0  0  0  0  0  0  0
    4.4477   -3.2424   -3.4465 C   0  0  0  0  0  0  0  0  0  0  0  0
    4.1633   -2.2656   -4.3282 N   0  0  0  0  0  0  0  0  0  0  0  0
    4.0108   -0.9849   -3.9519 C   0  0  0  0  0  0  0  0  0  0  0  0
    4.1426   -0.5894   -2.6229 C   0  0  0  0  0  0  0  0  0  0  0  0
    4.3847   -1.5889   -1.6641 C   0  0  0  0  0  0  0  0  0  0  0  0
    4.5111   -1.4894   -0.2781 C   0  0  0  0  0  0  0  0  0  0  0  0
    4.7595   -2.7161    0.2423 C   0  0  0  0  0  0  0  0  0  0  0  0
    4.9675   -3.2035    1.5202 C   0  0  0  0  0  0  0  0  0  0  0  0
    5.2002   -4.5840    1.6329 C   0  0  0  0  0  0  0  0  0  0  0  0
    5.2191   -5.4234    0.5785 N   0  0  0  0  0  0  0  0  0  0  0  0
    5.0094   -4.9353   -0.6637 C   0  0  0  0  0  0  0  0  0  0  0  0
    4.7827   -3.5805   -0.8493 N   0  0  0  0  0  0  0  0  0  0  0  0
    4.5518   -2.9448   -2.0716 C   0  0  0  0  0  0  0  0  0  0  0  0
    4.9346   -2.1254    2.8688 S   0  0  0  0  0  0  0  0  0  0  0  0
    4.5992   -0.6173    2.0036 C   0  0  0  0  0  0  0  0  0  0  0  0
    4.4245   -0.4213    0.6134 C   0  0  0  0  0  0  0  0  0  0  0  0
    4.8670   -5.4156   -3.4793 H   0  0  0  0  0  0  0  0  0  0  0  0
    5.4118   -4.5400   -4.8799 H   0  0  0  0  0  0  0  0  0  0  0  0
    3.7187   -4.8561   -4.6528 H   0  0  0  0  0  0  0  0  0  0  0  0
    3.8298   -0.2537   -4.7334 H   0  0  0  0  0  0  0  0  0  0  0  0
    4.0463    0.4428   -2.3442 H   0  0  0  0  0  0  0  0  0  0  0  0
    5.3724   -5.0512    2.5874 H   0  0  0  0  0  0  0  0  0  0  0  0
    4.9975   -5.6274   -1.4841 H   0  0  0  0  0  0  0  0  0  0  0  0
    4.5140    0.2718    2.5961 H   0  0  0  0  0  0  0  0  0  0  0  0
    4.2144    0.5629    0.2331 H   0  0  0  0  0  0  0  0  0  0  0  0
  1  2  1  0
  1 18  1  0
  1 19  1  0
  1 20  1  0
  2 14  2  0
  2  3  1  0
  3  4  2  0
  4  5  1  0
  4 21  1  0
  5  6  2  0
  5 22  1  0
  6 14  1  0
  6  7  1  0
  7 17  1  0
  7  8  2  0
  8 13  1  0
  8  9  1  0
  9 10  2  0
  9 15  1  0
 10 11  1  0
 10 23  1  0
 11 12  2  0
 12 13  1  0
 12 24  1  0
 13 14  1  0
 15 16  1  0
 16 17  2  0
 16 25  1  0
 17 26  1  0
M  END
>  <i_m_ct_stereo_status>  (154) 
1

>  <s_m_source_file>  (154) 
/var/tmp/pbs.5076255.sched01/tmp68k5m_u8/43t0xmz28c.sdf

>  <i_m_source_file_index>  (154) 
21

>  <i_lp_mmshare_version>  (154) 
48012

>  <i_f3d_flags>  (154) 
0

>  <s_epik_input>  (154) 
W2NIXTFbY0hdbmMoW0NIM10pYzJuM1tjSF1uW2NIXWMoYzNjNGMxMilzW2NIXVtjSF00

>  <s_epik_cmdline>  (154) 
J2VwaWtfcHl0aG9uJywgJy1waHQnLCAnMi4wJywgJy1waCcsICc3LjAnLCAnLXRuJywgJzgnLCAnLW1hJywgJzIwMCcsICctaW1hZScsICc8aW5maWxlLm1hZT4nLCAnLW9tYWUnLCAnPG91dGZpbGUubWFlPic=

>  <r_epik_Ionization_Penalty>  (154) 
0.220056

>  <r_epik_Ionization_Penalty_Charging>  (154) 
0

>  <r_epik_Ionization_Penalty_Neutral>  (154) 
0.220056

>  <r_epik_State_Penalty>  (154) 
0.30949

>  <r_epik_Charging_Adjusted_Penalty>  (154) 
0.30949

>  <i_epik_Tot_Q>  (154) 
0

>  <i_epik_Tot_abs_Q>  (154) 
0

>  <s_epik_Chemistry_Notes>  (154) 
This compound contains an electron-poor aromatic ring that is susceptible to covalent hydrolysis at low pH, typically resulting in measured values for nitrogen ring protonation that are around two units higher than predicted values.

>  <s_lp_Force_Field>  (154) 
OPLS3e

>  <r_lp_Energy>  (154) 
36.4229

>  <b_lp_Chiralities_Consistent>  (154) 
1

>  <s_lp_Variant>  (154) 
45:0-1

>  <s_i_glide_gridfile>  (154) 
pfpi4k_grid

>  <i_i_glide_lignum>  (154) 
21

>  <i_i_glide_rotatable_bonds>  (154) 
0

>  <r_i_docking_score>  (154) 
-4.69688

>  <r_i_glide_ligand_efficiency>  (154) 
-0.276287

>  <r_i_glide_ligand_efficiency_sa>  (154) 
-0.710412

>  <r_i_glide_ligand_efficiency_ln>  (154) 
-1.22531

>  <r_i_glide_gscore>  (154) 
-4.69688

>  <r_i_glide_lipo>  (154) 
-0.867246

>  <r_i_glide_hbond>  (154) 
-0.32

>  <r_i_glide_metal>  (154) 
-0

>  <r_i_glide_rewards>  (154) 
-1.8206

>  <r_i_glide_evdw>  (154) 
-18.5143

>  <r_i_glide_ecoul>  (154) 
-5.00203

>  <r_i_glide_erotb>  (154) 
0

>  <r_i_glide_esite>  (154) 
-0.0130118

>  <r_i_glide_emodel>  (154) 
-29.9345

>  <r_i_glide_energy>  (154) 
-23.5163

>  <r_i_glide_einternal>  (154) 
0

>  <r_i_glide_intrahb_reward>  (154) 
-0

>  <i_i_glide_confnum>  (154) 
2

>  <i_i_glide_posenum>  (154) 
35

>  <r_i_glide_eff_state_penalty>  (154) 
0

>  <ligand_id>  (154) 
45

>  <original_smiles>  (154) 
Cc1nccc2c3c4c(cncn4c12)SC=C3

>  <smiles>  (154) 
[H]C1=C([H])c2c3c([H])c([H])nc(C([H])([H])[H])c3n3c([H])nc([H])c(c23)S1

$$$$
45:0:1
     RDKit          3D

 26 29  0  0  1  0  0  0  0  0999 V2000
   -2.5886    3.2508    6.1959 C   0  0  0  0  0  0  0  0  0  0  0  0
   -1.3554    3.3093    5.3073 C   0  0  0  0  0  0  0  0  0  0  0  0
   -0.9907    4.5785    4.9883 N   0  0  0  0  0  0  0  0  0  0  0  0
    0.0928    4.7995    4.2088 C   0  0  0  0  0  0  0  0  0  0  0  0
    0.8961    3.7692    3.6939 C   0  0  0  0  0  0  0  0  0  0  0  0
    0.5254    2.4547    4.0053 C   0  0  0  0  0  0  0  0  0  0  0  0
    1.1279    1.2474    3.6243 C   0  0  0  0  0  0  0  0  0  0  0  0
    0.4386    0.2131    4.1622 C   0  0  0  0  0  0  0  0  0  0  0  0
    0.5702   -1.1701    4.1342 C   0  0  0  0  0  0  0  0  0  0  0  0
   -0.3821   -1.9102    4.8570 C   0  0  0  0  0  0  0  0  0  0  0  0
   -1.3979   -1.3507    5.5474 N   0  0  0  0  0  0  0  0  0  0  0  0
   -1.5228   -0.0042    5.5601 C   0  0  0  0  0  0  0  0  0  0  0  0
   -0.6099    0.7920    4.8805 N   0  0  0  0  0  0  0  0  0  0  0  0
   -0.6136    2.1917    4.8252 C   0  0  0  0  0  0  0  0  0  0  0  0
    1.8685   -1.8890    3.2302 S   0  0  0  0  0  0  0  0  0  0  0  0
    2.6387   -0.4077    2.6221 C   0  0  0  0  0  0  0  0  0  0  0  0
    2.2492    0.9417    2.8415 C   0  0  0  0  0  0  0  0  0  0  0  0
   -2.9383    2.2702    6.4822 H   0  0  0  0  0  0  0  0  0  0  0  0
   -3.4124    3.7403    5.6798 H   0  0  0  0  0  0  0  0  0  0  0  0
   -2.4021    3.8044    7.1156 H   0  0  0  0  0  0  0  0  0  0  0  0
    0.3289    5.8297    3.9921 H   0  0  0  0  0  0  0  0  0  0  0  0
    1.7458    3.9741    3.0620 H   0  0  0  0  0  0  0  0  0  0  0  0
   -0.3480   -2.9887    4.8718 H   0  0  0  0  0  0  0  0  0  0  0  0
   -2.3397    0.4179    6.1163 H   0  0  0  0  0  0  0  0  0  0  0  0
    3.5111   -0.5354    2.0051 H   0  0  0  0  0  0  0  0  0  0  0  0
    2.8223    1.7428    2.4002 H   0  0  0  0  0  0  0  0  0  0  0  0
  1  2  1  0
  1 18  1  0
  1 19  1  0
  1 20  1  0
  2 14  2  0
  2  3  1  0
  3  4  2  0
  4  5  1  0
  4 21  1  0
  5  6  2  0
  5 22  1  0
  6 14  1  0
  6  7  1  0
  7 17  1  0
  7  8  2  0
  8 13  1  0
  8  9  1  0
  9 10  2  0
  9 15  1  0
 10 11  1  0
 10 23  1  0
 11 12  2  0
 12 13  1  0
 12 24  1  0
 13 14  1  0
 15 16  1  0
 16 17  2  0
 16 25  1  0
 17 26  1  0
M  END
>  <i_m_ct_stereo_status>  (155) 
1

>  <s_m_source_file>  (155) 
/var/tmp/pbs.5076255.sched01/tmp68k5m_u8/43t0xmz28c.sdf

>  <i_m_source_file_index>  (155) 
21

>  <i_lp_mmshare_version>  (155) 
48012

>  <i_f3d_flags>  (155) 
0

>  <s_epik_input>  (155) 
W2NIXTFbY0hdbmMoW0NIM10pYzJuM1tjSF1uW2NIXWMoYzNjNGMxMilzW2NIXVtjSF00

>  <s_epik_cmdline>  (155) 
J2VwaWtfcHl0aG9uJywgJy1waHQnLCAnMi4wJywgJy1waCcsICc3LjAnLCAnLXRuJywgJzgnLCAnLW1hJywgJzIwMCcsICctaW1hZScsICc8aW5maWxlLm1hZT4nLCAnLW9tYWUnLCAnPG91dGZpbGUubWFlPic=

>  <r_epik_Ionization_Penalty>  (155) 
0.220056

>  <r_epik_Ionization_Penalty_Charging>  (155) 
0

>  <r_epik_Ionization_Penalty_Neutral>  (155) 
0.220056

>  <r_epik_State_Penalty>  (155) 
0.30949

>  <r_epik_Charging_Adjusted_Penalty>  (155) 
0.30949

>  <i_epik_Tot_Q>  (155) 
0

>  <i_epik_Tot_abs_Q>  (155) 
0

>  <s_epik_Chemistry_Notes>  (155) 
This compound contains an electron-poor aromatic ring that is susceptible to covalent hydrolysis at low pH, typically resulting in measured values for nitrogen ring protonation that are around two units higher than predicted values.

>  <s_lp_Force_Field>  (155) 
OPLS3e

>  <r_lp_Energy>  (155) 
36.4229

>  <b_lp_Chiralities_Consistent>  (155) 
1

>  <s_lp_Variant>  (155) 
45:0-1

>  <s_i_glide_gridfile>  (155) 
pfpi4k_grid

>  <i_i_glide_lignum>  (155) 
21

>  <i_i_glide_rotatable_bonds>  (155) 
0

>  <r_i_docking_score>  (155) 
-3.14617

>  <r_i_glide_ligand_efficiency>  (155) 
-0.185069

>  <r_i_glide_ligand_efficiency_sa>  (155) 
-0.475865

>  <r_i_glide_ligand_efficiency_ln>  (155) 
-0.820766

>  <r_i_glide_gscore>  (155) 
-3.14617

>  <r_i_glide_lipo>  (155) 
-0.095951

>  <r_i_glide_hbond>  (155) 
0

>  <r_i_glide_metal>  (155) 
-0

>  <r_i_glide_rewards>  (155) 
-1.77752

>  <r_i_glide_evdw>  (155) 
-18.7917

>  <r_i_glide_ecoul>  (155) 
-1.72372

>  <r_i_glide_erotb>  (155) 
0

>  <r_i_glide_esite>  (155) 
-0.074557

>  <r_i_glide_emodel>  (155) 
-24.8515

>  <r_i_glide_energy>  (155) 
-20.5154

>  <r_i_glide_einternal>  (155) 
0

>  <r_i_glide_intrahb_reward>  (155) 
-0

>  <i_i_glide_confnum>  (155) 
1

>  <i_i_glide_posenum>  (155) 
1

>  <r_i_glide_eff_state_penalty>  (155) 
0

>  <ligand_id>  (155) 
45

>  <original_smiles>  (155) 
Cc1nccc2c3c4c(cncn4c12)SC=C3

>  <smiles>  (155) 
[H]C1=C([H])c2c3c([H])c([H])nc(C([H])([H])[H])c3n3c([H])nc([H])c(c23)S1

$$$$
45:0:2
     RDKit          3D

 26 29  0  0  1  0  0  0  0  0999 V2000
    4.0408   -4.9938    3.8138 C   0  0  0  0  0  0  0  0  0  0  0  0
    3.3217   -5.0753    2.4794 C   0  0  0  0  0  0  0  0  0  0  0  0
    2.4442   -6.1098    2.4107 N   0  0  0  0  0  0  0  0  0  0  0  0
    1.7390   -6.3255    1.2807 C   0  0  0  0  0  0  0  0  0  0  0  0
    1.8258   -5.5015    0.1444 C   0  0  0  0  0  0  0  0  0  0  0  0
    2.7271   -4.4296    0.2008 C   0  0  0  0  0  0  0  0  0  0  0  0
    3.0254   -3.4656   -0.7805 C   0  0  0  0  0  0  0  0  0  0  0  0
    3.9570   -2.6112   -0.3045 C   0  0  0  0  0  0  0  0  0  0  0  0
    4.6178   -1.4943   -0.8100 C   0  0  0  0  0  0  0  0  0  0  0  0
    5.5343   -0.8752    0.0552 C   0  0  0  0  0  0  0  0  0  0  0  0
    5.8071   -1.3008    1.3050 N   0  0  0  0  0  0  0  0  0  0  0  0
    5.1653   -2.3853    1.7897 C   0  0  0  0  0  0  0  0  0  0  0  0
    4.2371   -3.0524    0.9971 N   0  0  0  0  0  0  0  0  0  0  0  0
    3.4999   -4.1884    1.3737 C   0  0  0  0  0  0  0  0  0  0  0  0
    4.2801   -0.9543   -2.4217 S   0  0  0  0  0  0  0  0  0  0  0  0
    3.0710   -2.1734   -2.8686 C   0  0  0  0  0  0  0  0  0  0  0  0
    2.5682   -3.2474   -2.0853 C   0  0  0  0  0  0  0  0  0  0  0  0
    4.7534   -4.1880    3.9352 H   0  0  0  0  0  0  0  0  0  0  0  0
    4.5810   -5.9245    3.9857 H   0  0  0  0  0  0  0  0  0  0  0  0
    3.3040   -4.8901    4.6097 H   0  0  0  0  0  0  0  0  0  0  0  0
    1.0628   -7.1655    1.2850 H   0  0  0  0  0  0  0  0  0  0  0  0
    1.2600   -5.6872   -0.7536 H   0  0  0  0  0  0  0  0  0  0  0  0
    6.0859   -0.0011   -0.2469 H   0  0  0  0  0  0  0  0  0  0  0  0
    5.4025   -2.6967    2.7950 H   0  0  0  0  0  0  0  0  0  0  0  0
    2.6450   -2.0964   -3.8537 H   0  0  0  0  0  0  0  0  0  0  0  0
    1.8292   -3.9110   -2.5077 H   0  0  0  0  0  0  0  0  0  0  0  0
  1  2  1  0
  1 18  1  0
  1 19  1  0
  1 20  1  0
  2 14  2  0
  2  3  1  0
  3  4  2  0
  4  5  1  0
  4 21  1  0
  5  6  2  0
  5 22  1  0
  6 14  1  0
  6  7  1  0
  7 17  1  0
  7  8  2  0
  8 13  1  0
  8  9  1  0
  9 10  2  0
  9 15  1  0
 10 11  1  0
 10 23  1  0
 11 12  2  0
 12 13  1  0
 12 24  1  0
 13 14  1  0
 15 16  1  0
 16 17  2  0
 16 25  1  0
 17 26  1  0
M  END
>  <i_m_ct_stereo_status>  (156) 
1

>  <s_m_source_file>  (156) 
/var/tmp/pbs.5076255.sched01/tmp68k5m_u8/43t0xmz28c.sdf

>  <i_m_source_file_index>  (156) 
21

>  <i_lp_mmshare_version>  (156) 
48012

>  <i_f3d_flags>  (156) 
0

>  <s_epik_input>  (156) 
W2NIXTFbY0hdbmMoW0NIM10pYzJuM1tjSF1uW2NIXWMoYzNjNGMxMilzW2NIXVtjSF00

>  <s_epik_cmdline>  (156) 
J2VwaWtfcHl0aG9uJywgJy1waHQnLCAnMi4wJywgJy1waCcsICc3LjAnLCAnLXRuJywgJzgnLCAnLW1hJywgJzIwMCcsICctaW1hZScsICc8aW5maWxlLm1hZT4nLCAnLW9tYWUnLCAnPG91dGZpbGUubWFlPic=

>  <r_epik_Ionization_Penalty>  (156) 
0.220056

>  <r_epik_Ionization_Penalty_Charging>  (156) 
0

>  <r_epik_Ionization_Penalty_Neutral>  (156) 
0.220056

>  <r_epik_State_Penalty>  (156) 
0.30949

>  <r_epik_Charging_Adjusted_Penalty>  (156) 
0.30949

>  <i_epik_Tot_Q>  (156) 
0

>  <i_epik_Tot_abs_Q>  (156) 
0

>  <s_epik_Chemistry_Notes>  (156) 
This compound contains an electron-poor aromatic ring that is susceptible to covalent hydrolysis at low pH, typically resulting in measured values for nitrogen ring protonation that are around two units higher than predicted values.

>  <s_lp_Force_Field>  (156) 
OPLS3e

>  <r_lp_Energy>  (156) 
36.4229

>  <b_lp_Chiralities_Consistent>  (156) 
1

>  <s_lp_Variant>  (156) 
45:0-1

>  <s_i_glide_gridfile>  (156) 
pfpi4k_grid

>  <i_i_glide_lignum>  (156) 
21

>  <i_i_glide_rotatable_bonds>  (156) 
0

>  <r_i_docking_score>  (156) 
-3.02941

>  <r_i_glide_ligand_efficiency>  (156) 
-0.1782

>  <r_i_glide_ligand_efficiency_sa>  (156) 
-0.458204

>  <r_i_glide_ligand_efficiency_ln>  (156) 
-0.790305

>  <r_i_glide_gscore>  (156) 
-3.02941

>  <r_i_glide_lipo>  (156) 
-0.161741

>  <r_i_glide_hbond>  (156) 
0

>  <r_i_glide_metal>  (156) 
-0

>  <r_i_glide_rewards>  (156) 
-1.86045

>  <r_i_glide_evdw>  (156) 
-20.9149

>  <r_i_glide_ecoul>  (156) 
0.256849

>  <r_i_glide_erotb>  (156) 
0

>  <r_i_glide_esite>  (156) 
0

>  <r_i_glide_emodel>  (156) 
-24.8247

>  <r_i_glide_energy>  (156) 
-20.6581

>  <r_i_glide_einternal>  (156) 
0

>  <r_i_glide_intrahb_reward>  (156) 
-0

>  <i_i_glide_confnum>  (156) 
1

>  <i_i_glide_posenum>  (156) 
3

>  <r_i_glide_eff_state_penalty>  (156) 
0

>  <ligand_id>  (156) 
45

>  <original_smiles>  (156) 
Cc1nccc2c3c4c(cncn4c12)SC=C3

>  <smiles>  (156) 
[H]C1=C([H])c2c3c([H])c([H])nc(C([H])([H])[H])c3n3c([H])nc([H])c(c23)S1

$$$$
45:1:0
     RDKit          3D

 27 30  0  0  1  0  0  0  0  0999 V2000
   -6.6081   -4.3073   -4.1461 C   0  0  0  0  0  0  0  0  0  0  0  0
   -7.5900   -4.6873   -5.2468 C   0  0  0  0  0  0  0  0  0  0  0  0
   -8.5845   -3.7867   -5.4475 N   0  0  0  0  0  0  0  0  0  0  0  0
   -9.5604   -3.9184   -6.3720 C   0  0  0  0  0  0  0  0  0  0  0  0
   -9.5833   -5.0536   -7.2103 C   0  0  0  0  0  0  0  0  0  0  0  0
   -8.5695   -6.0184   -7.0469 C   0  0  0  0  0  0  0  0  0  0  0  0
   -8.3779   -7.2361   -7.7242 C   0  0  0  0  0  0  0  0  0  0  0  0
   -7.2878   -7.8672   -7.2224 C   0  0  0  0  0  0  0  0  0  0  0  0
   -6.6427   -9.0693   -7.4865 C   0  0  0  0  0  0  0  0  0  0  0  0
   -5.4969   -9.3570   -6.7251 C   0  0  0  0  0  0  0  0  0  0  0  0
   -5.0203   -8.5406   -5.7654 N   0  0  0  0  0  0  0  0  0  0  0  0
   -5.6656   -7.3847   -5.4948 C   0  0  0  0  0  0  0  0  0  0  0  0
   -6.7987   -7.0289   -6.2184 N   0  0  0  0  0  0  0  0  0  0  0  0
   -7.5544   -5.8605   -6.0514 C   0  0  0  0  0  0  0  0  0  0  0  0
   -7.2711  -10.1239   -8.7081 S   0  0  0  0  0  0  0  0  0  0  0  0
   -8.6495   -9.1423   -9.2441 C   0  0  0  0  0  0  0  0  0  0  0  0
   -9.0793   -7.8828   -8.7490 C   0  0  0  0  0  0  0  0  0  0  0  0
   -5.8027   -5.0040   -3.9527 H   0  0  0  0  0  0  0  0  0  0  0  0
   -7.1458   -4.1922   -3.2066 H   0  0  0  0  0  0  0  0  0  0  0  0
   -6.1444   -3.3506   -4.3844 H   0  0  0  0  0  0  0  0  0  0  0  0
  -10.2885   -3.1222   -6.4096 H   0  0  0  0  0  0  0  0  0  0  0  0
  -10.3609   -5.2071   -7.9413 H   0  0  0  0  0  0  0  0  0  0  0  0
   -4.9333  -10.2650   -6.8779 H   0  0  0  0  0  0  0  0  0  0  0  0
   -5.2660   -6.7620   -4.7160 H   0  0  0  0  0  0  0  0  0  0  0  0
   -9.2505   -9.5476  -10.0391 H   0  0  0  0  0  0  0  0  0  0  0  0
   -9.9598   -7.4207   -9.1644 H   0  0  0  0  0  0  0  0  0  0  0  0
   -8.5864   -2.9522   -4.8547 H   0  0  0  0  0  0  0  0  0  0  0  0
  1  2  1  0
  1 18  1  0
  1 19  1  0
  1 20  1  0
  2 14  2  0
  2  3  1  0
  3  4  2  0
  3 27  1  0
  4  5  1  0
  4 21  1  0
  5  6  2  0
  5 22  1  0
  6 14  1  0
  6  7  1  0
  7 17  1  0
  7  8  2  0
  8 13  1  0
  8  9  1  0
  9 10  2  0
  9 15  1  0
 10 11  1  0
 10 23  1  0
 11 12  2  0
 12 13  1  0
 12 24  1  0
 13 14  1  0
 15 16  1  0
 16 17  2  0
 16 25  1  0
 17 26  1  0
M  CHG  1   3   1
M  END
>  <i_m_ct_stereo_status>  (157) 
1

>  <s_m_source_file>  (157) 
/var/tmp/pbs.5076255.sched01/tmp68k5m_u8/43t0xmz28c.sdf

>  <i_m_source_file_index>  (157) 
22

>  <i_lp_mmshare_version>  (157) 
48012

>  <i_f3d_flags>  (157) 
0

>  <s_epik_input>  (157) 
W2NIXTFbY0hdbmMoW0NIM10pYzJuM1tjSF1uW2NIXWMoYzNjNGMxMilzW2NIXVtjSF00

>  <s_epik_cmdline>  (157) 
J2VwaWtfcHl0aG9uJywgJy1waHQnLCAnMi4wJywgJy1waCcsICc3LjAnLCAnLXRuJywgJzgnLCAnLW1hJywgJzIwMCcsICctaW1hZScsICc8aW5maWxlLm1hZT4nLCAnLW9tYWUnLCAnPG91dGZpbGUubWFlPic=

>  <r_epik_Ionization_Penalty>  (157) 
0.383876

>  <r_epik_Ionization_Penalty_Charging>  (157) 
0.383876

>  <r_epik_Ionization_Penalty_Neutral>  (157) 
5.16985e-12

>  <r_epik_State_Penalty>  (157) 
0.532785

>  <r_epik_Charging_Adjusted_Penalty>  (157) 
0.916661

>  <i_epik_Tot_Q>  (157) 
1

>  <i_epik_Tot_abs_Q>  (157) 
1

>  <s_epik_Chemistry_Notes>  (157) 
This compound contains an electron-poor aromatic ring that is susceptible to covalent hydrolysis at low pH, typically resulting in measured values for nitrogen ring protonation that are around two units higher than predicted values.

>  <s_lp_Force_Field>  (157) 
OPLS3e

>  <r_lp_Energy>  (157) 
40.1532

>  <b_lp_Chiralities_Consistent>  (157) 
1

>  <s_lp_Variant>  (157) 
45:0-2

>  <s_i_glide_gridfile>  (157) 
pfpi4k_grid

>  <i_i_glide_lignum>  (157) 
22

>  <i_i_glide_rotatable_bonds>  (157) 
0

>  <r_i_docking_score>  (157) 
-6.56531

>  <r_i_glide_ligand_efficiency>  (157) 
-0.386194

>  <r_i_glide_ligand_efficiency_sa>  (157) 
-0.993015

>  <r_i_glide_ligand_efficiency_ln>  (157) 
-1.71274

>  <r_i_glide_gscore>  (157) 
-6.56531

>  <r_i_glide_lipo>  (157) 
-2.44286

>  <r_i_glide_hbond>  (157) 
0

>  <r_i_glide_metal>  (157) 
-0

>  <r_i_glide_rewards>  (157) 
-2.86008

>  <r_i_glide_evdw>  (157) 
-28.2996

>  <r_i_glide_ecoul>  (157) 
1.01739

>  <r_i_glide_erotb>  (157) 
0

>  <r_i_glide_esite>  (157) 
0

>  <r_i_glide_emodel>  (157) 
-39.4625

>  <r_i_glide_energy>  (157) 
-27.2822

>  <r_i_glide_einternal>  (157) 
0

>  <r_i_glide_intrahb_reward>  (157) 
-0

>  <i_i_glide_confnum>  (157) 
1

>  <i_i_glide_posenum>  (157) 
1

>  <r_i_glide_eff_state_penalty>  (157) 
0

>  <ligand_id>  (157) 
45

>  <original_smiles>  (157) 
Cc1nccc2c3c4c(cncn4c12)SC=C3

>  <smiles>  (157) 
[H]C1=C([H])c2c3c([H])c([H])[n+]([H])c(C([H])([H])[H])c3n3c([H])nc([H])c(c23)S1

$$$$
45:1:1
     RDKit          3D

 27 30  0  0  1  0  0  0  0  0999 V2000
   -9.2201   -9.3955   -9.9597 C   0  0  0  0  0  0  0  0  0  0  0  0
   -9.4194   -8.1008   -9.1863 C   0  0  0  0  0  0  0  0  0  0  0  0
  -10.5497   -7.4239   -9.5126 N   0  0  0  0  0  0  0  0  0  0  0  0
  -10.9152   -6.2559   -8.9410 C   0  0  0  0  0  0  0  0  0  0  0  0
  -10.1082   -5.6608   -7.9509 C   0  0  0  0  0  0  0  0  0  0  0  0
   -8.9262   -6.3246   -7.5824 C   0  0  0  0  0  0  0  0  0  0  0  0
   -7.9720   -5.9622   -6.6200 C   0  0  0  0  0  0  0  0  0  0  0  0
   -7.0043   -6.9083   -6.5702 C   0  0  0  0  0  0  0  0  0  0  0  0
   -5.8314   -7.0785   -5.8473 C   0  0  0  0  0  0  0  0  0  0  0  0
   -5.0709   -8.2287   -6.1080 C   0  0  0  0  0  0  0  0  0  0  0  0
   -5.4162   -9.1498   -7.0297 N   0  0  0  0  0  0  0  0  0  0  0  0
   -6.5582   -8.9815   -7.7362 C   0  0  0  0  0  0  0  0  0  0  0  0
   -7.3578   -7.8655   -7.5194 N   0  0  0  0  0  0  0  0  0  0  0  0
   -8.5579   -7.5680   -8.1860 C   0  0  0  0  0  0  0  0  0  0  0  0
   -5.3566   -5.8572   -4.7378 S   0  0  0  0  0  0  0  0  0  0  0  0
   -6.7475   -4.7671   -4.8769 C   0  0  0  0  0  0  0  0  0  0  0  0
   -7.8604   -4.8717   -5.7473 C   0  0  0  0  0  0  0  0  0  0  0  0
   -8.3318   -9.9744   -9.7280 H   0  0  0  0  0  0  0  0  0  0  0  0
   -9.1813   -9.1720  -11.0246 H   0  0  0  0  0  0  0  0  0  0  0  0
  -10.0766  -10.0478   -9.7914 H   0  0  0  0  0  0  0  0  0  0  0  0
  -11.8432   -5.8382   -9.2817 H   0  0  0  0  0  0  0  0  0  0  0  0
  -10.3875   -4.7380   -7.4615 H   0  0  0  0  0  0  0  0  0  0  0  0
   -4.1422   -8.4231   -5.5881 H   0  0  0  0  0  0  0  0  0  0  0  0
   -6.8101   -9.7346   -8.4633 H   0  0  0  0  0  0  0  0  0  0  0  0
   -6.7378   -3.9036   -4.2347 H   0  0  0  0  0  0  0  0  0  0  0  0
   -8.6157   -4.1041   -5.7316 H   0  0  0  0  0  0  0  0  0  0  0  0
  -11.1607   -7.8315  -10.2256 H   0  0  0  0  0  0  0  0  0  0  0  0
  1  2  1  0
  1 18  1  0
  1 19  1  0
  1 20  1  0
  2 14  2  0
  2  3  1  0
  3  4  2  0
  3 27  1  0
  4  5  1  0
  4 21  1  0
  5  6  2  0
  5 22  1  0
  6 14  1  0
  6  7  1  0
  7 17  1  0
  7  8  2  0
  8 13  1  0
  8  9  1  0
  9 10  2  0
  9 15  1  0
 10 11  1  0
 10 23  1  0
 11 12  2  0
 12 13  1  0
 12 24  1  0
 13 14  1  0
 15 16  1  0
 16 17  2  0
 16 25  1  0
 17 26  1  0
M  CHG  1   3   1
M  END
>  <i_m_ct_stereo_status>  (158) 
1

>  <s_m_source_file>  (158) 
/var/tmp/pbs.5076255.sched01/tmp68k5m_u8/43t0xmz28c.sdf

>  <i_m_source_file_index>  (158) 
22

>  <i_lp_mmshare_version>  (158) 
48012

>  <i_f3d_flags>  (158) 
0

>  <s_epik_input>  (158) 
W2NIXTFbY0hdbmMoW0NIM10pYzJuM1tjSF1uW2NIXWMoYzNjNGMxMilzW2NIXVtjSF00

>  <s_epik_cmdline>  (158) 
J2VwaWtfcHl0aG9uJywgJy1waHQnLCAnMi4wJywgJy1waCcsICc3LjAnLCAnLXRuJywgJzgnLCAnLW1hJywgJzIwMCcsICctaW1hZScsICc8aW5maWxlLm1hZT4nLCAnLW9tYWUnLCAnPG91dGZpbGUubWFlPic=

>  <r_epik_Ionization_Penalty>  (158) 
0.383876

>  <r_epik_Ionization_Penalty_Charging>  (158) 
0.383876

>  <r_epik_Ionization_Penalty_Neutral>  (158) 
5.16985e-12

>  <r_epik_State_Penalty>  (158) 
0.532785

>  <r_epik_Charging_Adjusted_Penalty>  (158) 
0.916661

>  <i_epik_Tot_Q>  (158) 
1

>  <i_epik_Tot_abs_Q>  (158) 
1

>  <s_epik_Chemistry_Notes>  (158) 
This compound contains an electron-poor aromatic ring that is susceptible to covalent hydrolysis at low pH, typically resulting in measured values for nitrogen ring protonation that are around two units higher than predicted values.

>  <s_lp_Force_Field>  (158) 
OPLS3e

>  <r_lp_Energy>  (158) 
40.1532

>  <b_lp_Chiralities_Consistent>  (158) 
1

>  <s_lp_Variant>  (158) 
45:0-2

>  <s_i_glide_gridfile>  (158) 
pfpi4k_grid

>  <i_i_glide_lignum>  (158) 
22

>  <i_i_glide_rotatable_bonds>  (158) 
0

>  <r_i_docking_score>  (158) 
-6.52775

>  <r_i_glide_ligand_efficiency>  (158) 
-0.383985

>  <r_i_glide_ligand_efficiency_sa>  (158) 
-0.987334

>  <r_i_glide_ligand_efficiency_ln>  (158) 
-1.70294

>  <r_i_glide_gscore>  (158) 
-6.52775

>  <r_i_glide_lipo>  (158) 
-2.08642

>  <r_i_glide_hbond>  (158) 
0

>  <r_i_glide_metal>  (158) 
-0

>  <r_i_glide_rewards>  (158) 
-2.89957

>  <r_i_glide_evdw>  (158) 
-26.2256

>  <r_i_glide_ecoul>  (158) 
-1.46955

>  <r_i_glide_erotb>  (158) 
0

>  <r_i_glide_esite>  (158) 
-0.0100427

>  <r_i_glide_emodel>  (158) 
-39.7942

>  <r_i_glide_energy>  (158) 
-27.6952

>  <r_i_glide_einternal>  (158) 
0

>  <r_i_glide_intrahb_reward>  (158) 
-0

>  <i_i_glide_confnum>  (158) 
2

>  <i_i_glide_posenum>  (158) 
3

>  <r_i_glide_eff_state_penalty>  (158) 
0

>  <ligand_id>  (158) 
45

>  <original_smiles>  (158) 
Cc1nccc2c3c4c(cncn4c12)SC=C3

>  <smiles>  (158) 
[H]C1=C([H])c2c3c([H])c([H])[n+]([H])c(C([H])([H])[H])c3n3c([H])nc([H])c(c23)S1

$$$$
45:1:2
     RDKit          3D

 27 30  0  0  1  0  0  0  0  0999 V2000
   -6.5635   -4.7288   -4.1810 C   0  0  0  0  0  0  0  0  0  0  0  0
   -7.6769   -4.7804   -5.2202 C   0  0  0  0  0  0  0  0  0  0  0  0
   -8.5886   -3.7850   -5.1149 N   0  0  0  0  0  0  0  0  0  0  0  0
   -9.6659   -3.6308   -5.9118 C   0  0  0  0  0  0  0  0  0  0  0  0
   -9.8984   -4.5471   -6.9500 C   0  0  0  0  0  0  0  0  0  0  0  0
   -8.9724   -5.5946   -7.1177 C   0  0  0  0  0  0  0  0  0  0  0  0
   -8.9740   -6.6237   -8.0716 C   0  0  0  0  0  0  0  0  0  0  0  0
   -7.9071   -7.4293   -7.8723 C   0  0  0  0  0  0  0  0  0  0  0  0
   -7.4031   -8.5757   -8.4867 C   0  0  0  0  0  0  0  0  0  0  0  0
   -6.2237   -9.1067   -7.9441 C   0  0  0  0  0  0  0  0  0  0  0  0
   -5.5711   -8.5786   -6.8884 N   0  0  0  0  0  0  0  0  0  0  0  0
   -6.0698   -7.4768   -6.2830 C   0  0  0  0  0  0  0  0  0  0  0  0
   -7.2322   -6.8936   -6.7702 N   0  0  0  0  0  0  0  0  0  0  0  0
   -7.8421   -5.7379   -6.2538 C   0  0  0  0  0  0  0  0  0  0  0  0
   -8.2386   -9.2514   -9.8408 S   0  0  0  0  0  0  0  0  0  0  0  0
   -9.5741   -8.0845   -9.9439 C   0  0  0  0  0  0  0  0  0  0  0  0
   -9.8353   -6.9515   -9.1234 C   0  0  0  0  0  0  0  0  0  0  0  0
   -5.8070   -5.5048   -4.2394 H   0  0  0  0  0  0  0  0  0  0  0  0
   -6.9874   -4.7800   -3.1779 H   0  0  0  0  0  0  0  0  0  0  0  0
   -6.0395   -3.7756   -4.2602 H   0  0  0  0  0  0  0  0  0  0  0  0
  -10.3081   -2.7948   -5.6860 H   0  0  0  0  0  0  0  0  0  0  0  0
  -10.7663   -4.4728   -7.5844 H   0  0  0  0  0  0  0  0  0  0  0  0
   -5.7676   -9.9894   -8.3637 H   0  0  0  0  0  0  0  0  0  0  0  0
   -5.5268   -7.0757   -5.4412 H   0  0  0  0  0  0  0  0  0  0  0  0
  -10.2941   -8.2472  -10.7240 H   0  0  0  0  0  0  0  0  0  0  0  0
  -10.7072   -6.3443   -9.3118 H   0  0  0  0  0  0  0  0  0  0  0  0
   -8.4548   -3.1215   -4.3455 H   0  0  0  0  0  0  0  0  0  0  0  0
  1  2  1  0
  1 18  1  0
  1 19  1  0
  1 20  1  0
  2 14  2  0
  2  3  1  0
  3  4  2  0
  3 27  1  0
  4  5  1  0
  4 21  1  0
  5  6  2  0
  5 22  1  0
  6 14  1  0
  6  7  1  0
  7 17  1  0
  7  8  2  0
  8 13  1  0
  8  9  1  0
  9 10  2  0
  9 15  1  0
 10 11  1  0
 10 23  1  0
 11 12  2  0
 12 13  1  0
 12 24  1  0
 13 14  1  0
 15 16  1  0
 16 17  2  0
 16 25  1  0
 17 26  1  0
M  CHG  1   3   1
M  END
>  <i_m_ct_stereo_status>  (159) 
1

>  <s_m_source_file>  (159) 
/var/tmp/pbs.5076255.sched01/tmp68k5m_u8/43t0xmz28c.sdf

>  <i_m_source_file_index>  (159) 
22

>  <i_lp_mmshare_version>  (159) 
48012

>  <i_f3d_flags>  (159) 
0

>  <s_epik_input>  (159) 
W2NIXTFbY0hdbmMoW0NIM10pYzJuM1tjSF1uW2NIXWMoYzNjNGMxMilzW2NIXVtjSF00

>  <s_epik_cmdline>  (159) 
J2VwaWtfcHl0aG9uJywgJy1waHQnLCAnMi4wJywgJy1waCcsICc3LjAnLCAnLXRuJywgJzgnLCAnLW1hJywgJzIwMCcsICctaW1hZScsICc8aW5maWxlLm1hZT4nLCAnLW9tYWUnLCAnPG91dGZpbGUubWFlPic=

>  <r_epik_Ionization_Penalty>  (159) 
0.383876

>  <r_epik_Ionization_Penalty_Charging>  (159) 
0.383876

>  <r_epik_Ionization_Penalty_Neutral>  (159) 
5.16985e-12

>  <r_epik_State_Penalty>  (159) 
0.532785

>  <r_epik_Charging_Adjusted_Penalty>  (159) 
0.916661

>  <i_epik_Tot_Q>  (159) 
1

>  <i_epik_Tot_abs_Q>  (159) 
1

>  <s_epik_Chemistry_Notes>  (159) 
This compound contains an electron-poor aromatic ring that is susceptible to covalent hydrolysis at low pH, typically resulting in measured values for nitrogen ring protonation that are around two units higher than predicted values.

>  <s_lp_Force_Field>  (159) 
OPLS3e

>  <r_lp_Energy>  (159) 
40.1532

>  <b_lp_Chiralities_Consistent>  (159) 
1

>  <s_lp_Variant>  (159) 
45:0-2

>  <s_i_glide_gridfile>  (159) 
pfpi4k_grid

>  <i_i_glide_lignum>  (159) 
22

>  <i_i_glide_rotatable_bonds>  (159) 
0

>  <r_i_docking_score>  (159) 
-6.47709

>  <r_i_glide_ligand_efficiency>  (159) 
-0.381005

>  <r_i_glide_ligand_efficiency_sa>  (159) 
-0.979672

>  <r_i_glide_ligand_efficiency_ln>  (159) 
-1.68973

>  <r_i_glide_gscore>  (159) 
-6.47709

>  <r_i_glide_lipo>  (159) 
-2.40633

>  <r_i_glide_hbond>  (159) 
0

>  <r_i_glide_metal>  (159) 
-0

>  <r_i_glide_rewards>  (159) 
-2.68317

>  <r_i_glide_evdw>  (159) 
-27.3517

>  <r_i_glide_ecoul>  (159) 
-0.133369

>  <r_i_glide_erotb>  (159) 
0

>  <r_i_glide_esite>  (159) 
0

>  <r_i_glide_emodel>  (159) 
-39.4882

>  <r_i_glide_energy>  (159) 
-27.4851

>  <r_i_glide_einternal>  (159) 
0

>  <r_i_glide_intrahb_reward>  (159) 
-0

>  <i_i_glide_confnum>  (159) 
2

>  <i_i_glide_posenum>  (159) 
10

>  <r_i_glide_eff_state_penalty>  (159) 
0

>  <ligand_id>  (159) 
45

>  <original_smiles>  (159) 
Cc1nccc2c3c4c(cncn4c12)SC=C3

>  <smiles>  (159) 
[H]C1=C([H])c2c3c([H])c([H])[n+]([H])c(C([H])([H])[H])c3n3c([H])nc([H])c(c23)S1

$$$$
46:0:0
     RDKit          3D

 45 49  0  0  1  0  0  0  0  0999 V2000
    6.4451   -3.7020    1.0521 C   0  0  0  0  0  0  0  0  0  0  0  0
    5.3369   -4.3691    1.6331 O   0  0  0  0  0  0  0  0  0  0  0  0
    5.4367   -5.7237    1.8587 C   0  0  0  0  0  0  0  0  0  0  0  0
    6.6611   -6.4642    1.8111 C   0  0  0  0  0  0  0  0  0  0  0  0
    6.7039   -7.8717    2.0371 C   0  0  0  0  0  0  0  0  0  0  0  0
    5.5177   -8.5620    2.3566 C   0  0  0  0  0  0  0  0  0  0  0  0
    4.3791   -7.7548    2.4232 C   0  0  0  0  0  0  0  0  0  0  0  0
    4.2404   -6.4079    2.1622 C   0  0  0  0  0  0  0  0  0  0  0  0
    2.9295   -5.9750    2.2412 O   0  0  0  0  0  0  0  0  0  0  0  0
    2.1500   -7.1849    2.1363 C   0  0  2  0  0  0  0  0  0  0  0  0
    0.7021   -7.3068    2.6595 C   0  0  1  0  0  0  0  0  0  0  0  0
   -0.1853   -6.7224    1.7207 O   0  0  0  0  0  0  0  0  0  0  0  0
    0.3428   -8.7972    2.8639 C   0  0  0  0  0  0  0  0  0  0  0  0
    1.2310   -9.8313    2.7848 C   0  0  0  0  0  0  0  0  0  0  0  0
    2.7277   -9.6336    2.4750 C   0  0  2  0  0  0  0  0  0  0  0  0
    2.8865   -9.8445    1.0843 O   0  0  0  0  0  0  0  0  0  0  0  0
    3.8497  -10.4837    3.1622 C   0  0  1  0  0  0  0  0  0  0  0  0
    5.2591  -10.0691    2.5907 C   0  0  0  0  0  0  0  0  0  0  0  0
    3.8670  -10.3652    4.6543 N   0  0  2  0  0  0  0  0  0  0  0  0
    2.8090  -11.1307    5.3588 C   0  0  0  0  0  0  0  0  0  0  0  0
    3.9938   -8.9676    5.1405 C   0  0  0  0  0  0  0  0  0  0  0  0
    2.9962   -8.0411    4.4309 C   0  0  0  0  0  0  0  0  0  0  0  0
    3.0485   -8.1959    2.8666 C   0  0  1  0  0  0  0  0  0  0  0  0
    6.1981   -2.6475    0.9376 H   0  0  0  0  0  0  0  0  0  0  0  0
    6.6610   -4.1001    0.0605 H   0  0  0  0  0  0  0  0  0  0  0  0
    7.3405   -3.7581    1.6706 H   0  0  0  0  0  0  0  0  0  0  0  0
    7.5968   -5.9744    1.6070 H   0  0  0  0  0  0  0  0  0  0  0  0
    7.6424   -8.4067    1.9752 H   0  0  0  0  0  0  0  0  0  0  0  0
    2.1325   -7.4248    1.0703 H   0  0  0  0  0  0  0  0  0  0  0  0
    0.5932   -6.7852    3.6103 H   0  0  0  0  0  0  0  0  0  0  0  0
   -0.2076   -7.2844    0.9569 H   0  0  0  0  0  0  0  0  0  0  0  0
   -0.6992   -9.0045    3.0725 H   0  0  0  0  0  0  0  0  0  0  0  0
    0.8830  -10.8437    2.9294 H   0  0  0  0  0  0  0  0  0  0  0  0
    3.2473  -10.7176    0.9164 H   0  0  0  0  0  0  0  0  0  0  0  0
    3.7016  -11.5401    2.9314 H   0  0  0  0  0  0  0  0  0  0  0  0
    5.3852  -10.5459    1.6215 H   0  0  0  0  0  0  0  0  0  0  0  0
    6.0585  -10.4712    3.2115 H   0  0  0  0  0  0  0  0  0  0  0  0
    1.8352  -10.6559    5.2499 H   0  0  0  0  0  0  0  0  0  0  0  0
    3.0325  -11.1763    6.4255 H   0  0  0  0  0  0  0  0  0  0  0  0
    2.7464  -12.1555    4.9875 H   0  0  0  0  0  0  0  0  0  0  0  0
    3.8456   -8.9315    6.2203 H   0  0  0  0  0  0  0  0  0  0  0  0
    5.0118   -8.6102    4.9810 H   0  0  0  0  0  0  0  0  0  0  0  0
    2.0047   -8.2700    4.8298 H   0  0  0  0  0  0  0  0  0  0  0  0
    3.1878   -7.0087    4.7281 H   0  0  0  0  0  0  0  0  0  0  0  0
    4.7249  -10.8211    4.9363 H   0  0  0  0  0  0  0  0  0  0  0  0
  1  2  1  0
  1 24  1  0
  1 25  1  0
  1 26  1  0
  2  3  1  0
  3  8  2  0
  3  4  1  0
  4  5  2  0
  4 27  1  0
  5  6  1  0
  5 28  1  0
  6 18  1  0
  6  7  2  0
  7 23  1  0
  7  8  1  0
  8  9  1  0
  9 10  1  0
 10 23  1  0
 10 11  1  0
 10 29  1  6
 11 12  1  0
 11 13  1  0
 11 30  1  1
 12 31  1  0
 13 14  2  0
 13 32  1  0
 14 15  1  0
 14 33  1  0
 15 23  1  0
 15 16  1  6
 15 17  1  0
 16 34  1  0
 17 18  1  0
 17 19  1  0
 17 35  1  1
 18 36  1  0
 18 37  1  0
 19 20  1  0
 19 21  1  0
 19 45  1  1
 20 38  1  0
 20 39  1  0
 20 40  1  0
 21 22  1  0
 21 41  1  0
 21 42  1  0
 23 22  1  1
 22 43  1  0
 22 44  1  0
M  CHG  1  19   1
M  END
>  <i_m_ct_stereo_status>  (160) 
1

>  <s_m_source_file>  (160) 
/var/tmp/pbs.5076255.sched01/tmp68k5m_u8/43t0xmz28c.sdf

>  <i_m_source_file_index>  (160) 
23

>  <i_lp_mmshare_version>  (160) 
48012

>  <i_f3d_flags>  (160) 
0

>  <s_epik_input>  (160) 
W0NAXTEyM2M0YzVbY0hdW2NIXWMoT1tDSDNdKWM0T1tDQEBIXTFbQ0BASF0oW09IXSlbQ0hdPVtDSF1bQ0BdMihbT0hdKVtDQEBIXShbQ0gyXTUpTihbQ0gzXSlbQ0gyXVtDSDJdMw==

>  <s_epik_cmdline>  (160) 
J2VwaWtfcHl0aG9uJywgJy1waHQnLCAnMi4wJywgJy1waCcsICc3LjAnLCAnLXRuJywgJzgnLCAnLW1hJywgJzIwMCcsICctaW1hZScsICc8aW5maWxlLm1hZT4nLCAnLW9tYWUnLCAnPG91dGZpbGUubWFlPic=

>  <r_lp_tautomer_probability>  (160) 
1

>  <r_epik_Ionization_Penalty>  (160) 
0.127052

>  <r_epik_Ionization_Penalty_Charging>  (160) 
0.127006

>  <r_epik_Ionization_Penalty_Neutral>  (160) 
4.65335e-05

>  <r_epik_State_Penalty>  (160) 
0.116449

>  <r_epik_Charging_Adjusted_Penalty>  (160) 
0.243455

>  <i_epik_Tot_Q>  (160) 
1

>  <i_epik_Tot_abs_Q>  (160) 
1

>  <s_lp_Force_Field>  (160) 
OPLS3e

>  <r_lp_Energy>  (160) 
75.3198

>  <b_lp_Chiralities_Consistent>  (160) 
1

>  <s_lp_Variant>  (160) 
46:0-1

>  <s_i_glide_gridfile>  (160) 
pfpi4k_grid

>  <i_i_glide_lignum>  (160) 
23

>  <i_i_glide_rotatable_bonds>  (160) 
3

>  <r_i_docking_score>  (160) 
-4.06094

>  <r_i_glide_ligand_efficiency>  (160) 
-0.176563

>  <r_i_glide_ligand_efficiency_sa>  (160) 
-0.50212

>  <r_i_glide_ligand_efficiency_ln>  (160) 
-0.981972

>  <r_i_glide_gscore>  (160) 
-4.06094

>  <r_i_glide_lipo>  (160) 
-0.377462

>  <r_i_glide_hbond>  (160) 
-0.16

>  <r_i_glide_metal>  (160) 
-0

>  <r_i_glide_rewards>  (160) 
-1.25201

>  <r_i_glide_evdw>  (160) 
-16.5079

>  <r_i_glide_ecoul>  (160) 
-9.57008

>  <r_i_glide_erotb>  (160) 
0

>  <r_i_glide_esite>  (160) 
-0.0105572

>  <r_i_glide_emodel>  (160) 
-35.6148

>  <r_i_glide_energy>  (160) 
-26.078

>  <r_i_glide_einternal>  (160) 
1.13423

>  <r_i_glide_intrahb_reward>  (160) 
-0

>  <i_i_glide_confnum>  (160) 
1

>  <i_i_glide_posenum>  (160) 
1

>  <r_i_glide_eff_state_penalty>  (160) 
0

>  <ligand_id>  (160) 
46

>  <original_smiles>  (160) 
COc1ccc2c3c1OC1C(O)C=CC4(O)C(C2)N(C)CCC314

>  <smiles>  (160) 
[H]OC1([H])C([H])=C([H])C2(O[H])C34c5c(c(OC([H])([H])[H])c([H])c([H])c5C([H])([H])C2([H])[N+]([H])(C([H])([H])[H])C([H])([H])C3([H])[H])OC14[H]

$$$$
46:0:1
     RDKit          3D

 45 49  0  0  1  0  0  0  0  0999 V2000
   -0.2680   -7.8706    2.0416 C   0  0  0  0  0  0  0  0  0  0  0  0
    0.3575   -6.8395    1.2927 O   0  0  0  0  0  0  0  0  0  0  0  0
    1.4913   -6.2599    1.8164 C   0  0  0  0  0  0  0  0  0  0  0  0
    1.9598   -6.4387    3.1561 C   0  0  0  0  0  0  0  0  0  0  0  0
    3.1102   -5.7588    3.6503 C   0  0  0  0  0  0  0  0  0  0  0  0
    3.8524   -4.9213    2.7915 C   0  0  0  0  0  0  0  0  0  0  0  0
    3.3517   -4.8434    1.4915 C   0  0  0  0  0  0  0  0  0  0  0  0
    2.2143   -5.4082    0.9640 C   0  0  0  0  0  0  0  0  0  0  0  0
    1.9617   -5.0067   -0.3283 O   0  0  0  0  0  0  0  0  0  0  0  0
    2.7890   -3.8368   -0.5199 C   0  0  2  0  0  0  0  0  0  0  0  0
    3.2909   -3.3209   -1.8918 C   0  0  1  0  0  0  0  0  0  0  0  0
    2.2418   -2.6447   -2.5479 O   0  0  0  0  0  0  0  0  0  0  0  0
    4.4945   -2.3694   -1.7048 C   0  0  0  0  0  0  0  0  0  0  0  0
    5.1555   -2.1834   -0.5293 C   0  0  0  0  0  0  0  0  0  0  0  0
    4.7536   -2.8972    0.7709 C   0  0  2  0  0  0  0  0  0  0  0  0
    3.9370   -1.9713    1.4650 O   0  0  0  0  0  0  0  0  0  0  0  0
    5.8115   -3.4035    1.8098 C   0  0  1  0  0  0  0  0  0  0  0  0
    5.0858   -4.0320    3.0584 C   0  0  0  0  0  0  0  0  0  0  0  0
    6.7782   -4.4001    1.2545 N   0  0  2  0  0  0  0  0  0  0  0  0
    7.8455   -3.8290    0.3991 C   0  0  0  0  0  0  0  0  0  0  0  0
    6.1289   -5.5897    0.6521 C   0  0  0  0  0  0  0  0  0  0  0  0
    4.9943   -5.1781   -0.2984 C   0  0  0  0  0  0  0  0  0  0  0  0
    3.9996   -4.1574    0.3638 C   0  0  1  0  0  0  0  0  0  0  0  0
   -1.1188   -8.2554    1.4808 H   0  0  0  0  0  0  0  0  0  0  0  0
   -0.6430   -7.4972    2.9927 H   0  0  0  0  0  0  0  0  0  0  0  0
    0.4090   -8.7052    2.2228 H   0  0  0  0  0  0  0  0  0  0  0  0
    1.4336   -7.0849    3.8382 H   0  0  0  0  0  0  0  0  0  0  0  0
    3.4211   -5.8820    4.6789 H   0  0  0  0  0  0  0  0  0  0  0  0
    2.2177   -3.0251   -0.0681 H   0  0  0  0  0  0  0  0  0  0  0  0
    3.6424   -4.1224   -2.5355 H   0  0  0  0  0  0  0  0  0  0  0  0
    1.8010   -2.0539   -1.9396 H   0  0  0  0  0  0  0  0  0  0  0  0
    4.8073   -1.8372   -2.5927 H   0  0  0  0  0  0  0  0  0  0  0  0
    5.9823   -1.4916   -0.4734 H   0  0  0  0  0  0  0  0  0  0  0  0
    3.2515   -1.6722    0.8833 H   0  0  0  0  0  0  0  0  0  0  0  0
    6.3956   -2.5559    2.1625 H   0  0  0  0  0  0  0  0  0  0  0  0
    4.7405   -3.2180    3.6945 H   0  0  0  0  0  0  0  0  0  0  0  0
    5.7934   -4.5929    3.6696 H   0  0  0  0  0  0  0  0  0  0  0  0
    7.4563   -3.5318   -0.5742 H   0  0  0  0  0  0  0  0  0  0  0  0
    8.6216   -4.5767    0.2264 H   0  0  0  0  0  0  0  0  0  0  0  0
    8.3116   -2.9629    0.8726 H   0  0  0  0  0  0  0  0  0  0  0  0
    6.8715   -6.1940    0.1318 H   0  0  0  0  0  0  0  0  0  0  0  0
    5.7411   -6.2371    1.4390 H   0  0  0  0  0  0  0  0  0  0  0  0
    5.4557   -4.7630   -1.1974 H   0  0  0  0  0  0  0  0  0  0  0  0
    4.4741   -6.0729   -0.6427 H   0  0  0  0  0  0  0  0  0  0  0  0
    7.2727   -4.7560    2.0587 H   0  0  0  0  0  0  0  0  0  0  0  0
  1  2  1  0
  1 24  1  0
  1 25  1  0
  1 26  1  0
  2  3  1  0
  3  8  2  0
  3  4  1  0
  4  5  2  0
  4 27  1  0
  5  6  1  0
  5 28  1  0
  6 18  1  0
  6  7  2  0
  7 23  1  0
  7  8  1  0
  8  9  1  0
  9 10  1  0
 10 23  1  0
 10 11  1  0
 10 29  1  1
 11 12  1  0
 11 13  1  0
 11 30  1  6
 12 31  1  0
 13 14  2  0
 13 32  1  0
 14 15  1  0
 14 33  1  0
 15 23  1  0
 15 16  1  1
 15 17  1  0
 16 34  1  0
 17 18  1  0
 17 19  1  0
 17 35  1  1
 18 36  1  0
 18 37  1  0
 19 20  1  0
 19 21  1  0
 19 45  1  1
 20 38  1  0
 20 39  1  0
 20 40  1  0
 21 22  1  0
 21 41  1  0
 21 42  1  0
 23 22  1  6
 22 43  1  0
 22 44  1  0
M  CHG  1  19   1
M  END
>  <i_m_ct_stereo_status>  (161) 
1

>  <s_m_source_file>  (161) 
/var/tmp/pbs.5076255.sched01/tmp68k5m_u8/43t0xmz28c.sdf

>  <i_m_source_file_index>  (161) 
23

>  <i_lp_mmshare_version>  (161) 
48012

>  <i_f3d_flags>  (161) 
0

>  <s_epik_input>  (161) 
W0NAXTEyM2M0YzVbY0hdW2NIXWMoT1tDSDNdKWM0T1tDQEBIXTFbQ0BASF0oW09IXSlbQ0hdPVtDSF1bQ0BdMihbT0hdKVtDQEBIXShbQ0gyXTUpTihbQ0gzXSlbQ0gyXVtDSDJdMw==

>  <s_epik_cmdline>  (161) 
J2VwaWtfcHl0aG9uJywgJy1waHQnLCAnMi4wJywgJy1waCcsICc3LjAnLCAnLXRuJywgJzgnLCAnLW1hJywgJzIwMCcsICctaW1hZScsICc8aW5maWxlLm1hZT4nLCAnLW9tYWUnLCAnPG91dGZpbGUubWFlPic=

>  <r_lp_tautomer_probability>  (161) 
1

>  <r_epik_Ionization_Penalty>  (161) 
0.127052

>  <r_epik_Ionization_Penalty_Charging>  (161) 
0.127006

>  <r_epik_Ionization_Penalty_Neutral>  (161) 
4.65335e-05

>  <r_epik_State_Penalty>  (161) 
0.116449

>  <r_epik_Charging_Adjusted_Penalty>  (161) 
0.243455

>  <i_epik_Tot_Q>  (161) 
1

>  <i_epik_Tot_abs_Q>  (161) 
1

>  <s_lp_Force_Field>  (161) 
OPLS3e

>  <r_lp_Energy>  (161) 
75.3198

>  <b_lp_Chiralities_Consistent>  (161) 
1

>  <s_lp_Variant>  (161) 
46:0-1

>  <s_i_glide_gridfile>  (161) 
pfpi4k_grid

>  <i_i_glide_lignum>  (161) 
23

>  <i_i_glide_rotatable_bonds>  (161) 
3

>  <r_i_docking_score>  (161) 
-3.57594

>  <r_i_glide_ligand_efficiency>  (161) 
-0.155476

>  <r_i_glide_ligand_efficiency_sa>  (161) 
-0.442152

>  <r_i_glide_ligand_efficiency_ln>  (161) 
-0.864695

>  <r_i_glide_gscore>  (161) 
-3.57594

>  <r_i_glide_lipo>  (161) 
-0.443985

>  <r_i_glide_hbond>  (161) 
-0.0740391

>  <r_i_glide_metal>  (161) 
-0

>  <r_i_glide_rewards>  (161) 
-1.25201

>  <r_i_glide_evdw>  (161) 
-20.7845

>  <r_i_glide_ecoul>  (161) 
-5.1112

>  <r_i_glide_erotb>  (161) 
0

>  <r_i_glide_esite>  (161) 
0

>  <r_i_glide_emodel>  (161) 
-34.7777

>  <r_i_glide_energy>  (161) 
-25.8957

>  <r_i_glide_einternal>  (161) 
0.288958

>  <r_i_glide_intrahb_reward>  (161) 
-0

>  <i_i_glide_confnum>  (161) 
2

>  <i_i_glide_posenum>  (161) 
19

>  <r_i_glide_eff_state_penalty>  (161) 
0

>  <ligand_id>  (161) 
46

>  <original_smiles>  (161) 
COc1ccc2c3c1OC1C(O)C=CC4(O)C(C2)N(C)CCC314

>  <smiles>  (161) 
[H]OC1([H])C([H])=C([H])C2(O[H])C34c5c(c(OC([H])([H])[H])c([H])c([H])c5C([H])([H])C2([H])[N+]([H])(C([H])([H])[H])C([H])([H])C3([H])[H])OC14[H]

$$$$
46:0:2
     RDKit          3D

 45 49  0  0  1  0  0  0  0  0999 V2000
    4.0144   -0.8263   -2.6039 C   0  0  0  0  0  0  0  0  0  0  0  0
    3.5199   -1.8167   -1.7186 O   0  0  0  0  0  0  0  0  0  0  0  0
    4.4214   -2.6307   -1.0706 C   0  0  0  0  0  0  0  0  0  0  0  0
    5.8407   -2.5640   -1.2393 C   0  0  0  0  0  0  0  0  0  0  0  0
    6.7278   -3.4517   -0.5614 C   0  0  0  0  0  0  0  0  0  0  0  0
    6.2061   -4.4064    0.3351 C   0  0  0  0  0  0  0  0  0  0  0  0
    4.8151   -4.3772    0.4654 C   0  0  0  0  0  0  0  0  0  0  0  0
    3.8885   -3.5971   -0.1916 C   0  0  0  0  0  0  0  0  0  0  0  0
    2.5867   -3.9132    0.1444 O   0  0  0  0  0  0  0  0  0  0  0  0
    2.6748   -5.2310    0.7224 C   0  0  2  0  0  0  0  0  0  0  0  0
    1.6220   -5.8139    1.6921 C   0  0  1  0  0  0  0  0  0  0  0  0
    0.5052   -6.2689    0.9504 O   0  0  0  0  0  0  0  0  0  0  0  0
    2.2292   -6.9834    2.4983 C   0  0  0  0  0  0  0  0  0  0  0  0
    3.5519   -7.3123    2.5081 C   0  0  0  0  0  0  0  0  0  0  0  0
    4.6059   -6.5502    1.6888 C   0  0  2  0  0  0  0  0  0  0  0  0
    4.7696   -7.2958    0.4983 O   0  0  0  0  0  0  0  0  0  0  0  0
    6.0540   -6.2739    2.2271 C   0  0  1  0  0  0  0  0  0  0  0  0
    6.9073   -5.5260    1.1351 C   0  0  0  0  0  0  0  0  0  0  0  0
    6.0819   -5.4795    3.4949 N   0  0  2  0  0  0  0  0  0  0  0  0
    5.7361   -6.2384    4.7204 C   0  0  0  0  0  0  0  0  0  0  0  0
    5.3744   -4.1772    3.4018 C   0  0  0  0  0  0  0  0  0  0  0  0
    3.9850   -4.3486    2.7749 C   0  0  0  0  0  0  0  0  0  0  0  0
    4.0340   -5.1630    1.4317 C   0  0  1  0  0  0  0  0  0  0  0  0
    3.1738   -0.2681   -3.0139 H   0  0  0  0  0  0  0  0  0  0  0  0
    4.5540   -1.2735   -3.4385 H   0  0  0  0  0  0  0  0  0  0  0  0
    4.6615   -0.1137   -2.0934 H   0  0  0  0  0  0  0  0  0  0  0  0
    6.2753   -1.8445   -1.9081 H   0  0  0  0  0  0  0  0  0  0  0  0
    7.7946   -3.4003   -0.7361 H   0  0  0  0  0  0  0  0  0  0  0  0
    2.7444   -5.9087   -0.1308 H   0  0  0  0  0  0  0  0  0  0  0  0
    1.2817   -5.0502    2.3908 H   0  0  0  0  0  0  0  0  0  0  0  0
    0.6889   -7.1387    0.6172 H   0  0  0  0  0  0  0  0  0  0  0  0
    1.5317   -7.5643    3.0881 H   0  0  0  0  0  0  0  0  0  0  0  0
    3.8934   -8.1532    3.0920 H   0  0  0  0  0  0  0  0  0  0  0  0
    3.9692   -7.2562   -0.0012 H   0  0  0  0  0  0  0  0  0  0  0  0
    6.5529   -7.2208    2.4360 H   0  0  0  0  0  0  0  0  0  0  0  0
    7.2412   -6.2592    0.4054 H   0  0  0  0  0  0  0  0  0  0  0  0
    7.8215   -5.1234    1.5713 H   0  0  0  0  0  0  0  0  0  0  0  0
    4.6676   -6.4406    4.7688 H   0  0  0  0  0  0  0  0  0  0  0  0
    6.0015   -5.6574    5.6044 H   0  0  0  0  0  0  0  0  0  0  0  0
    6.2786   -7.1840    4.7654 H   0  0  0  0  0  0  0  0  0  0  0  0
    5.2979   -3.7207    4.3894 H   0  0  0  0  0  0  0  0  0  0  0  0
    5.9598   -3.4739    2.8105 H   0  0  0  0  0  0  0  0  0  0  0  0
    3.3533   -4.8315    3.5239 H   0  0  0  0  0  0  0  0  0  0  0  0
    3.5392   -3.3667    2.6199 H   0  0  0  0  0  0  0  0  0  0  0  0
    7.0584   -5.2433    3.6225 H   0  0  0  0  0  0  0  0  0  0  0  0
  1  2  1  0
  1 24  1  0
  1 25  1  0
  1 26  1  0
  2  3  1  0
  3  8  2  0
  3  4  1  0
  4  5  2  0
  4 27  1  0
  5  6  1  0
  5 28  1  0
  6 18  1  0
  6  7  2  0
  7 23  1  0
  7  8  1  0
  8  9  1  0
  9 10  1  0
 10 23  1  0
 10 11  1  0
 10 29  1  6
 11 12  1  0
 11 13  1  0
 11 30  1  1
 12 31  1  0
 13 14  2  0
 13 32  1  0
 14 15  1  0
 14 33  1  0
 15 23  1  0
 15 16  1  6
 15 17  1  0
 16 34  1  0
 17 18  1  0
 17 19  1  0
 17 35  1  1
 18 36  1  0
 18 37  1  0
 19 20  1  0
 19 21  1  0
 19 45  1  1
 20 38  1  0
 20 39  1  0
 20 40  1  0
 21 22  1  0
 21 41  1  0
 21 42  1  0
 23 22  1  1
 22 43  1  0
 22 44  1  0
M  CHG  1  19   1
M  END
>  <i_m_ct_stereo_status>  (162) 
1

>  <s_m_source_file>  (162) 
/var/tmp/pbs.5076255.sched01/tmp68k5m_u8/43t0xmz28c.sdf

>  <i_m_source_file_index>  (162) 
23

>  <i_lp_mmshare_version>  (162) 
48012

>  <i_f3d_flags>  (162) 
0

>  <s_epik_input>  (162) 
W0NAXTEyM2M0YzVbY0hdW2NIXWMoT1tDSDNdKWM0T1tDQEBIXTFbQ0BASF0oW09IXSlbQ0hdPVtDSF1bQ0BdMihbT0hdKVtDQEBIXShbQ0gyXTUpTihbQ0gzXSlbQ0gyXVtDSDJdMw==

>  <s_epik_cmdline>  (162) 
J2VwaWtfcHl0aG9uJywgJy1waHQnLCAnMi4wJywgJy1waCcsICc3LjAnLCAnLXRuJywgJzgnLCAnLW1hJywgJzIwMCcsICctaW1hZScsICc8aW5maWxlLm1hZT4nLCAnLW9tYWUnLCAnPG91dGZpbGUubWFlPic=

>  <r_lp_tautomer_probability>  (162) 
1

>  <r_epik_Ionization_Penalty>  (162) 
0.127052

>  <r_epik_Ionization_Penalty_Charging>  (162) 
0.127006

>  <r_epik_Ionization_Penalty_Neutral>  (162) 
4.65335e-05

>  <r_epik_State_Penalty>  (162) 
0.116449

>  <r_epik_Charging_Adjusted_Penalty>  (162) 
0.243455

>  <i_epik_Tot_Q>  (162) 
1

>  <i_epik_Tot_abs_Q>  (162) 
1

>  <s_lp_Force_Field>  (162) 
OPLS3e

>  <r_lp_Energy>  (162) 
75.3198

>  <b_lp_Chiralities_Consistent>  (162) 
1

>  <s_lp_Variant>  (162) 
46:0-1

>  <s_i_glide_gridfile>  (162) 
pfpi4k_grid

>  <i_i_glide_lignum>  (162) 
23

>  <i_i_glide_rotatable_bonds>  (162) 
3

>  <r_i_docking_score>  (162) 
-3.4911

>  <r_i_glide_ligand_efficiency>  (162) 
-0.151787

>  <r_i_glide_ligand_efficiency_sa>  (162) 
-0.431662

>  <r_i_glide_ligand_efficiency_ln>  (162) 
-0.844179

>  <r_i_glide_gscore>  (162) 
-3.4911

>  <r_i_glide_lipo>  (162) 
-0.521562

>  <r_i_glide_hbond>  (162) 
0

>  <r_i_glide_metal>  (162) 
-0

>  <r_i_glide_rewards>  (162) 
-1.25201

>  <r_i_glide_evdw>  (162) 
-20.1963

>  <r_i_glide_ecoul>  (162) 
-4.71806

>  <r_i_glide_erotb>  (162) 
0

>  <r_i_glide_esite>  (162) 
0

>  <r_i_glide_emodel>  (162) 
-33.4521

>  <r_i_glide_energy>  (162) 
-24.9144

>  <r_i_glide_einternal>  (162) 
0.573394

>  <r_i_glide_intrahb_reward>  (162) 
-0

>  <i_i_glide_confnum>  (162) 
1

>  <i_i_glide_posenum>  (162) 
17

>  <r_i_glide_eff_state_penalty>  (162) 
0

>  <ligand_id>  (162) 
46

>  <original_smiles>  (162) 
COc1ccc2c3c1OC1C(O)C=CC4(O)C(C2)N(C)CCC314

>  <smiles>  (162) 
[H]OC1([H])C([H])=C([H])C2(O[H])C34c5c(c(OC([H])([H])[H])c([H])c([H])c5C([H])([H])C2([H])[N+]([H])(C([H])([H])[H])C([H])([H])C3([H])[H])OC14[H]

$$$$
46:1:0
     RDKit          3D

 44 48  0  0  1  0  0  0  0  0999 V2000
    5.1913   -3.5182   -0.2083 C   0  0  0  0  0  0  0  0  0  0  0  0
    6.1510   -3.8725    0.7846 O   0  0  0  0  0  0  0  0  0  0  0  0
    6.1655   -5.1985    1.1392 C   0  0  0  0  0  0  0  0  0  0  0  0
    7.4186   -5.8746    1.1543 C   0  0  0  0  0  0  0  0  0  0  0  0
    7.5322   -7.2598    1.4599 C   0  0  0  0  0  0  0  0  0  0  0  0
    6.3765   -7.9882    1.8254 C   0  0  0  0  0  0  0  0  0  0  0  0
    5.2058   -7.2304    1.8548 C   0  0  0  0  0  0  0  0  0  0  0  0
    4.9982   -5.9071    1.5119 C   0  0  0  0  0  0  0  0  0  0  0  0
    3.6713   -5.5235    1.5998 O   0  0  0  0  0  0  0  0  0  0  0  0
    2.9589   -6.7721    1.5365 C   0  0  2  0  0  0  0  0  0  0  0  0
    1.5084   -6.9370    2.0489 C   0  0  1  0  0  0  0  0  0  0  0  0
    0.5862   -6.4467    1.0892 O   0  0  0  0  0  0  0  0  0  0  0  0
    1.2222   -8.4332    2.3137 C   0  0  0  0  0  0  0  0  0  0  0  0
    2.1563   -9.4245    2.2836 C   0  0  0  0  0  0  0  0  0  0  0  0
    3.6433   -9.1711    1.9859 C   0  0  2  0  0  0  0  0  0  0  0  0
    3.8141   -9.4552    0.6098 O   0  0  0  0  0  0  0  0  0  0  0  0
    4.7932   -9.9331    2.7347 C   0  0  1  0  0  0  0  0  0  0  0  0
    6.1911   -9.4825    2.1714 C   0  0  0  0  0  0  0  0  0  0  0  0
    4.7889   -9.7792    4.1993 N   0  0  0  0  0  0  0  0  0  0  0  0
    3.7895  -10.5744    4.8946 C   0  0  0  0  0  0  0  0  0  0  0  0
    4.8315   -8.3782    4.6200 C   0  0  0  0  0  0  0  0  0  0  0  0
    3.8208   -7.4915    3.8739 C   0  0  0  0  0  0  0  0  0  0  0  0
    3.8939   -7.7078    2.3195 C   0  0  1  0  0  0  0  0  0  0  0  0
    5.1675   -2.4317   -0.3242 H   0  0  0  0  0  0  0  0  0  0  0  0
    4.1676   -3.8337    0.0013 H   0  0  0  0  0  0  0  0  0  0  0  0
    5.4908   -3.9598   -1.1611 H   0  0  0  0  0  0  0  0  0  0  0  0
    8.3087   -5.3206    0.8956 H   0  0  0  0  0  0  0  0  0  0  0  0
    8.4950   -7.7534    1.4120 H   0  0  0  0  0  0  0  0  0  0  0  0
    2.9757   -7.0535    0.4857 H   0  0  0  0  0  0  0  0  0  0  0  0
    1.3761   -6.3712    2.9728 H   0  0  0  0  0  0  0  0  0  0  0  0
    0.4806   -7.1253    0.4321 H   0  0  0  0  0  0  0  0  0  0  0  0
    0.1845   -8.6724    2.5245 H   0  0  0  0  0  0  0  0  0  0  0  0
    1.8640  -10.4448    2.4812 H   0  0  0  0  0  0  0  0  0  0  0  0
    3.8311  -10.4188    0.4950 H   0  0  0  0  0  0  0  0  0  0  0  0
    4.7048  -10.9987    2.5190 H   0  0  0  0  0  0  0  0  0  0  0  0
    6.3887  -10.0320    1.2549 H   0  0  0  0  0  0  0  0  0  0  0  0
    6.9813   -9.7721    2.8625 H   0  0  0  0  0  0  0  0  0  0  0  0
    3.9703  -10.5591    5.9681 H   0  0  0  0  0  0  0  0  0  0  0  0
    3.8412  -11.6150    4.5751 H   0  0  0  0  0  0  0  0  0  0  0  0
    2.7816  -10.2060    4.7210 H   0  0  0  0  0  0  0  0  0  0  0  0
    4.6664   -8.3063    5.6960 H   0  0  0  0  0  0  0  0  0  0  0  0
    5.8336   -7.9771    4.4575 H   0  0  0  0  0  0  0  0  0  0  0  0
    2.8357   -7.7288    4.2724 H   0  0  0  0  0  0  0  0  0  0  0  0
    3.9867   -6.4450    4.1347 H   0  0  0  0  0  0  0  0  0  0  0  0
  1  2  1  0
  1 24  1  0
  1 25  1  0
  1 26  1  0
  2  3  1  0
  3  8  2  0
  3  4  1  0
  4  5  2  0
  4 27  1  0
  5  6  1  0
  5 28  1  0
  6 18  1  0
  6  7  2  0
  7 23  1  0
  7  8  1  0
  8  9  1  0
  9 10  1  0
 10 23  1  0
 10 11  1  0
 10 29  1  6
 11 12  1  0
 11 13  1  0
 11 30  1  1
 12 31  1  0
 13 14  2  0
 13 32  1  0
 14 15  1  0
 14 33  1  0
 15 23  1  0
 15 16  1  6
 15 17  1  0
 16 34  1  0
 17 18  1  0
 17 19  1  0
 17 35  1  1
 18 36  1  0
 18 37  1  0
 19 20  1  0
 19 21  1  0
 20 38  1  0
 20 39  1  0
 20 40  1  0
 21 22  1  0
 21 41  1  0
 21 42  1  0
 23 22  1  1
 22 43  1  0
 22 44  1  0
M  END
>  <i_m_ct_stereo_status>  (163) 
1

>  <s_m_source_file>  (163) 
/var/tmp/pbs.5076255.sched01/tmp68k5m_u8/43t0xmz28c.sdf

>  <i_m_source_file_index>  (163) 
24

>  <i_lp_mmshare_version>  (163) 
48012

>  <i_f3d_flags>  (163) 
0

>  <s_epik_input>  (163) 
W0NAXTEyM2M0YzVbY0hdW2NIXWMoT1tDSDNdKWM0T1tDQEBIXTFbQ0BASF0oW09IXSlbQ0hdPVtDSF1bQ0BdMihbT0hdKVtDQEBIXShbQ0gyXTUpTihbQ0gzXSlbQ0gyXVtDSDJdMw==

>  <s_epik_cmdline>  (163) 
J2VwaWtfcHl0aG9uJywgJy1waHQnLCAnMi4wJywgJy1waCcsICc3LjAnLCAnLXRuJywgJzgnLCAnLW1hJywgJzIwMCcsICctaW1hZScsICc8aW5maWxlLm1hZT4nLCAnLW9tYWUnLCAnPG91dGZpbGUubWFlPic=

>  <r_lp_tautomer_probability>  (163) 
1

>  <r_epik_Ionization_Penalty>  (163) 
0.974856

>  <r_epik_Ionization_Penalty_Charging>  (163) 
0

>  <r_epik_Ionization_Penalty_Neutral>  (163) 
0.974856

>  <r_epik_State_Penalty>  (163) 
1.02117

>  <r_epik_Charging_Adjusted_Penalty>  (163) 
1.02117

>  <i_epik_Tot_Q>  (163) 
0

>  <i_epik_Tot_abs_Q>  (163) 
0

>  <s_lp_Force_Field>  (163) 
OPLS3e

>  <r_lp_Energy>  (163) 
73.8069

>  <b_lp_Chiralities_Consistent>  (163) 
1

>  <s_lp_Variant>  (163) 
46:0-2

>  <s_i_glide_gridfile>  (163) 
pfpi4k_grid

>  <i_i_glide_lignum>  (163) 
24

>  <i_i_glide_rotatable_bonds>  (163) 
3

>  <r_i_docking_score>  (163) 
-4.09509

>  <r_i_glide_ligand_efficiency>  (163) 
-0.178047

>  <r_i_glide_ligand_efficiency_sa>  (163) 
-0.506343

>  <r_i_glide_ligand_efficiency_ln>  (163) 
-0.99023

>  <r_i_glide_gscore>  (163) 
-4.09509

>  <r_i_glide_lipo>  (163) 
-0.498232

>  <r_i_glide_hbond>  (163) 
-0.16

>  <r_i_glide_metal>  (163) 
-0

>  <r_i_glide_rewards>  (163) 
-1.25888

>  <r_i_glide_evdw>  (163) 
-18.0477

>  <r_i_glide_ecoul>  (163) 
-8.50393

>  <r_i_glide_erotb>  (163) 
0

>  <r_i_glide_esite>  (163) 
0

>  <r_i_glide_emodel>  (163) 
-32.0879

>  <r_i_glide_energy>  (163) 
-26.5516

>  <r_i_glide_einternal>  (163) 
6.31439

>  <r_i_glide_intrahb_reward>  (163) 
-0

>  <i_i_glide_confnum>  (163) 
2

>  <i_i_glide_posenum>  (163) 
32

>  <r_i_glide_eff_state_penalty>  (163) 
0

>  <ligand_id>  (163) 
46

>  <original_smiles>  (163) 
COc1ccc2c3c1OC1C(O)C=CC4(O)C(C2)N(C)CCC314

>  <smiles>  (163) 
[H]OC1([H])C([H])=C([H])C2(O[H])C3([H])N(C([H])([H])[H])C([H])([H])C([H])([H])C24c2c(c(OC([H])([H])[H])c([H])c([H])c2C3([H])[H])OC14[H]

$$$$
46:1:1
     RDKit          3D

 44 48  0  0  1  0  0  0  0  0999 V2000
    3.4938   -1.0901   -3.1118 C   0  0  0  0  0  0  0  0  0  0  0  0
    3.0518   -2.0867   -2.2059 O   0  0  0  0  0  0  0  0  0  0  0  0
    3.9916   -2.7794   -1.4783 C   0  0  0  0  0  0  0  0  0  0  0  0
    5.4074   -2.6584   -1.6689 C   0  0  0  0  0  0  0  0  0  0  0  0
    6.3383   -3.4291   -0.9175 C   0  0  0  0  0  0  0  0  0  0  0  0
    5.8758   -4.3120    0.0789 C   0  0  0  0  0  0  0  0  0  0  0  0
    4.4882   -4.3417    0.2249 C   0  0  0  0  0  0  0  0  0  0  0  0
    3.5173   -3.6789   -0.4996 C   0  0  0  0  0  0  0  0  0  0  0  0
    2.2339   -4.0395   -0.1318 O   0  0  0  0  0  0  0  0  0  0  0  0
    2.4073   -5.2950    0.5600 C   0  0  2  0  0  0  0  0  0  0  0  0
    1.3943   -5.8606    1.5823 C   0  0  1  0  0  0  0  0  0  0  0  0
    0.2877   -6.4315    0.9039 O   0  0  0  0  0  0  0  0  0  0  0  0
    2.0696   -6.9311    2.4654 C   0  0  0  0  0  0  0  0  0  0  0  0
    3.4088   -7.1814    2.4891 C   0  0  0  0  0  0  0  0  0  0  0  0
    4.4128   -6.4188    1.6127 C   0  0  2  0  0  0  0  0  0  0  0  0
    4.6129   -7.2362    0.4754 O   0  0  0  0  0  0  0  0  0  0  0  0
    5.8373   -6.0101    2.1332 C   0  0  1  0  0  0  0  0  0  0  0  0
    6.6454   -5.2900    0.9941 C   0  0  0  0  0  0  0  0  0  0  0  0
    5.8280   -5.1599    3.3347 N   0  0  0  0  0  0  0  0  0  0  0  0
    5.5642   -5.8588    4.5809 C   0  0  0  0  0  0  0  0  0  0  0  0
    5.0511   -3.9336    3.1591 C   0  0  0  0  0  0  0  0  0  0  0  0
    3.6662   -4.1838    2.5398 C   0  0  0  0  0  0  0  0  0  0  0  0
    3.7579   -5.0907    1.2595 C   0  0  1  0  0  0  0  0  0  0  0  0
    2.6245   -0.6205   -3.5705 H   0  0  0  0  0  0  0  0  0  0  0  0
    4.0964   -1.5222   -3.9095 H   0  0  0  0  0  0  0  0  0  0  0  0
    4.0627   -0.3070   -2.6112 H   0  0  0  0  0  0  0  0  0  0  0  0
    5.8009   -1.9826   -2.4061 H   0  0  0  0  0  0  0  0  0  0  0  0
    7.3990   -3.3459   -1.1112 H   0  0  0  0  0  0  0  0  0  0  0  0
    2.5172   -6.0376   -0.2342 H   0  0  0  0  0  0  0  0  0  0  0  0
    1.0320   -5.0632    2.2299 H   0  0  0  0  0  0  0  0  0  0  0  0
    0.5286   -7.3048    0.6133 H   0  0  0  0  0  0  0  0  0  0  0  0
    1.4026   -7.4987    3.1032 H   0  0  0  0  0  0  0  0  0  0  0  0
    3.8060   -7.9467    3.1369 H   0  0  0  0  0  0  0  0  0  0  0  0
    4.7859   -6.6714   -0.2664 H   0  0  0  0  0  0  0  0  0  0  0  0
    6.3895   -6.9182    2.3790 H   0  0  0  0  0  0  0  0  0  0  0  0
    7.0788   -6.0509    0.3495 H   0  0  0  0  0  0  0  0  0  0  0  0
    7.4933   -4.7577    1.4256 H   0  0  0  0  0  0  0  0  0  0  0  0
    5.7726   -5.2100    5.4308 H   0  0  0  0  0  0  0  0  0  0  0  0
    6.2144   -6.7288    4.6756 H   0  0  0  0  0  0  0  0  0  0  0  0
    4.5296   -6.1860    4.6550 H   0  0  0  0  0  0  0  0  0  0  0  0
    4.9510   -3.4169    4.1151 H   0  0  0  0  0  0  0  0  0  0  0  0
    5.6034   -3.2439    2.5201 H   0  0  0  0  0  0  0  0  0  0  0  0
    3.0540   -4.6353    3.3198 H   0  0  0  0  0  0  0  0  0  0  0  0
    3.1868   -3.2278    2.3182 H   0  0  0  0  0  0  0  0  0  0  0  0
  1  2  1  0
  1 24  1  0
  1 25  1  0
  1 26  1  0
  2  3  1  0
  3  8  2  0
  3  4  1  0
  4  5  2  0
  4 27  1  0
  5  6  1  0
  5 28  1  0
  6 18  1  0
  6  7  2  0
  7 23  1  0
  7  8  1  0
  8  9  1  0
  9 10  1  0
 10 23  1  0
 10 11  1  0
 10 29  1  6
 11 12  1  0
 11 13  1  0
 11 30  1  1
 12 31  1  0
 13 14  2  0
 13 32  1  0
 14 15  1  0
 14 33  1  0
 15 23  1  0
 15 16  1  6
 15 17  1  0
 16 34  1  0
 17 18  1  0
 17 19  1  0
 17 35  1  1
 18 36  1  0
 18 37  1  0
 19 20  1  0
 19 21  1  0
 20 38  1  0
 20 39  1  0
 20 40  1  0
 21 22  1  0
 21 41  1  0
 21 42  1  0
 23 22  1  1
 22 43  1  0
 22 44  1  0
M  END
>  <i_m_ct_stereo_status>  (164) 
1

>  <s_m_source_file>  (164) 
/var/tmp/pbs.5076255.sched01/tmp68k5m_u8/43t0xmz28c.sdf

>  <i_m_source_file_index>  (164) 
24

>  <i_lp_mmshare_version>  (164) 
48012

>  <i_f3d_flags>  (164) 
0

>  <s_epik_input>  (164) 
W0NAXTEyM2M0YzVbY0hdW2NIXWMoT1tDSDNdKWM0T1tDQEBIXTFbQ0BASF0oW09IXSlbQ0hdPVtDSF1bQ0BdMihbT0hdKVtDQEBIXShbQ0gyXTUpTihbQ0gzXSlbQ0gyXVtDSDJdMw==

>  <s_epik_cmdline>  (164) 
J2VwaWtfcHl0aG9uJywgJy1waHQnLCAnMi4wJywgJy1waCcsICc3LjAnLCAnLXRuJywgJzgnLCAnLW1hJywgJzIwMCcsICctaW1hZScsICc8aW5maWxlLm1hZT4nLCAnLW9tYWUnLCAnPG91dGZpbGUubWFlPic=

>  <r_lp_tautomer_probability>  (164) 
1

>  <r_epik_Ionization_Penalty>  (164) 
0.974856

>  <r_epik_Ionization_Penalty_Charging>  (164) 
0

>  <r_epik_Ionization_Penalty_Neutral>  (164) 
0.974856

>  <r_epik_State_Penalty>  (164) 
1.02117

>  <r_epik_Charging_Adjusted_Penalty>  (164) 
1.02117

>  <i_epik_Tot_Q>  (164) 
0

>  <i_epik_Tot_abs_Q>  (164) 
0

>  <s_lp_Force_Field>  (164) 
OPLS3e

>  <r_lp_Energy>  (164) 
73.8069

>  <b_lp_Chiralities_Consistent>  (164) 
1

>  <s_lp_Variant>  (164) 
46:0-2

>  <s_i_glide_gridfile>  (164) 
pfpi4k_grid

>  <i_i_glide_lignum>  (164) 
24

>  <i_i_glide_rotatable_bonds>  (164) 
3

>  <r_i_docking_score>  (164) 
-3.40471

>  <r_i_glide_ligand_efficiency>  (164) 
-0.148031

>  <r_i_glide_ligand_efficiency_sa>  (164) 
-0.42098

>  <r_i_glide_ligand_efficiency_ln>  (164) 
-0.823289

>  <r_i_glide_gscore>  (164) 
-3.40471

>  <r_i_glide_lipo>  (164) 
-0.483673

>  <r_i_glide_hbond>  (164) 
0

>  <r_i_glide_metal>  (164) 
-0

>  <r_i_glide_rewards>  (164) 
-1.25888

>  <r_i_glide_evdw>  (164) 
-21.4214

>  <r_i_glide_ecoul>  (164) 
-3.94054

>  <r_i_glide_erotb>  (164) 
0

>  <r_i_glide_esite>  (164) 
0

>  <r_i_glide_emodel>  (164) 
-32.2614

>  <r_i_glide_energy>  (164) 
-25.3619

>  <r_i_glide_einternal>  (164) 
0.788018

>  <r_i_glide_intrahb_reward>  (164) 
-0

>  <i_i_glide_confnum>  (164) 
2

>  <i_i_glide_posenum>  (164) 
1

>  <r_i_glide_eff_state_penalty>  (164) 
0

>  <ligand_id>  (164) 
46

>  <original_smiles>  (164) 
COc1ccc2c3c1OC1C(O)C=CC4(O)C(C2)N(C)CCC314

>  <smiles>  (164) 
[H]OC1([H])C([H])=C([H])C2(O[H])C3([H])N(C([H])([H])[H])C([H])([H])C([H])([H])C24c2c(c(OC([H])([H])[H])c([H])c([H])c2C3([H])[H])OC14[H]

$$$$
46:1:2
     RDKit          3D

 44 48  0  0  1  0  0  0  0  0999 V2000
    3.4761   -1.6523   -3.5379 C   0  0  0  0  0  0  0  0  0  0  0  0
    3.0064   -2.4903   -2.4977 O   0  0  0  0  0  0  0  0  0  0  0  0
    3.9305   -3.0782   -1.6651 C   0  0  0  0  0  0  0  0  0  0  0  0
    5.3479   -2.9715   -1.8284 C   0  0  0  0  0  0  0  0  0  0  0  0
    6.2536   -3.6359   -0.9546 C   0  0  0  0  0  0  0  0  0  0  0  0
    5.7675   -4.4144    0.1154 C   0  0  0  0  0  0  0  0  0  0  0  0
    4.3795   -4.4403    0.2195 C   0  0  0  0  0  0  0  0  0  0  0  0
    3.4336   -3.8640   -0.6032 C   0  0  0  0  0  0  0  0  0  0  0  0
    2.1473   -4.2056   -0.2447 O   0  0  0  0  0  0  0  0  0  0  0  0
    2.2975   -5.3777    0.5889 C   0  0  2  0  0  0  0  0  0  0  0  0
    1.2580   -5.8499    1.6378 C   0  0  1  0  0  0  0  0  0  0  0  0
    0.1756   -6.4901    0.9868 O   0  0  0  0  0  0  0  0  0  0  0  0
    1.9003   -6.8064    2.6568 C   0  0  0  0  0  0  0  0  0  0  0  0
    3.2395   -7.0338    2.7550 C   0  0  0  0  0  0  0  0  0  0  0  0
    4.2648   -6.3627    1.8264 C   0  0  2  0  0  0  0  0  0  0  0  0
    4.5232   -7.3125    0.8059 O   0  0  0  0  0  0  0  0  0  0  0  0
    5.6686   -5.8893    2.3404 C   0  0  1  0  0  0  0  0  0  0  0  0
    6.5055   -5.2977    1.1491 C   0  0  0  0  0  0  0  0  0  0  0  0
    5.6215   -4.9109    3.4385 N   0  0  0  0  0  0  0  0  0  0  0  0
    5.3154   -5.4648    4.7459 C   0  0  0  0  0  0  0  0  0  0  0  0
    4.8476   -3.7169    3.0983 C   0  0  0  0  0  0  0  0  0  0  0  0
    3.4815   -4.0412    2.4678 C   0  0  0  0  0  0  0  0  0  0  0  0
    3.6197   -5.0850    1.3028 C   0  0  1  0  0  0  0  0  0  0  0  0
    2.6227   -1.2405   -4.0725 H   0  0  0  0  0  0  0  0  0  0  0  0
    4.0776   -2.2137   -4.2515 H   0  0  0  0  0  0  0  0  0  0  0  0
    4.0584   -0.8174   -3.1505 H   0  0  0  0  0  0  0  0  0  0  0  0
    5.7654   -2.4026   -2.6391 H   0  0  0  0  0  0  0  0  0  0  0  0
    7.3172   -3.5762   -1.1323 H   0  0  0  0  0  0  0  0  0  0  0  0
    2.4373   -6.2032   -0.1128 H   0  0  0  0  0  0  0  0  0  0  0  0
    0.8798   -5.0094    2.2139 H   0  0  0  0  0  0  0  0  0  0  0  0
    0.4471   -7.3593    0.7135 H   0  0  0  0  0  0  0  0  0  0  0  0
    1.2050   -7.2856    3.3380 H   0  0  0  0  0  0  0  0  0  0  0  0
    3.6183   -7.7092    3.5060 H   0  0  0  0  0  0  0  0  0  0  0  0
    3.6950   -7.6127    0.4645 H   0  0  0  0  0  0  0  0  0  0  0  0
    6.2093   -6.7656    2.6999 H   0  0  0  0  0  0  0  0  0  0  0  0
    6.9420   -6.1285    0.5995 H   0  0  0  0  0  0  0  0  0  0  0  0
    7.3421   -4.7261    1.5487 H   0  0  0  0  0  0  0  0  0  0  0  0
    5.4967   -4.7224    5.5214 H   0  0  0  0  0  0  0  0  0  0  0  0
    5.9618   -6.3153    4.9617 H   0  0  0  0  0  0  0  0  0  0  0  0
    4.2788   -5.7845    4.8270 H   0  0  0  0  0  0  0  0  0  0  0  0
    4.7150   -3.0954    3.9846 H   0  0  0  0  0  0  0  0  0  0  0  0
    5.4198   -3.1044    2.4014 H   0  0  0  0  0  0  0  0  0  0  0  0
    2.8451   -4.4064    3.2736 H   0  0  0  0  0  0  0  0  0  0  0  0
    3.0078   -3.1180    2.1231 H   0  0  0  0  0  0  0  0  0  0  0  0
  1  2  1  0
  1 24  1  0
  1 25  1  0
  1 26  1  0
  2  3  1  0
  3  8  2  0
  3  4  1  0
  4  5  2  0
  4 27  1  0
  5  6  1  0
  5 28  1  0
  6 18  1  0
  6  7  2  0
  7 23  1  0
  7  8  1  0
  8  9  1  0
  9 10  1  0
 10 23  1  0
 10 11  1  0
 10 29  1  6
 11 12  1  0
 11 13  1  0
 11 30  1  1
 12 31  1  0
 13 14  2  0
 13 32  1  0
 14 15  1  0
 14 33  1  0
 15 23  1  0
 15 16  1  6
 15 17  1  0
 16 34  1  0
 17 18  1  0
 17 19  1  0
 17 35  1  1
 18 36  1  0
 18 37  1  0
 19 20  1  0
 19 21  1  0
 20 38  1  0
 20 39  1  0
 20 40  1  0
 21 22  1  0
 21 41  1  0
 21 42  1  0
 23 22  1  1
 22 43  1  0
 22 44  1  0
M  END
>  <i_m_ct_stereo_status>  (165) 
1

>  <s_m_source_file>  (165) 
/var/tmp/pbs.5076255.sched01/tmp68k5m_u8/43t0xmz28c.sdf

>  <i_m_source_file_index>  (165) 
24

>  <i_lp_mmshare_version>  (165) 
48012

>  <i_f3d_flags>  (165) 
0

>  <s_epik_input>  (165) 
W0NAXTEyM2M0YzVbY0hdW2NIXWMoT1tDSDNdKWM0T1tDQEBIXTFbQ0BASF0oW09IXSlbQ0hdPVtDSF1bQ0BdMihbT0hdKVtDQEBIXShbQ0gyXTUpTihbQ0gzXSlbQ0gyXVtDSDJdMw==

>  <s_epik_cmdline>  (165) 
J2VwaWtfcHl0aG9uJywgJy1waHQnLCAnMi4wJywgJy1waCcsICc3LjAnLCAnLXRuJywgJzgnLCAnLW1hJywgJzIwMCcsICctaW1hZScsICc8aW5maWxlLm1hZT4nLCAnLW9tYWUnLCAnPG91dGZpbGUubWFlPic=

>  <r_lp_tautomer_probability>  (165) 
1

>  <r_epik_Ionization_Penalty>  (165) 
0.974856

>  <r_epik_Ionization_Penalty_Charging>  (165) 
0

>  <r_epik_Ionization_Penalty_Neutral>  (165) 
0.974856

>  <r_epik_State_Penalty>  (165) 
1.02117

>  <r_epik_Charging_Adjusted_Penalty>  (165) 
1.02117

>  <i_epik_Tot_Q>  (165) 
0

>  <i_epik_Tot_abs_Q>  (165) 
0

>  <s_lp_Force_Field>  (165) 
OPLS3e

>  <r_lp_Energy>  (165) 
73.8069

>  <b_lp_Chiralities_Consistent>  (165) 
1

>  <s_lp_Variant>  (165) 
46:0-2

>  <s_i_glide_gridfile>  (165) 
pfpi4k_grid

>  <i_i_glide_lignum>  (165) 
24

>  <i_i_glide_rotatable_bonds>  (165) 
3

>  <r_i_docking_score>  (165) 
-3.28493

>  <r_i_glide_ligand_efficiency>  (165) 
-0.142823

>  <r_i_glide_ligand_efficiency_sa>  (165) 
-0.40617

>  <r_i_glide_ligand_efficiency_ln>  (165) 
-0.794327

>  <r_i_glide_gscore>  (165) 
-3.28493

>  <r_i_glide_lipo>  (165) 
-0.643076

>  <r_i_glide_hbond>  (165) 
0

>  <r_i_glide_metal>  (165) 
-0

>  <r_i_glide_rewards>  (165) 
-1.25888

>  <r_i_glide_evdw>  (165) 
-19.8573

>  <r_i_glide_ecoul>  (165) 
-2.60072

>  <r_i_glide_erotb>  (165) 
0

>  <r_i_glide_esite>  (165) 
0

>  <r_i_glide_emodel>  (165) 
-29.346

>  <r_i_glide_energy>  (165) 
-22.458

>  <r_i_glide_einternal>  (165) 
0.357878

>  <r_i_glide_intrahb_reward>  (165) 
-0

>  <i_i_glide_confnum>  (165) 
2

>  <i_i_glide_posenum>  (165) 
33

>  <r_i_glide_eff_state_penalty>  (165) 
0

>  <ligand_id>  (165) 
46

>  <original_smiles>  (165) 
COc1ccc2c3c1OC1C(O)C=CC4(O)C(C2)N(C)CCC314

>  <smiles>  (165) 
[H]OC1([H])C([H])=C([H])C2(O[H])C3([H])N(C([H])([H])[H])C([H])([H])C([H])([H])C24c2c(c(OC([H])([H])[H])c([H])c([H])c2C3([H])[H])OC14[H]

$$$$
47:0:0
     RDKit          3D

 69 73  0  0  1  0  0  0  0  0999 V2000
    0.2315   -9.0668    5.9800 C   0  0  0  0  0  0  0  0  0  0  0  0
    1.1770   -7.9831    6.5291 C   0  0  2  0  0  0  0  0  0  0  0  0
    0.4125   -6.6758    6.9559 C   0  0  0  0  0  0  0  0  0  0  0  0
    1.0857   -5.2741    6.8066 C   0  0  0  0  0  0  0  0  0  0  0  0
    0.9938   -4.4938    5.4264 C   0  0  2  0  0  0  0  0  0  0  0  0
    0.0383   -3.2910    5.6607 C   0  0  0  0  0  0  0  0  0  0  0  0
    0.3330   -5.1529    4.3557 O   0  0  0  0  0  0  0  0  0  0  0  0
    0.7420   -6.6449    4.3140 O   0  0  0  0  0  0  0  0  0  0  0  0
    2.1849   -6.8530    4.3300 C   0  0  1  0  0  0  0  0  0  0  0  0
    2.3908   -7.6201    2.9714 C   0  0  1  0  0  0  0  0  0  0  0  0
    1.5599   -8.9245    2.8361 C   0  0  0  0  0  0  0  0  0  0  0  0
    2.2457   -6.7434    1.6834 C   0  0  1  0  0  0  0  0  0  0  0  0
    0.7926   -6.6075    1.1565 C   0  0  0  0  0  0  0  0  0  0  0  0
    2.9808   -5.3726    1.7396 C   0  0  1  0  0  0  0  0  0  0  0  0
    2.9957   -4.6512    0.3949 C   0  0  0  0  0  0  0  0  0  0  0  0
    3.5003   -3.4250    0.2007 C   0  0  0  0  0  0  0  0  0  0  0  0
    3.5177   -2.6635   -1.0740 C   0  0  0  0  0  0  0  0  0  0  0  0
    2.7747   -3.0595   -2.2194 C   0  0  0  0  0  0  0  0  0  0  0  0
    2.8352   -2.3308   -3.4403 C   0  0  0  0  0  0  0  0  0  0  0  0
    3.6358   -1.1640   -3.5219 C   0  0  0  0  0  0  0  0  0  0  0  0
    3.7074   -0.4591   -4.6845 F   0  0  0  0  0  0  0  0  0  0  0  0
    4.3784   -0.7562   -2.3874 C   0  0  0  0  0  0  0  0  0  0  0  0
    4.3243   -1.5065   -1.1755 C   0  0  0  0  0  0  0  0  0  0  0  0
    2.3219   -4.5924    2.7384 O   0  0  0  0  0  0  0  0  0  0  0  0
    2.9674   -4.4515    3.9808 C   0  0  1  0  0  0  0  0  0  0  0  0
    2.1757   -3.8005    4.9602 O   0  0  0  0  0  0  0  0  0  0  0  0
    3.3325   -5.8108    4.5804 C   0  0  2  0  0  0  0  0  0  0  0  0
    4.7605   -6.4452    4.3646 C   0  0  1  0  0  0  0  0  0  0  0  0
    5.9061   -5.4700    4.7129 C   0  0  0  0  0  0  0  0  0  0  0  0
    4.9083   -7.7001    5.3097 C   0  0  0  0  0  0  0  0  0  0  0  0
    3.6514   -8.5936    5.5659 C   0  0  0  0  0  0  0  0  0  0  0  0
    2.3963   -7.7066    5.6192 C   0  0  2  0  0  0  0  0  0  0  0  0
   -0.2854   -8.7482    5.0740 H   0  0  0  0  0  0  0  0  0  0  0  0
   -0.5365   -9.3422    6.7046 H   0  0  0  0  0  0  0  0  0  0  0  0
    0.7809   -9.9809    5.7426 H   0  0  0  0  0  0  0  0  0  0  0  0
    1.5750   -8.4102    7.4538 H   0  0  0  0  0  0  0  0  0  0  0  0
   -0.5390   -6.6240    6.4387 H   0  0  0  0  0  0  0  0  0  0  0  0
    0.1499   -6.8065    8.0045 H   0  0  0  0  0  0  0  0  0  0  0  0
    0.5871   -4.6498    7.5484 H   0  0  0  0  0  0  0  0  0  0  0  0
    2.0957   -5.2625    7.1982 H   0  0  0  0  0  0  0  0  0  0  0  0
   -0.1380   -2.7316    4.7376 H   0  0  0  0  0  0  0  0  0  0  0  0
    0.4358   -2.5745    6.3850 H   0  0  0  0  0  0  0  0  0  0  0  0
   -0.9454   -3.5954    6.0290 H   0  0  0  0  0  0  0  0  0  0  0  0
    3.3968   -8.0190    2.9231 H   0  0  0  0  0  0  0  0  0  0  0  0
    0.4820   -8.7525    2.8864 H   0  0  0  0  0  0  0  0  0  0  0  0
    1.7912   -9.6617    3.6053 H   0  0  0  0  0  0  0  0  0  0  0  0
    1.7636   -9.4227    1.8826 H   0  0  0  0  0  0  0  0  0  0  0  0
    2.7554   -7.3099    0.9060 H   0  0  0  0  0  0  0  0  0  0  0  0
    0.2019   -5.9732    1.8134 H   0  0  0  0  0  0  0  0  0  0  0  0
    0.2804   -7.5616    1.0424 H   0  0  0  0  0  0  0  0  0  0  0  0
    0.7618   -6.1799    0.1543 H   0  0  0  0  0  0  0  0  0  0  0  0
    4.0423   -5.4972    1.9341 H   0  0  0  0  0  0  0  0  0  0  0  0
    2.5988   -5.1739   -0.4587 H   0  0  0  0  0  0  0  0  0  0  0  0
    3.9359   -2.9161    1.0444 H   0  0  0  0  0  0  0  0  0  0  0  0
    2.1380   -3.9305   -2.1979 H   0  0  0  0  0  0  0  0  0  0  0  0
    2.2497   -2.6542   -4.2938 H   0  0  0  0  0  0  0  0  0  0  0  0
    4.9801    0.1417   -2.4372 H   0  0  0  0  0  0  0  0  0  0  0  0
    4.8983   -1.1693   -0.3222 H   0  0  0  0  0  0  0  0  0  0  0  0
    3.8289   -3.8060    3.8586 H   0  0  0  0  0  0  0  0  0  0  0  0
    3.4452   -5.4893    5.6096 H   0  0  0  0  0  0  0  0  0  0  0  0
    4.9551   -6.7489    3.3387 H   0  0  0  0  0  0  0  0  0  0  0  0
    5.8346   -5.0637    5.7240 H   0  0  0  0  0  0  0  0  0  0  0  0
    5.9490   -4.6353    4.0173 H   0  0  0  0  0  0  0  0  0  0  0  0
    6.8736   -5.9685    4.6426 H   0  0  0  0  0  0  0  0  0  0  0  0
    5.6840   -8.3472    4.8988 H   0  0  0  0  0  0  0  0  0  0  0  0
    5.3098   -7.3870    6.2746 H   0  0  0  0  0  0  0  0  0  0  0  0
    3.5620   -9.3622    4.8026 H   0  0  0  0  0  0  0  0  0  0  0  0
    3.7742   -9.1478    6.4989 H   0  0  0  0  0  0  0  0  0  0  0  0
    2.8147   -7.1119    6.4175 H   0  0  0  0  0  0  0  0  0  0  0  0
  1  2  1  0
  1 33  1  0
  1 34  1  0
  1 35  1  0
  2 32  1  0
  2  3  1  0
  2 36  1  1
  3  4  1  0
  3 37  1  0
  3 38  1  0
  4  5  1  0
  4 39  1  0
  4 40  1  0
  5 26  1  0
  5  6  1  1
  5  7  1  0
  6 41  1  0
  6 42  1  0
  6 43  1  0
  7  8  1  0
  9  8  1  6
  9 27  1  0
  9 32  1  0
  9 10  1  0
 10 11  1  0
 10 12  1  0
 10 44  1  1
 11 45  1  0
 11 46  1  0
 11 47  1  0
 12 13  1  0
 12 14  1  0
 12 48  1  6
 13 49  1  0
 13 50  1  0
 13 51  1  0
 14 15  1  0
 14 24  1  0
 14 52  1  1
 15 16  2  3
 15 53  1  0
 16 17  1  0
 16 54  1  0
 17 23  1  0
 17 18  2  0
 18 19  1  0
 18 55  1  0
 19 20  2  0
 19 56  1  0
 20 21  1  0
 20 22  1  0
 22 23  2  0
 22 57  1  0
 23 58  1  0
 24 25  1  0
 25 26  1  0
 25 27  1  0
 25 59  1  6
 27 28  1  0
 27 60  1  1
 28 29  1  0
 28 30  1  0
 28 61  1  6
 29 62  1  0
 29 63  1  0
 29 64  1  0
 30 31  1  0
 30 65  1  0
 30 66  1  0
 31 32  1  0
 31 67  1  0
 31 68  1  0
 32 69  1  1
M  END
>  <i_m_ct_stereo_status>  (166) 
1

>  <s_m_source_file>  (166) 
/var/tmp/pbs.5076255.sched01/tmp68k5m_u8/43t0xmz28c.sdf

>  <i_m_source_file_index>  (166) 
25

>  <i_lp_mmshare_version>  (166) 
48012

>  <i_f3d_flags>  (166) 
0

>  <s_epik_input>  (166) 
W0NIM11bQ0BIXTFbQ0gyXVtDSDJdW0NAQEhdMltDQEhdKFtDSDNdKVtDSDJdW0NIMl1bQ0BdKFtDSDNdKShPTzMpT1tDQEBIXShbQ0BIXTFbQ0BAXTIzNClPW0NAQEhdKFtDQEhdKFtDSDNdKVtDQEBIXTRbQ0gzXSkvW0NIXT1bQ0hdL2M1W2NIXVtjSF1jKEYpW2NIXVtjSF01

>  <s_epik_cmdline>  (166) 
J2VwaWtfcHl0aG9uJywgJy1waHQnLCAnMi4wJywgJy1waCcsICc3LjAnLCAnLXRuJywgJzgnLCAnLW1hJywgJzIwMCcsICctaW1hZScsICc8aW5maWxlLm1hZT4nLCAnLW9tYWUnLCAnPG91dGZpbGUubWFlPic=

>  <r_lp_tautomer_probability>  (166) 
1

>  <r_epik_Ionization_Penalty>  (166) 
4.06515e-14

>  <r_epik_Ionization_Penalty_Charging>  (166) 
0

>  <r_epik_Ionization_Penalty_Neutral>  (166) 
4.06515e-14

>  <r_epik_State_Penalty>  (166) 
-0

>  <r_epik_Charging_Adjusted_Penalty>  (166) 
0

>  <i_epik_Tot_Q>  (166) 
0

>  <i_epik_Tot_abs_Q>  (166) 
0

>  <s_epik_Chemistry_Notes>  (166) 
This compound contains an acetal/aminal-like group ( X-CH(R)-Y where X, Y are N, S, or O) that may be acid/base labile, releasing an aldehyde.

>  <s_lp_Force_Field>  (166) 
OPLS3e

>  <r_lp_Energy>  (166) 
103.952

>  <b_lp_Chiralities_Consistent>  (166) 
1

>  <s_lp_Variant>  (166) 
47:0-1

>  <s_i_glide_gridfile>  (166) 
pfpi4k_grid

>  <i_i_glide_lignum>  (166) 
25

>  <i_i_glide_rotatable_bonds>  (166) 
2

>  <r_i_docking_score>  (166) 
-2.57704

>  <r_i_glide_ligand_efficiency>  (166) 
-0.0805324

>  <r_i_glide_ligand_efficiency_sa>  (166) 
-0.255674

>  <r_i_glide_ligand_efficiency_ln>  (166) 
-0.577068

>  <r_i_glide_gscore>  (166) 
-2.57704

>  <r_i_glide_lipo>  (166) 
-0.396338

>  <r_i_glide_hbond>  (166) 
0

>  <r_i_glide_metal>  (166) 
-0

>  <r_i_glide_rewards>  (166) 
-0.743999

>  <r_i_glide_evdw>  (166) 
-31.6491

>  <r_i_glide_ecoul>  (166) 
-0.372645

>  <r_i_glide_erotb>  (166) 
0.202389

>  <r_i_glide_esite>  (166) 
-0.000736708

>  <r_i_glide_emodel>  (166) 
-34.8671

>  <r_i_glide_energy>  (166) 
-32.0217

>  <r_i_glide_einternal>  (166) 
3.01101

>  <r_i_glide_intrahb_reward>  (166) 
-0

>  <i_i_glide_confnum>  (166) 
6

>  <i_i_glide_posenum>  (166) 
25

>  <r_i_glide_eff_state_penalty>  (166) 
0

>  <ligand_id>  (166) 
47

>  <original_smiles>  (166) 
CC1CCC2(C)OOC34C(C)C(C)C(C=Cc5ccc(F)cc5)OC(O2)C3C(C)CCC14

>  <smiles>  (166) 
[H]C(=C([H])C1([H])OC2([H])OC3(C([H])([H])[H])OOC4(C([H])(C([H])([H])[H])C1([H])C([H])([H])[H])C2([H])C([H])(C([H])([H])[H])C([H])([H])C([H])([H])C4([H])C([H])(C([H])([H])[H])C([H])([H])C3([H])[H])c1c([H])c([H])c(F)c([H])c1[H]

$$$$
47:0:1
     RDKit          3D

 69 73  0  0  1  0  0  0  0  0999 V2000
    4.0634   -9.4546    2.4870 C   0  0  0  0  0  0  0  0  0  0  0  0
    2.9868   -9.7807    3.5350 C   0  0  2  0  0  0  0  0  0  0  0  0
    1.5998  -10.1384    2.8803 C   0  0  0  0  0  0  0  0  0  0  0  0
    0.2666   -9.7575    3.6063 C   0  0  0  0  0  0  0  0  0  0  0  0
   -0.3767   -8.3241    3.3992 C   0  0  2  0  0  0  0  0  0  0  0  0
   -1.6521   -8.5322    2.5402 C   0  0  0  0  0  0  0  0  0  0  0  0
    0.3406   -7.4127    2.5795 O   0  0  0  0  0  0  0  0  0  0  0  0
    1.8595   -7.4844    2.9162 O   0  0  0  0  0  0  0  0  0  0  0  0
    2.1529   -7.3749    4.3357 C   0  0  1  0  0  0  0  0  0  0  0  0
    3.0713   -6.0960    4.3395 C   0  0  1  0  0  0  0  0  0  0  0  0
    4.3323   -6.2014    3.4359 C   0  0  0  0  0  0  0  0  0  0  0  0
    2.3327   -4.7399    4.0875 C   0  0  1  0  0  0  0  0  0  0  0  0
    2.1562   -4.3608    2.5950 C   0  0  0  0  0  0  0  0  0  0  0  0
    1.0150   -4.5648    4.8954 C   0  0  1  0  0  0  0  0  0  0  0  0
    0.4294   -3.1573    4.7802 C   0  0  0  0  0  0  0  0  0  0  0  0
    0.3196   -2.2942    5.7935 C   0  0  0  0  0  0  0  0  0  0  0  0
   -0.2530   -0.9219    5.7411 C   0  0  0  0  0  0  0  0  0  0  0  0
   -0.8589   -0.3971    4.5753 C   0  0  0  0  0  0  0  0  0  0  0  0
   -1.3886    0.9285    4.5521 C   0  0  0  0  0  0  0  0  0  0  0  0
   -1.3196    1.7340    5.7136 C   0  0  0  0  0  0  0  0  0  0  0  0
   -1.8421    3.0006    5.7013 F   0  0  0  0  0  0  0  0  0  0  0  0
   -0.7173    1.2247    6.8805 C   0  0  0  0  0  0  0  0  0  0  0  0
   -0.1775   -0.1000    6.8886 C   0  0  0  0  0  0  0  0  0  0  0  0
    0.0945   -5.5295    4.3990 O   0  0  0  0  0  0  0  0  0  0  0  0
   -0.1383   -6.6718    5.1838 C   0  0  1  0  0  0  0  0  0  0  0  0
   -0.9478   -7.6400    4.5400 O   0  0  0  0  0  0  0  0  0  0  0  0
    1.1631   -7.3784    5.5534 C   0  0  2  0  0  0  0  0  0  0  0  0
    1.9039   -7.0745    6.9116 C   0  0  1  0  0  0  0  0  0  0  0  0
    0.9645   -7.1754    8.1390 C   0  0  0  0  0  0  0  0  0  0  0  0
    3.0582   -8.1273    7.1115 C   0  0  0  0  0  0  0  0  0  0  0  0
    3.8431   -8.6227    5.8514 C   0  0  0  0  0  0  0  0  0  0  0  0
    2.8765   -8.7189    4.6550 C   0  0  2  0  0  0  0  0  0  0  0  0
    3.8011   -8.5860    1.8846 H   0  0  0  0  0  0  0  0  0  0  0  0
    4.2035  -10.2814    1.7926 H   0  0  0  0  0  0  0  0  0  0  0  0
    5.0276   -9.2652    2.9622 H   0  0  0  0  0  0  0  0  0  0  0  0
    3.3298  -10.6997    4.0169 H   0  0  0  0  0  0  0  0  0  0  0  0
    1.5565   -9.7701    1.8570 H   0  0  0  0  0  0  0  0  0  0  0  0
    1.6000  -11.2237    2.7705 H   0  0  0  0  0  0  0  0  0  0  0  0
   -0.4633  -10.4789    3.2357 H   0  0  0  0  0  0  0  0  0  0  0  0
    0.2681  -10.0395    4.6542 H   0  0  0  0  0  0  0  0  0  0  0  0
   -2.1281   -7.5821    2.2939 H   0  0  0  0  0  0  0  0  0  0  0  0
   -2.4078   -9.1349    3.0549 H   0  0  0  0  0  0  0  0  0  0  0  0
   -1.4458   -9.0341    1.5918 H   0  0  0  0  0  0  0  0  0  0  0  0
    3.5345   -5.9784    5.3133 H   0  0  0  0  0  0  0  0  0  0  0  0
    4.0845   -6.3529    2.3835 H   0  0  0  0  0  0  0  0  0  0  0  0
    4.9930   -7.0174    3.7228 H   0  0  0  0  0  0  0  0  0  0  0  0
    4.9358   -5.2929    3.5030 H   0  0  0  0  0  0  0  0  0  0  0  0
    3.0067   -3.9740    4.4686 H   0  0  0  0  0  0  0  0  0  0  0  0
    1.4225   -4.9971    2.1052 H   0  0  0  0  0  0  0  0  0  0  0  0
    3.0814   -4.4118    2.0246 H   0  0  0  0  0  0  0  0  0  0  0  0
    1.8288   -3.3259    2.4830 H   0  0  0  0  0  0  0  0  0  0  0  0
    1.1904   -4.6807    5.9587 H   0  0  0  0  0  0  0  0  0  0  0  0
    0.0875   -2.8787    3.7940 H   0  0  0  0  0  0  0  0  0  0  0  0
    0.6780   -2.5892    6.7669 H   0  0  0  0  0  0  0  0  0  0  0  0
   -0.9312   -0.9768    3.6708 H   0  0  0  0  0  0  0  0  0  0  0  0
   -1.8543    1.3118    3.6523 H   0  0  0  0  0  0  0  0  0  0  0  0
   -0.6477    1.8426    7.7712 H   0  0  0  0  0  0  0  0  0  0  0  0
    0.2964   -0.4620    7.7933 H   0  0  0  0  0  0  0  0  0  0  0  0
   -0.7045   -6.3708    6.0572 H   0  0  0  0  0  0  0  0  0  0  0  0
    0.7410   -8.3434    5.7984 H   0  0  0  0  0  0  0  0  0  0  0  0
    2.3270   -6.0778    6.9706 H   0  0  0  0  0  0  0  0  0  0  0  0
    0.4558   -8.1388    8.2037 H   0  0  0  0  0  0  0  0  0  0  0  0
    0.2118   -6.3913    8.1400 H   0  0  0  0  0  0  0  0  0  0  0  0
    1.5311   -7.0543    9.0631 H   0  0  0  0  0  0  0  0  0  0  0  0
    3.7925   -7.7076    7.8022 H   0  0  0  0  0  0  0  0  0  0  0  0
    2.6713   -9.0014    7.6344 H   0  0  0  0  0  0  0  0  0  0  0  0
    4.6809   -7.9653    5.6341 H   0  0  0  0  0  0  0  0  0  0  0  0
    4.2958   -9.5920    6.0588 H   0  0  0  0  0  0  0  0  0  0  0  0
    2.2282   -9.3970    5.1941 H   0  0  0  0  0  0  0  0  0  0  0  0
  1  2  1  0
  1 33  1  0
  1 34  1  0
  1 35  1  0
  2 32  1  0
  2  3  1  0
  2 36  1  1
  3  4  1  0
  3 37  1  0
  3 38  1  0
  4  5  1  0
  4 39  1  0
  4 40  1  0
  5 26  1  0
  5  6  1  6
  5  7  1  0
  6 41  1  0
  6 42  1  0
  6 43  1  0
  7  8  1  0
  9  8  1  6
  9 27  1  0
  9 32  1  0
  9 10  1  0
 10 11  1  0
 10 12  1  0
 10 44  1  1
 11 45  1  0
 11 46  1  0
 11 47  1  0
 12 13  1  0
 12 14  1  0
 12 48  1  1
 13 49  1  0
 13 50  1  0
 13 51  1  0
 14 15  1  0
 14 24  1  0
 14 52  1  1
 15 16  2  3
 15 53  1  0
 16 17  1  0
 16 54  1  0
 17 23  1  0
 17 18  2  0
 18 19  1  0
 18 55  1  0
 19 20  2  0
 19 56  1  0
 20 21  1  0
 20 22  1  0
 22 23  2  0
 22 57  1  0
 23 58  1  0
 24 25  1  0
 25 26  1  0
 25 27  1  0
 25 59  1  1
 27 28  1  0
 27 60  1  1
 28 29  1  0
 28 30  1  0
 28 61  1  6
 29 62  1  0
 29 63  1  0
 29 64  1  0
 30 31  1  0
 30 65  1  0
 30 66  1  0
 31 32  1  0
 31 67  1  0
 31 68  1  0
 32 69  1  1
M  END
>  <i_m_ct_stereo_status>  (167) 
1

>  <s_m_source_file>  (167) 
/var/tmp/pbs.5076255.sched01/tmp68k5m_u8/43t0xmz28c.sdf

>  <i_m_source_file_index>  (167) 
25

>  <i_lp_mmshare_version>  (167) 
48012

>  <i_f3d_flags>  (167) 
0

>  <s_epik_input>  (167) 
W0NIM11bQ0BIXTFbQ0gyXVtDSDJdW0NAQEhdMltDQEhdKFtDSDNdKVtDSDJdW0NIMl1bQ0BdKFtDSDNdKShPTzMpT1tDQEBIXShbQ0BIXTFbQ0BAXTIzNClPW0NAQEhdKFtDQEhdKFtDSDNdKVtDQEBIXTRbQ0gzXSkvW0NIXT1bQ0hdL2M1W2NIXVtjSF1jKEYpW2NIXVtjSF01

>  <s_epik_cmdline>  (167) 
J2VwaWtfcHl0aG9uJywgJy1waHQnLCAnMi4wJywgJy1waCcsICc3LjAnLCAnLXRuJywgJzgnLCAnLW1hJywgJzIwMCcsICctaW1hZScsICc8aW5maWxlLm1hZT4nLCAnLW9tYWUnLCAnPG91dGZpbGUubWFlPic=

>  <r_lp_tautomer_probability>  (167) 
1

>  <r_epik_Ionization_Penalty>  (167) 
4.06515e-14

>  <r_epik_Ionization_Penalty_Charging>  (167) 
0

>  <r_epik_Ionization_Penalty_Neutral>  (167) 
4.06515e-14

>  <r_epik_State_Penalty>  (167) 
-0

>  <r_epik_Charging_Adjusted_Penalty>  (167) 
0

>  <i_epik_Tot_Q>  (167) 
0

>  <i_epik_Tot_abs_Q>  (167) 
0

>  <s_epik_Chemistry_Notes>  (167) 
This compound contains an acetal/aminal-like group ( X-CH(R)-Y where X, Y are N, S, or O) that may be acid/base labile, releasing an aldehyde.

>  <s_lp_Force_Field>  (167) 
OPLS3e

>  <r_lp_Energy>  (167) 
103.952

>  <b_lp_Chiralities_Consistent>  (167) 
1

>  <s_lp_Variant>  (167) 
47:0-1

>  <s_i_glide_gridfile>  (167) 
pfpi4k_grid

>  <i_i_glide_lignum>  (167) 
25

>  <i_i_glide_rotatable_bonds>  (167) 
2

>  <r_i_docking_score>  (167) 
-2.30271

>  <r_i_glide_ligand_efficiency>  (167) 
-0.0719597

>  <r_i_glide_ligand_efficiency_sa>  (167) 
-0.228458

>  <r_i_glide_ligand_efficiency_ln>  (167) 
-0.51564

>  <r_i_glide_gscore>  (167) 
-2.30271

>  <r_i_glide_lipo>  (167) 
-0.21104

>  <r_i_glide_hbond>  (167) 
0

>  <r_i_glide_metal>  (167) 
-0

>  <r_i_glide_rewards>  (167) 
-0.416878

>  <r_i_glide_evdw>  (167) 
-28.8039

>  <r_i_glide_ecoul>  (167) 
-2.49171

>  <r_i_glide_erotb>  (167) 
0.202389

>  <r_i_glide_esite>  (167) 
-0.0632322

>  <r_i_glide_emodel>  (167) 
-35.4181

>  <r_i_glide_energy>  (167) 
-31.2956

>  <r_i_glide_einternal>  (167) 
0.037638

>  <r_i_glide_intrahb_reward>  (167) 
-0

>  <i_i_glide_confnum>  (167) 
1

>  <i_i_glide_posenum>  (167) 
14

>  <r_i_glide_eff_state_penalty>  (167) 
0

>  <ligand_id>  (167) 
47

>  <original_smiles>  (167) 
CC1CCC2(C)OOC34C(C)C(C)C(C=Cc5ccc(F)cc5)OC(O2)C3C(C)CCC14

>  <smiles>  (167) 
[H]C(=C([H])C1([H])OC2([H])OC3(C([H])([H])[H])OOC4(C([H])(C([H])([H])[H])C1([H])C([H])([H])[H])C2([H])C([H])(C([H])([H])[H])C([H])([H])C([H])([H])C4([H])C([H])(C([H])([H])[H])C([H])([H])C3([H])[H])c1c([H])c([H])c(F)c([H])c1[H]

$$$$
47:0:2
     RDKit          3D

 69 73  0  0  1  0  0  0  0  0999 V2000
    4.6984   -8.9037    1.0390 C   0  0  0  0  0  0  0  0  0  0  0  0
    3.9377   -9.0316    2.3623 C   0  0  2  0  0  0  0  0  0  0  0  0
    2.4484   -9.5013    2.1562 C   0  0  0  0  0  0  0  0  0  0  0  0
    1.3218   -9.0000    3.1225 C   0  0  0  0  0  0  0  0  0  0  0  0
    0.5848   -7.6260    2.8401 C   0  0  2  0  0  0  0  0  0  0  0  0
   -0.8655   -7.9765    2.3974 C   0  0  0  0  0  0  0  0  0  0  0  0
    1.0272   -6.8803    1.7207 O   0  0  0  0  0  0  0  0  0  0  0  0
    2.5865   -6.8831    1.6652 O   0  0  0  0  0  0  0  0  0  0  0  0
    3.2225   -6.5191    2.9182 C   0  0  1  0  0  0  0  0  0  0  0  0
    4.0549   -5.2604    2.4575 C   0  0  1  0  0  0  0  0  0  0  0  0
    5.0482   -5.5322    1.2923 C   0  0  0  0  0  0  0  0  0  0  0  0
    3.2116   -3.9707    2.1699 C   0  0  1  0  0  0  0  0  0  0  0  0
    2.6514   -3.8863    0.7225 C   0  0  0  0  0  0  0  0  0  0  0  0
    2.1266   -3.6544    3.2488 C   0  0  1  0  0  0  0  0  0  0  0  0
    1.4511   -2.2945    3.0584 C   0  0  0  0  0  0  0  0  0  0  0  0
    1.2094   -1.4204    4.0310 C   0  0  0  0  0  0  0  0  0  0  0  0
    0.5825   -0.0836    3.8774 C   0  0  0  0  0  0  0  0  0  0  0  0
    0.2627    0.4743    2.6094 C   0  0  0  0  0  0  0  0  0  0  0  0
   -0.3670    1.7469    2.5124 C   0  0  0  0  0  0  0  0  0  0  0  0
   -0.6891    2.4757    3.6880 C   0  0  0  0  0  0  0  0  0  0  0  0
   -1.2957    3.6963    3.6106 F   0  0  0  0  0  0  0  0  0  0  0  0
   -0.3840    1.9249    4.9481 C   0  0  0  0  0  0  0  0  0  0  0  0
    0.2454    0.6467    5.0384 C   0  0  0  0  0  0  0  0  0  0  0  0
    1.1580   -4.6959    3.1834 O   0  0  0  0  0  0  0  0  0  0  0  0
    1.1884   -5.6751    4.1907 C   0  0  1  0  0  0  0  0  0  0  0  0
    0.2920   -6.7486    3.9542 O   0  0  0  0  0  0  0  0  0  0  0  0
    2.5791   -6.3029    4.3272 C   0  0  2  0  0  0  0  0  0  0  0  0
    3.6242   -5.7594    5.3750 C   0  0  1  0  0  0  0  0  0  0  0  0
    3.0345   -5.6360    6.8015 C   0  0  0  0  0  0  0  0  0  0  0  0
    4.8397   -6.7586    5.4503 C   0  0  0  0  0  0  0  0  0  0  0  0
    5.3012   -7.4736    4.1384 C   0  0  0  0  0  0  0  0  0  0  0  0
    4.0681   -7.7845    3.2671 C   0  0  2  0  0  0  0  0  0  0  0  0
    4.2526   -8.1691    0.3721 H   0  0  0  0  0  0  0  0  0  0  0  0
    4.6931   -9.8587    0.5149 H   0  0  0  0  0  0  0  0  0  0  0  0
    5.7407   -8.6333    1.2025 H   0  0  0  0  0  0  0  0  0  0  0  0
    4.4337   -9.8490    2.8921 H   0  0  0  0  0  0  0  0  0  0  0  0
    2.1331   -9.3212    1.1305 H   0  0  0  0  0  0  0  0  0  0  0  0
    2.4726  -10.5912    2.2292 H   0  0  0  0  0  0  0  0  0  0  0  0
    0.5569   -9.7794    3.0854 H   0  0  0  0  0  0  0  0  0  0  0  0
    1.6093   -9.0819    4.1661 H   0  0  0  0  0  0  0  0  0  0  0  0
   -1.4276   -7.0818    2.1306 H   0  0  0  0  0  0  0  0  0  0  0  0
   -1.4334   -8.4810    3.1850 H   0  0  0  0  0  0  0  0  0  0  0  0
   -0.8934   -8.6364    1.5267 H   0  0  0  0  0  0  0  0  0  0  0  0
    4.7423   -4.9708    3.2427 H   0  0  0  0  0  0  0  0  0  0  0  0
    4.5489   -5.8726    0.3823 H   0  0  0  0  0  0  0  0  0  0  0  0
    5.7972   -6.2838    1.5381 H   0  0  0  0  0  0  0  0  0  0  0  0
    5.6060   -4.6260    1.0413 H   0  0  0  0  0  0  0  0  0  0  0  0
    3.9245   -3.1478    2.2258 H   0  0  0  0  0  0  0  0  0  0  0  0
    1.8415   -4.5954    0.5619 H   0  0  0  0  0  0  0  0  0  0  0  0
    3.4048   -4.0547   -0.0429 H   0  0  0  0  0  0  0  0  0  0  0  0
    2.2824   -2.8918    0.4740 H   0  0  0  0  0  0  0  0  0  0  0  0
    2.5687   -3.5752    4.2349 H   0  0  0  0  0  0  0  0  0  0  0  0
    1.1447   -2.0259    2.0635 H   0  0  0  0  0  0  0  0  0  0  0  0
    1.4949   -1.6733    5.0398 H   0  0  0  0  0  0  0  0  0  0  0  0
    0.4951   -0.0242    1.6795 H   0  0  0  0  0  0  0  0  0  0  0  0
   -0.5767    2.1518    1.5359 H   0  0  0  0  0  0  0  0  0  0  0  0
   -0.6221    2.4759    5.8503 H   0  0  0  0  0  0  0  0  0  0  0  0
    0.4684    0.2455    6.0166 H   0  0  0  0  0  0  0  0  0  0  0  0
    0.8443   -5.2331    5.1198 H   0  0  0  0  0  0  0  0  0  0  0  0
    2.2768   -7.2055    4.8382 H   0  0  0  0  0  0  0  0  0  0  0  0
    3.9992   -4.7714    5.1473 H   0  0  0  0  0  0  0  0  0  0  0  0
    2.6030   -6.5698    7.1633 H   0  0  0  0  0  0  0  0  0  0  0  0
    2.2703   -4.8642    6.8598 H   0  0  0  0  0  0  0  0  0  0  0  0
    3.8107   -5.3494    7.5126 H   0  0  0  0  0  0  0  0  0  0  0  0
    5.7054   -6.2196    5.8467 H   0  0  0  0  0  0  0  0  0  0  0  0
    4.6385   -7.5206    6.1996 H   0  0  0  0  0  0  0  0  0  0  0  0
    6.0249   -6.8668    3.6000 H   0  0  0  0  0  0  0  0  0  0  0  0
    5.8348   -8.3889    4.3874 H   0  0  0  0  0  0  0  0  0  0  0  0
    3.6074   -8.3526    4.0649 H   0  0  0  0  0  0  0  0  0  0  0  0
  1  2  1  0
  1 33  1  0
  1 34  1  0
  1 35  1  0
  2 32  1  0
  2  3  1  0
  2 36  1  1
  3  4  1  0
  3 37  1  0
  3 38  1  0
  4  5  1  0
  4 39  1  0
  4 40  1  0
  5 26  1  0
  5  6  1  6
  5  7  1  0
  6 41  1  0
  6 42  1  0
  6 43  1  0
  7  8  1  0
  9  8  1  6
  9 27  1  0
  9 32  1  0
  9 10  1  0
 10 11  1  0
 10 12  1  0
 10 44  1  1
 11 45  1  0
 11 46  1  0
 11 47  1  0
 12 13  1  0
 12 14  1  0
 12 48  1  6
 13 49  1  0
 13 50  1  0
 13 51  1  0
 14 15  1  0
 14 24  1  0
 14 52  1  1
 15 16  2  3
 15 53  1  0
 16 17  1  0
 16 54  1  0
 17 23  1  0
 17 18  2  0
 18 19  1  0
 18 55  1  0
 19 20  2  0
 19 56  1  0
 20 21  1  0
 20 22  1  0
 22 23  2  0
 22 57  1  0
 23 58  1  0
 24 25  1  0
 25 26  1  0
 25 27  1  0
 25 59  1  1
 27 28  1  0
 27 60  1  1
 28 29  1  0
 28 30  1  0
 28 61  1  6
 29 62  1  0
 29 63  1  0
 29 64  1  0
 30 31  1  0
 30 65  1  0
 30 66  1  0
 31 32  1  0
 31 67  1  0
 31 68  1  0
 32 69  1  1
M  END
>  <i_m_ct_stereo_status>  (168) 
1

>  <s_m_source_file>  (168) 
/var/tmp/pbs.5076255.sched01/tmp68k5m_u8/43t0xmz28c.sdf

>  <i_m_source_file_index>  (168) 
25

>  <i_lp_mmshare_version>  (168) 
48012

>  <i_f3d_flags>  (168) 
0

>  <s_epik_input>  (168) 
W0NIM11bQ0BIXTFbQ0gyXVtDSDJdW0NAQEhdMltDQEhdKFtDSDNdKVtDSDJdW0NIMl1bQ0BdKFtDSDNdKShPTzMpT1tDQEBIXShbQ0BIXTFbQ0BAXTIzNClPW0NAQEhdKFtDQEhdKFtDSDNdKVtDQEBIXTRbQ0gzXSkvW0NIXT1bQ0hdL2M1W2NIXVtjSF1jKEYpW2NIXVtjSF01

>  <s_epik_cmdline>  (168) 
J2VwaWtfcHl0aG9uJywgJy1waHQnLCAnMi4wJywgJy1waCcsICc3LjAnLCAnLXRuJywgJzgnLCAnLW1hJywgJzIwMCcsICctaW1hZScsICc8aW5maWxlLm1hZT4nLCAnLW9tYWUnLCAnPG91dGZpbGUubWFlPic=

>  <r_lp_tautomer_probability>  (168) 
1

>  <r_epik_Ionization_Penalty>  (168) 
4.06515e-14

>  <r_epik_Ionization_Penalty_Charging>  (168) 
0

>  <r_epik_Ionization_Penalty_Neutral>  (168) 
4.06515e-14

>  <r_epik_State_Penalty>  (168) 
-0

>  <r_epik_Charging_Adjusted_Penalty>  (168) 
0

>  <i_epik_Tot_Q>  (168) 
0

>  <i_epik_Tot_abs_Q>  (168) 
0

>  <s_epik_Chemistry_Notes>  (168) 
This compound contains an acetal/aminal-like group ( X-CH(R)-Y where X, Y are N, S, or O) that may be acid/base labile, releasing an aldehyde.

>  <s_lp_Force_Field>  (168) 
OPLS3e

>  <r_lp_Energy>  (168) 
103.952

>  <b_lp_Chiralities_Consistent>  (168) 
1

>  <s_lp_Variant>  (168) 
47:0-1

>  <s_i_glide_gridfile>  (168) 
pfpi4k_grid

>  <i_i_glide_lignum>  (168) 
25

>  <i_i_glide_rotatable_bonds>  (168) 
2

>  <r_i_docking_score>  (168) 
-1.98447

>  <r_i_glide_ligand_efficiency>  (168) 
-0.0620147

>  <r_i_glide_ligand_efficiency_sa>  (168) 
-0.196885

>  <r_i_glide_ligand_efficiency_ln>  (168) 
-0.444377

>  <r_i_glide_gscore>  (168) 
-1.98447

>  <r_i_glide_lipo>  (168) 
-0.0863272

>  <r_i_glide_hbond>  (168) 
0

>  <r_i_glide_metal>  (168) 
-0

>  <r_i_glide_rewards>  (168) 
-0.377873

>  <r_i_glide_evdw>  (168) 
-28.8949

>  <r_i_glide_ecoul>  (168) 
-0.997596

>  <r_i_glide_erotb>  (168) 
0.202389

>  <r_i_glide_esite>  (168) 
-0.128279

>  <r_i_glide_emodel>  (168) 
-32.9274

>  <r_i_glide_energy>  (168) 
-29.8925

>  <r_i_glide_einternal>  (168) 
0.754878

>  <r_i_glide_intrahb_reward>  (168) 
-0

>  <i_i_glide_confnum>  (168) 
4

>  <i_i_glide_posenum>  (168) 
21

>  <r_i_glide_eff_state_penalty>  (168) 
0

>  <ligand_id>  (168) 
47

>  <original_smiles>  (168) 
CC1CCC2(C)OOC34C(C)C(C)C(C=Cc5ccc(F)cc5)OC(O2)C3C(C)CCC14

>  <smiles>  (168) 
[H]C(=C([H])C1([H])OC2([H])OC3(C([H])([H])[H])OOC4(C([H])(C([H])([H])[H])C1([H])C([H])([H])[H])C2([H])C([H])(C([H])([H])[H])C([H])([H])C([H])([H])C4([H])C([H])(C([H])([H])[H])C([H])([H])C3([H])[H])c1c([H])c([H])c(F)c([H])c1[H]

$$$$
47:1:0
     RDKit          3D

 69 73  0  0  1  0  0  0  0  0999 V2000
   -0.4288    5.2027    6.4050 C   0  0  0  0  0  0  0  0  0  0  0  0
   -1.1604    3.9092    6.7975 C   0  0  2  0  0  0  0  0  0  0  0  0
   -1.0952    3.6330    8.3546 C   0  0  0  0  0  0  0  0  0  0  0  0
   -1.0130    2.1561    8.8946 C   0  0  0  0  0  0  0  0  0  0  0  0
    0.3979    1.4210    9.0443 C   0  0  2  0  0  0  0  0  0  0  0  0
    0.6952    1.3002   10.5502 C   0  0  0  0  0  0  0  0  0  0  0  0
    1.5257    2.0945    8.5045 O   0  0  0  0  0  0  0  0  0  0  0  0
    1.1354    2.8425    7.2739 O   0  0  0  0  0  0  0  0  0  0  0  0
    0.6161    2.0253    6.2035 C   0  0  1  0  0  0  0  0  0  0  0  0
    1.7026    2.1536    5.0666 C   0  0  1  0  0  0  0  0  0  0  0  0
    1.9556    3.5985    4.5864 C   0  0  0  0  0  0  0  0  0  0  0  0
    3.0544    1.3980    5.3314 C   0  0  1  0  0  0  0  0  0  0  0  0
    4.1172    2.2033    6.1135 C   0  0  0  0  0  0  0  0  0  0  0  0
    2.9033   -0.0308    5.9322 C   0  0  1  0  0  0  0  0  0  0  0  0
    4.2085   -0.8368    5.9339 C   0  0  0  0  0  0  0  0  0  0  0  0
    4.8868   -1.3622    4.8864 C   0  0  0  0  0  0  0  0  0  0  0  0
    4.5377   -1.3338    3.4405 C   0  0  0  0  0  0  0  0  0  0  0  0
    5.5569   -1.1469    2.4809 C   0  0  0  0  0  0  0  0  0  0  0  0
    5.2439   -1.0620    1.0963 C   0  0  0  0  0  0  0  0  0  0  0  0
    3.9058   -1.1309    0.6765 C   0  0  0  0  0  0  0  0  0  0  0  0
    3.6052   -1.0580   -0.6442 F   0  0  0  0  0  0  0  0  0  0  0  0
    2.8820   -1.3120    1.6275 C   0  0  0  0  0  0  0  0  0  0  0  0
    3.2050   -1.4581    2.9859 C   0  0  0  0  0  0  0  0  0  0  0  0
    2.3401    0.0516    7.2415 O   0  0  0  0  0  0  0  0  0  0  0  0
    0.9662   -0.2519    7.3522 C   0  0  1  0  0  0  0  0  0  0  0  0
    0.4244    0.0375    8.6284 O   0  0  0  0  0  0  0  0  0  0  0  0
    0.1155    0.5383    6.3509 C   0  0  2  0  0  0  0  0  0  0  0  0
   -0.3272   -0.0740    4.9661 C   0  0  1  0  0  0  0  0  0  0  0  0
   -0.9279   -1.4896    5.0723 C   0  0  0  0  0  0  0  0  0  0  0  0
   -1.3920    0.8638    4.2867 C   0  0  0  0  0  0  0  0  0  0  0  0
   -1.2903    2.4083    4.5145 C   0  0  0  0  0  0  0  0  0  0  0  0
   -0.7683    2.6873    5.9313 C   0  0  2  0  0  0  0  0  0  0  0  0
    0.6352    5.1626    6.6360 H   0  0  0  0  0  0  0  0  0  0  0  0
   -0.8399    6.0573    6.9412 H   0  0  0  0  0  0  0  0  0  0  0  0
   -0.5328    5.4005    5.3379 H   0  0  0  0  0  0  0  0  0  0  0  0
   -2.2106    4.0939    6.5798 H   0  0  0  0  0  0  0  0  0  0  0  0
   -0.2716    4.1963    8.7962 H   0  0  0  0  0  0  0  0  0  0  0  0
   -1.9870    4.0865    8.7784 H   0  0  0  0  0  0  0  0  0  0  0  0
   -1.4417    2.2118    9.8963 H   0  0  0  0  0  0  0  0  0  0  0  0
   -1.7563    1.5211    8.4173 H   0  0  0  0  0  0  0  0  0  0  0  0
    1.6766    0.8611   10.7169 H   0  0  0  0  0  0  0  0  0  0  0  0
   -0.0365    0.6676   11.0620 H   0  0  0  0  0  0  0  0  0  0  0  0
    0.6805    2.2698   11.0504 H   0  0  0  0  0  0  0  0  0  0  0  0
    1.3125    1.7001    4.1575 H   0  0  0  0  0  0  0  0  0  0  0  0
    2.3410    4.2298    5.3863 H   0  0  0  0  0  0  0  0  0  0  0  0
    1.0588    4.0788    4.1999 H   0  0  0  0  0  0  0  0  0  0  0  0
    2.6809    3.6128    3.7714 H   0  0  0  0  0  0  0  0  0  0  0  0
    3.4897    1.2696    4.3403 H   0  0  0  0  0  0  0  0  0  0  0  0
    3.8391    2.3110    7.1594 H   0  0  0  0  0  0  0  0  0  0  0  0
    4.2940    3.1895    5.6911 H   0  0  0  0  0  0  0  0  0  0  0  0
    5.0792    1.6935    6.0778 H   0  0  0  0  0  0  0  0  0  0  0  0
    2.2163   -0.6182    5.3538 H   0  0  0  0  0  0  0  0  0  0  0  0
    4.6419   -0.9906    6.9131 H   0  0  0  0  0  0  0  0  0  0  0  0
    5.7979   -1.8927    5.1149 H   0  0  0  0  0  0  0  0  0  0  0  0
    6.5967   -1.0685    2.7772 H   0  0  0  0  0  0  0  0  0  0  0  0
    6.0223   -0.9369    0.3659 H   0  0  0  0  0  0  0  0  0  0  0  0
    1.8424   -1.3739    1.3278 H   0  0  0  0  0  0  0  0  0  0  0  0
    2.3944   -1.7153    3.6466 H   0  0  0  0  0  0  0  0  0  0  0  0
    0.8527   -1.3271    7.2259 H   0  0  0  0  0  0  0  0  0  0  0  0
   -0.8326    0.4239    6.8662 H   0  0  0  0  0  0  0  0  0  0  0  0
    0.4987   -0.1819    4.2644 H   0  0  0  0  0  0  0  0  0  0  0  0
   -1.7756   -1.5418    5.7560 H   0  0  0  0  0  0  0  0  0  0  0  0
   -0.1887   -2.2217    5.3889 H   0  0  0  0  0  0  0  0  0  0  0  0
   -1.2823   -1.8238    4.0978 H   0  0  0  0  0  0  0  0  0  0  0  0
   -1.4086    0.6833    3.2128 H   0  0  0  0  0  0  0  0  0  0  0  0
   -2.3843    0.5559    4.6239 H   0  0  0  0  0  0  0  0  0  0  0  0
   -0.6680    2.8708    3.7550 H   0  0  0  0  0  0  0  0  0  0  0  0
   -2.2777    2.8555    4.3841 H   0  0  0  0  0  0  0  0  0  0  0  0
   -1.5686    2.1258    6.3898 H   0  0  0  0  0  0  0  0  0  0  0  0
  1  2  1  0
  1 33  1  0
  1 34  1  0
  1 35  1  0
  2 32  1  0
  2  3  1  0
  2 36  1  6
  3  4  1  0
  3 37  1  0
  3 38  1  0
  4  5  1  0
  4 39  1  0
  4 40  1  0
  5 26  1  0
  5  6  1  1
  5  7  1  0
  6 41  1  0
  6 42  1  0
  6 43  1  0
  7  8  1  0
  9  8  1  1
  9 27  1  0
  9 32  1  0
  9 10  1  0
 10 11  1  0
 10 12  1  0
 10 44  1  6
 11 45  1  0
 11 46  1  0
 11 47  1  0
 12 13  1  0
 12 14  1  0
 12 48  1  6
 13 49  1  0
 13 50  1  0
 13 51  1  0
 14 15  1  0
 14 24  1  0
 14 52  1  6
 15 16  2  3
 15 53  1  0
 16 17  1  0
 16 54  1  0
 17 23  1  0
 17 18  2  0
 18 19  1  0
 18 55  1  0
 19 20  2  0
 19 56  1  0
 20 21  1  0
 20 22  1  0
 22 23  2  0
 22 57  1  0
 23 58  1  0
 24 25  1  0
 25 26  1  0
 25 27  1  0
 25 59  1  6
 27 28  1  0
 27 60  1  1
 28 29  1  0
 28 30  1  0
 28 61  1  6
 29 62  1  0
 29 63  1  0
 29 64  1  0
 30 31  1  0
 30 65  1  0
 30 66  1  0
 31 32  1  0
 31 67  1  0
 31 68  1  0
 32 69  1  1
M  END
>  <i_m_ct_stereo_status>  (169) 
1

>  <s_m_source_file>  (169) 
/var/tmp/pbs.5076255.sched01/tmp68k5m_u8/43t0xmz28c.sdf

>  <i_m_source_file_index>  (169) 
26

>  <i_lp_mmshare_version>  (169) 
48012

>  <i_f3d_flags>  (169) 
0

>  <s_epik_input>  (169) 
W0NIM11bQ0BIXTFbQ0gyXVtDSDJdW0NAQEhdMltDQEhdKFtDSDNdKVtDSDJdW0NIMl1bQ0BdKFtDSDNdKShPTzMpT1tDQEBIXShbQ0BIXTFbQ0BAXTIzNClPW0NAQEhdKFtDQEhdKFtDSDNdKVtDQEBIXTRbQ0gzXSkvW0NIXT1bQ0hdL2M1W2NIXVtjSF1jKEYpW2NIXVtjSF01

>  <s_epik_cmdline>  (169) 
J2VwaWtfcHl0aG9uJywgJy1waHQnLCAnMi4wJywgJy1waCcsICc3LjAnLCAnLXRuJywgJzgnLCAnLW1hJywgJzIwMCcsICctaW1hZScsICc8aW5maWxlLm1hZT4nLCAnLW9tYWUnLCAnPG91dGZpbGUubWFlPic=

>  <r_lp_tautomer_probability>  (169) 
1

>  <r_epik_Ionization_Penalty>  (169) 
4.06515e-14

>  <r_epik_Ionization_Penalty_Charging>  (169) 
0

>  <r_epik_Ionization_Penalty_Neutral>  (169) 
4.06515e-14

>  <r_epik_State_Penalty>  (169) 
-0

>  <r_epik_Charging_Adjusted_Penalty>  (169) 
0

>  <i_epik_Tot_Q>  (169) 
0

>  <i_epik_Tot_abs_Q>  (169) 
0

>  <s_epik_Chemistry_Notes>  (169) 
This compound contains an acetal/aminal-like group ( X-CH(R)-Y where X, Y are N, S, or O) that may be acid/base labile, releasing an aldehyde.

>  <s_lp_Force_Field>  (169) 
OPLS3e

>  <r_lp_Energy>  (169) 
104.089

>  <b_lp_Chiralities_Consistent>  (169) 
1

>  <s_lp_Variant>  (169) 
47:0-2

>  <s_i_glide_gridfile>  (169) 
pfpi4k_grid

>  <i_i_glide_lignum>  (169) 
26

>  <i_i_glide_rotatable_bonds>  (169) 
2

>  <r_i_docking_score>  (169) 
-1.79413

>  <r_i_glide_ligand_efficiency>  (169) 
-0.0560665

>  <r_i_glide_ligand_efficiency_sa>  (169) 
-0.178

>  <r_i_glide_ligand_efficiency_ln>  (169) 
-0.401754

>  <r_i_glide_gscore>  (169) 
-1.79413

>  <r_i_glide_lipo>  (169) 
-0.303323

>  <r_i_glide_hbond>  (169) 
0

>  <r_i_glide_metal>  (169) 
-0

>  <r_i_glide_rewards>  (169) 
-0.377873

>  <r_i_glide_evdw>  (169) 
-23.2207

>  <r_i_glide_ecoul>  (169) 
-0.410227

>  <r_i_glide_erotb>  (169) 
0.202389

>  <r_i_glide_esite>  (169) 
-0.0927544

>  <r_i_glide_emodel>  (169) 
-24.051

>  <r_i_glide_energy>  (169) 
-23.6309

>  <r_i_glide_einternal>  (169) 
3.56547

>  <r_i_glide_intrahb_reward>  (169) 
-0

>  <i_i_glide_confnum>  (169) 
1

>  <i_i_glide_posenum>  (169) 
5

>  <r_i_glide_eff_state_penalty>  (169) 
0

>  <ligand_id>  (169) 
47

>  <original_smiles>  (169) 
CC1CCC2(C)OOC34C(C)C(C)C(C=Cc5ccc(F)cc5)OC(O2)C3C(C)CCC14

>  <smiles>  (169) 
[H]C(=C([H])C1([H])OC2([H])OC3(C([H])([H])[H])OOC4(C([H])(C([H])([H])[H])C1([H])C([H])([H])[H])C2([H])C([H])(C([H])([H])[H])C([H])([H])C([H])([H])C4([H])C([H])(C([H])([H])[H])C([H])([H])C3([H])[H])c1c([H])c([H])c(F)c([H])c1[H]

$$$$
47:1:1
     RDKit          3D

 69 73  0  0  1  0  0  0  0  0999 V2000
    0.4306    3.6391    4.3387 C   0  0  0  0  0  0  0  0  0  0  0  0
    0.4443    2.6256    5.4946 C   0  0  2  0  0  0  0  0  0  0  0  0
    1.7190    2.7892    6.4199 C   0  0  0  0  0  0  0  0  0  0  0  0
    2.3828    1.5192    7.0827 C   0  0  0  0  0  0  0  0  0  0  0  0
    3.4817    0.6532    6.2971 C   0  0  2  0  0  0  0  0  0  0  0  0
    4.8368    0.9241    6.9805 C   0  0  0  0  0  0  0  0  0  0  0  0
    3.6698    0.9661    4.9281 O   0  0  0  0  0  0  0  0  0  0  0  0
    2.3987    1.4102    4.3406 O   0  0  0  0  0  0  0  0  0  0  0  0
    1.3562    0.4128    4.3355 C   0  0  1  0  0  0  0  0  0  0  0  0
    1.1565    0.0643    2.8081 C   0  0  1  0  0  0  0  0  0  0  0  0
    0.7568    1.2601    1.9300 C   0  0  0  0  0  0  0  0  0  0  0  0
    2.3144   -0.7657    2.1339 C   0  0  1  0  0  0  0  0  0  0  0  0
    3.4706    0.0590    1.5513 C   0  0  0  0  0  0  0  0  0  0  0  0
    2.8122   -1.9510    2.9819 C   0  0  1  0  0  0  0  0  0  0  0  0
    3.7751   -2.9015    2.2402 C   0  0  0  0  0  0  0  0  0  0  0  0
    3.5919   -4.2255    1.9335 C   0  0  0  0  0  0  0  0  0  0  0  0
    2.4773   -5.1157    2.2831 C   0  0  0  0  0  0  0  0  0  0  0  0
    2.0606   -6.1249    1.3602 C   0  0  0  0  0  0  0  0  0  0  0  0
    0.9300   -6.9373    1.6473 C   0  0  0  0  0  0  0  0  0  0  0  0
    0.1934   -6.7384    2.8374 C   0  0  0  0  0  0  0  0  0  0  0  0
   -0.9308   -7.4332    3.0884 F   0  0  0  0  0  0  0  0  0  0  0  0
    0.6256   -5.7565    3.7628 C   0  0  0  0  0  0  0  0  0  0  0  0
    1.7831   -5.0029    3.4940 C   0  0  0  0  0  0  0  0  0  0  0  0
    3.4479   -1.4490    4.1688 O   0  0  0  0  0  0  0  0  0  0  0  0
    2.7306   -1.4957    5.3741 C   0  0  1  0  0  0  0  0  0  0  0  0
    3.3596   -0.7824    6.4334 O   0  0  0  0  0  0  0  0  0  0  0  0
    1.3362   -0.8849    5.2282 C   0  0  2  0  0  0  0  0  0  0  0  0
    0.0693   -1.7907    4.9591 C   0  0  1  0  0  0  0  0  0  0  0  0
   -0.0512   -2.9914    5.9136 C   0  0  0  0  0  0  0  0  0  0  0  0
   -1.2361   -0.9256    5.1133 C   0  0  0  0  0  0  0  0  0  0  0  0
   -1.1873    0.5804    4.7071 C   0  0  0  0  0  0  0  0  0  0  0  0
    0.1862    1.1704    5.0411 C   0  0  2  0  0  0  0  0  0  0  0  0
    1.2813    3.5118    3.6680 H   0  0  0  0  0  0  0  0  0  0  0  0
    0.4738    4.6604    4.7165 H   0  0  0  0  0  0  0  0  0  0  0  0
   -0.4767    3.5403    3.7428 H   0  0  0  0  0  0  0  0  0  0  0  0
   -0.4060    2.8893    6.1222 H   0  0  0  0  0  0  0  0  0  0  0  0
    2.5043    3.3199    5.8814 H   0  0  0  0  0  0  0  0  0  0  0  0
    1.4313    3.4686    7.2185 H   0  0  0  0  0  0  0  0  0  0  0  0
    2.8724    1.9129    7.9704 H   0  0  0  0  0  0  0  0  0  0  0  0
    1.6343    0.8922    7.5643 H   0  0  0  0  0  0  0  0  0  0  0  0
    5.6344    0.4092    6.4570 H   0  0  0  0  0  0  0  0  0  0  0  0
    4.8403    0.5722    8.0146 H   0  0  0  0  0  0  0  0  0  0  0  0
    5.0761    1.9857    6.9993 H   0  0  0  0  0  0  0  0  0  0  0  0
    0.2818   -0.5692    2.7182 H   0  0  0  0  0  0  0  0  0  0  0  0
    1.5282    2.0302    1.9140 H   0  0  0  0  0  0  0  0  0  0  0  0
   -0.1689    1.7396    2.2514 H   0  0  0  0  0  0  0  0  0  0  0  0
    0.5904    0.9379    0.8984 H   0  0  0  0  0  0  0  0  0  0  0  0
    1.8350   -1.2351    1.2779 H   0  0  0  0  0  0  0  0  0  0  0  0
    4.0849    0.4908    2.3398 H   0  0  0  0  0  0  0  0  0  0  0  0
    3.1267    0.8525    0.8951 H   0  0  0  0  0  0  0  0  0  0  0  0
    4.1071   -0.5675    0.9268 H   0  0  0  0  0  0  0  0  0  0  0  0
    1.9135   -2.4804    3.1810 H   0  0  0  0  0  0  0  0  0  0  0  0
    4.7042   -2.4772    1.9368 H   0  0  0  0  0  0  0  0  0  0  0  0
    4.3868   -4.6893    1.3657 H   0  0  0  0  0  0  0  0  0  0  0  0
    2.5995   -6.2648    0.4454 H   0  0  0  0  0  0  0  0  0  0  0  0
    0.6146   -7.7053    0.9620 H   0  0  0  0  0  0  0  0  0  0  0  0
    0.0508   -5.5895    4.6590 H   0  0  0  0  0  0  0  0  0  0  0  0
    2.1387   -4.3065    4.2432 H   0  0  0  0  0  0  0  0  0  0  0  0
    2.7185   -2.5219    5.7115 H   0  0  0  0  0  0  0  0  0  0  0  0
    1.1621   -0.7135    6.2883 H   0  0  0  0  0  0  0  0  0  0  0  0
    0.0505   -2.2164    3.9574 H   0  0  0  0  0  0  0  0  0  0  0  0
   -0.0587   -2.7036    6.9621 H   0  0  0  0  0  0  0  0  0  0  0  0
    0.7697   -3.6898    5.8051 H   0  0  0  0  0  0  0  0  0  0  0  0
   -0.9660   -3.5473    5.7127 H   0  0  0  0  0  0  0  0  0  0  0  0
   -2.0408   -1.3946    4.5550 H   0  0  0  0  0  0  0  0  0  0  0  0
   -1.5524   -0.9808    6.1558 H   0  0  0  0  0  0  0  0  0  0  0  0
   -1.4361    0.7034    3.6591 H   0  0  0  0  0  0  0  0  0  0  0  0
   -1.9620    1.1241    5.2491 H   0  0  0  0  0  0  0  0  0  0  0  0
    0.1199    0.8776    6.0758 H   0  0  0  0  0  0  0  0  0  0  0  0
  1  2  1  0
  1 33  1  0
  1 34  1  0
  1 35  1  0
  2 32  1  0
  2  3  1  0
  2 36  1  1
  3  4  1  0
  3 37  1  0
  3 38  1  0
  4  5  1  0
  4 39  1  0
  4 40  1  0
  5 26  1  0
  5  6  1  1
  5  7  1  0
  6 41  1  0
  6 42  1  0
  6 43  1  0
  7  8  1  0
  9  8  1  6
  9 27  1  0
  9 32  1  0
  9 10  1  0
 10 11  1  0
 10 12  1  0
 10 44  1  1
 11 45  1  0
 11 46  1  0
 11 47  1  0
 12 13  1  0
 12 14  1  0
 12 48  1  6
 13 49  1  0
 13 50  1  0
 13 51  1  0
 14 15  1  0
 14 24  1  0
 14 52  1  1
 15 16  2  3
 15 53  1  0
 16 17  1  0
 16 54  1  0
 17 23  1  0
 17 18  2  0
 18 19  1  0
 18 55  1  0
 19 20  2  0
 19 56  1  0
 20 21  1  0
 20 22  1  0
 22 23  2  0
 22 57  1  0
 23 58  1  0
 24 25  1  0
 25 26  1  0
 25 27  1  0
 25 59  1  1
 27 28  1  0
 27 60  1  1
 28 29  1  0
 28 30  1  0
 28 61  1  6
 29 62  1  0
 29 63  1  0
 29 64  1  0
 30 31  1  0
 30 65  1  0
 30 66  1  0
 31 32  1  0
 31 67  1  0
 31 68  1  0
 32 69  1  1
M  END
>  <i_m_ct_stereo_status>  (170) 
1

>  <s_m_source_file>  (170) 
/var/tmp/pbs.5076255.sched01/tmp68k5m_u8/43t0xmz28c.sdf

>  <i_m_source_file_index>  (170) 
26

>  <i_lp_mmshare_version>  (170) 
48012

>  <i_f3d_flags>  (170) 
0

>  <s_epik_input>  (170) 
W0NIM11bQ0BIXTFbQ0gyXVtDSDJdW0NAQEhdMltDQEhdKFtDSDNdKVtDSDJdW0NIMl1bQ0BdKFtDSDNdKShPTzMpT1tDQEBIXShbQ0BIXTFbQ0BAXTIzNClPW0NAQEhdKFtDQEhdKFtDSDNdKVtDQEBIXTRbQ0gzXSkvW0NIXT1bQ0hdL2M1W2NIXVtjSF1jKEYpW2NIXVtjSF01

>  <s_epik_cmdline>  (170) 
J2VwaWtfcHl0aG9uJywgJy1waHQnLCAnMi4wJywgJy1waCcsICc3LjAnLCAnLXRuJywgJzgnLCAnLW1hJywgJzIwMCcsICctaW1hZScsICc8aW5maWxlLm1hZT4nLCAnLW9tYWUnLCAnPG91dGZpbGUubWFlPic=

>  <r_lp_tautomer_probability>  (170) 
1

>  <r_epik_Ionization_Penalty>  (170) 
4.06515e-14

>  <r_epik_Ionization_Penalty_Charging>  (170) 
0

>  <r_epik_Ionization_Penalty_Neutral>  (170) 
4.06515e-14

>  <r_epik_State_Penalty>  (170) 
-0

>  <r_epik_Charging_Adjusted_Penalty>  (170) 
0

>  <i_epik_Tot_Q>  (170) 
0

>  <i_epik_Tot_abs_Q>  (170) 
0

>  <s_epik_Chemistry_Notes>  (170) 
This compound contains an acetal/aminal-like group ( X-CH(R)-Y where X, Y are N, S, or O) that may be acid/base labile, releasing an aldehyde.

>  <s_lp_Force_Field>  (170) 
OPLS3e

>  <r_lp_Energy>  (170) 
104.089

>  <b_lp_Chiralities_Consistent>  (170) 
1

>  <s_lp_Variant>  (170) 
47:0-2

>  <s_i_glide_gridfile>  (170) 
pfpi4k_grid

>  <i_i_glide_lignum>  (170) 
26

>  <i_i_glide_rotatable_bonds>  (170) 
2

>  <r_i_docking_score>  (170) 
-1.72153

>  <r_i_glide_ligand_efficiency>  (170) 
-0.0537979

>  <r_i_glide_ligand_efficiency_sa>  (170) 
-0.170798

>  <r_i_glide_ligand_efficiency_ln>  (170) 
-0.385498

>  <r_i_glide_gscore>  (170) 
-1.72153

>  <r_i_glide_lipo>  (170) 
-0.0289436

>  <r_i_glide_hbond>  (170) 
0

>  <r_i_glide_metal>  (170) 
-0

>  <r_i_glide_rewards>  (170) 
-0.377873

>  <r_i_glide_evdw>  (170) 
-27.1999

>  <r_i_glide_ecoul>  (170) 
-0.544476

>  <r_i_glide_erotb>  (170) 
0.202389

>  <r_i_glide_esite>  (170) 
-0.0754397

>  <r_i_glide_emodel>  (170) 
-28.9303

>  <r_i_glide_energy>  (170) 
-27.7444

>  <r_i_glide_einternal>  (170) 
1.14313

>  <r_i_glide_intrahb_reward>  (170) 
-0

>  <i_i_glide_confnum>  (170) 
3

>  <i_i_glide_posenum>  (170) 
1

>  <r_i_glide_eff_state_penalty>  (170) 
0

>  <ligand_id>  (170) 
47

>  <original_smiles>  (170) 
CC1CCC2(C)OOC34C(C)C(C)C(C=Cc5ccc(F)cc5)OC(O2)C3C(C)CCC14

>  <smiles>  (170) 
[H]C(=C([H])C1([H])OC2([H])OC3(C([H])([H])[H])OOC4(C([H])(C([H])([H])[H])C1([H])C([H])([H])[H])C2([H])C([H])(C([H])([H])[H])C([H])([H])C([H])([H])C4([H])C([H])(C([H])([H])[H])C([H])([H])C3([H])[H])c1c([H])c([H])c(F)c([H])c1[H]

$$$$
47:1:2
     RDKit          3D

 69 73  0  0  1  0  0  0  0  0999 V2000
    2.0221   -4.9233    6.2383 C   0  0  0  0  0  0  0  0  0  0  0  0
    2.7129   -3.8949    7.1473 C   0  0  2  0  0  0  0  0  0  0  0  0
    2.1041   -3.8779    8.6070 C   0  0  0  0  0  0  0  0  0  0  0  0
    2.0281   -2.5340    9.4189 C   0  0  0  0  0  0  0  0  0  0  0  0
    0.7866   -1.5620    9.2569 C   0  0  2  0  0  0  0  0  0  0  0  0
   -0.0407   -1.6406   10.5585 C   0  0  0  0  0  0  0  0  0  0  0  0
   -0.1514   -1.8984    8.2535 O   0  0  0  0  0  0  0  0  0  0  0  0
    0.5618   -2.4584    7.0374 O   0  0  0  0  0  0  0  0  0  0  0  0
    1.5613   -1.5950    6.4611 C   0  0  1  0  0  0  0  0  0  0  0  0
    0.9700   -1.2944    5.0350 C   0  0  1  0  0  0  0  0  0  0  0  0
    0.7199   -2.5529    4.1645 C   0  0  0  0  0  0  0  0  0  0  0  0
   -0.2639   -0.3163    4.9994 C   0  0  1  0  0  0  0  0  0  0  0  0
   -1.6380   -1.0044    5.1602 C   0  0  0  0  0  0  0  0  0  0  0  0
   -0.1560    0.9263    5.9421 C   0  0  1  0  0  0  0  0  0  0  0  0
   -1.2562    1.9628    5.6941 C   0  0  0  0  0  0  0  0  0  0  0  0
   -1.1593    3.1882    5.1315 C   0  0  0  0  0  0  0  0  0  0  0  0
    0.0292    3.8296    4.5062 C   0  0  0  0  0  0  0  0  0  0  0  0
    0.2143    5.2171    4.6193 C   0  0  0  0  0  0  0  0  0  0  0  0
    1.3706    5.8425    4.0581 C   0  0  0  0  0  0  0  0  0  0  0  0
    2.3462    5.0564    3.4229 C   0  0  0  0  0  0  0  0  0  0  0  0
    3.4547    5.6480    2.8960 F   0  0  0  0  0  0  0  0  0  0  0  0
    2.1770    3.6721    3.3140 C   0  0  0  0  0  0  0  0  0  0  0  0
    1.0045    3.0718    3.8092 C   0  0  0  0  0  0  0  0  0  0  0  0
   -0.1565    0.4716    7.2869 O   0  0  0  0  0  0  0  0  0  0  0  0
    1.1019    0.4585    7.9276 C   0  0  1  0  0  0  0  0  0  0  0  0
    1.0676   -0.1527    9.2024 O   0  0  0  0  0  0  0  0  0  0  0  0
    2.1630   -0.3005    7.1154 C   0  0  2  0  0  0  0  0  0  0  0  0
    3.1681    0.4286    6.1429 C   0  0  1  0  0  0  0  0  0  0  0  0
    3.8694    1.6583    6.7744 C   0  0  0  0  0  0  0  0  0  0  0  0
    4.2816   -0.5768    5.6736 C   0  0  0  0  0  0  0  0  0  0  0  0
    3.8891   -2.0783    5.4705 C   0  0  0  0  0  0  0  0  0  0  0  0
    2.8347   -2.4835    6.5145 C   0  0  2  0  0  0  0  0  0  0  0  0
    0.9637   -4.6991    6.0996 H   0  0  0  0  0  0  0  0  0  0  0  0
    2.0912   -5.9225    6.6623 H   0  0  0  0  0  0  0  0  0  0  0  0
    2.4921   -4.9485    5.2521 H   0  0  0  0  0  0  0  0  0  0  0  0
    3.7380   -4.2534    7.2581 H   0  0  0  0  0  0  0  0  0  0  0  0
    1.1083   -4.3234    8.5985 H   0  0  0  0  0  0  0  0  0  0  0  0
    2.7047   -4.5759    9.1856 H   0  0  0  0  0  0  0  0  0  0  0  0
    2.0395   -2.8494   10.4627 H   0  0  0  0  0  0  0  0  0  0  0  0
    2.9732   -1.9981    9.3897 H   0  0  0  0  0  0  0  0  0  0  0  0
   -0.9468   -1.0318   10.4957 H   0  0  0  0  0  0  0  0  0  0  0  0
    0.5275   -1.2695   11.4176 H   0  0  0  0  0  0  0  0  0  0  0  0
   -0.3447   -2.6669   10.7914 H   0  0  0  0  0  0  0  0  0  0  0  0
    1.7256   -0.7882    4.4411 H   0  0  0  0  0  0  0  0  0  0  0  0
   -0.0187   -3.2161    4.6135 H   0  0  0  0  0  0  0  0  0  0  0  0
    1.6224   -3.1340    4.0047 H   0  0  0  0  0  0  0  0  0  0  0  0
    0.3598   -2.2678    3.1754 H   0  0  0  0  0  0  0  0  0  0  0  0
   -0.2841    0.0669    3.9777 H   0  0  0  0  0  0  0  0  0  0  0  0
   -1.7850   -1.3650    6.1718 H   0  0  0  0  0  0  0  0  0  0  0  0
   -1.7524   -1.8422    4.4803 H   0  0  0  0  0  0  0  0  0  0  0  0
   -2.4496   -0.3250    4.9104 H   0  0  0  0  0  0  0  0  0  0  0  0
    0.7703    1.4572    5.8204 H   0  0  0  0  0  0  0  0  0  0  0  0
   -2.2451    1.6658    6.0239 H   0  0  0  0  0  0  0  0  0  0  0  0
   -2.0594    3.7805    5.0935 H   0  0  0  0  0  0  0  0  0  0  0  0
   -0.5121    5.8405    5.1277 H   0  0  0  0  0  0  0  0  0  0  0  0
    1.4936    6.9136    4.1147 H   0  0  0  0  0  0  0  0  0  0  0  0
    2.9195    3.0506    2.8344 H   0  0  0  0  0  0  0  0  0  0  0  0
    0.8768    2.0248    3.6141 H   0  0  0  0  0  0  0  0  0  0  0  0
    1.3946    1.4925    8.1079 H   0  0  0  0  0  0  0  0  0  0  0  0
    2.8506   -0.4761    7.9302 H   0  0  0  0  0  0  0  0  0  0  0  0
    2.6901    0.8295    5.2553 H   0  0  0  0  0  0  0  0  0  0  0  0
    4.3886    1.4024    7.6978 H   0  0  0  0  0  0  0  0  0  0  0  0
    3.1664    2.4588    6.9899 H   0  0  0  0  0  0  0  0  0  0  0  0
    4.6111    2.0747    6.0925 H   0  0  0  0  0  0  0  0  0  0  0  0
    4.7197   -0.2207    4.7363 H   0  0  0  0  0  0  0  0  0  0  0  0
    5.1048   -0.5476    6.3858 H   0  0  0  0  0  0  0  0  0  0  0  0
    3.5340   -2.2532    4.4577 H   0  0  0  0  0  0  0  0  0  0  0  0
    4.7732   -2.7022    5.5750 H   0  0  0  0  0  0  0  0  0  0  0  0
    3.4732   -2.1905    7.3375 H   0  0  0  0  0  0  0  0  0  0  0  0
  1  2  1  0
  1 33  1  0
  1 34  1  0
  1 35  1  0
  2 32  1  0
  2  3  1  0
  2 36  1  1
  3  4  1  0
  3 37  1  0
  3 38  1  0
  4  5  1  0
  4 39  1  0
  4 40  1  0
  5 26  1  0
  5  6  1  1
  5  7  1  0
  6 41  1  0
  6 42  1  0
  6 43  1  0
  7  8  1  0
  9  8  1  1
  9 27  1  0
  9 32  1  0
  9 10  1  0
 10 11  1  0
 10 12  1  0
 10 44  1  6
 11 45  1  0
 11 46  1  0
 11 47  1  0
 12 13  1  0
 12 14  1  0
 12 48  1  6
 13 49  1  0
 13 50  1  0
 13 51  1  0
 14 15  1  0
 14 24  1  0
 14 52  1  6
 15 16  2  3
 15 53  1  0
 16 17  1  0
 16 54  1  0
 17 23  1  0
 17 18  2  0
 18 19  1  0
 18 55  1  0
 19 20  2  0
 19 56  1  0
 20 21  1  0
 20 22  1  0
 22 23  2  0
 22 57  1  0
 23 58  1  0
 24 25  1  0
 25 26  1  0
 25 27  1  0
 25 59  1  1
 27 28  1  0
 27 60  1  1
 28 29  1  0
 28 30  1  0
 28 61  1  6
 29 62  1  0
 29 63  1  0
 29 64  1  0
 30 31  1  0
 30 65  1  0
 30 66  1  0
 31 32  1  0
 31 67  1  0
 31 68  1  0
 32 69  1  1
M  END
>  <i_m_ct_stereo_status>  (171) 
1

>  <s_m_source_file>  (171) 
/var/tmp/pbs.5076255.sched01/tmp68k5m_u8/43t0xmz28c.sdf

>  <i_m_source_file_index>  (171) 
26

>  <i_lp_mmshare_version>  (171) 
48012

>  <i_f3d_flags>  (171) 
0

>  <s_epik_input>  (171) 
W0NIM11bQ0BIXTFbQ0gyXVtDSDJdW0NAQEhdMltDQEhdKFtDSDNdKVtDSDJdW0NIMl1bQ0BdKFtDSDNdKShPTzMpT1tDQEBIXShbQ0BIXTFbQ0BAXTIzNClPW0NAQEhdKFtDQEhdKFtDSDNdKVtDQEBIXTRbQ0gzXSkvW0NIXT1bQ0hdL2M1W2NIXVtjSF1jKEYpW2NIXVtjSF01

>  <s_epik_cmdline>  (171) 
J2VwaWtfcHl0aG9uJywgJy1waHQnLCAnMi4wJywgJy1waCcsICc3LjAnLCAnLXRuJywgJzgnLCAnLW1hJywgJzIwMCcsICctaW1hZScsICc8aW5maWxlLm1hZT4nLCAnLW9tYWUnLCAnPG91dGZpbGUubWFlPic=

>  <r_lp_tautomer_probability>  (171) 
1

>  <r_epik_Ionization_Penalty>  (171) 
4.06515e-14

>  <r_epik_Ionization_Penalty_Charging>  (171) 
0

>  <r_epik_Ionization_Penalty_Neutral>  (171) 
4.06515e-14

>  <r_epik_State_Penalty>  (171) 
-0

>  <r_epik_Charging_Adjusted_Penalty>  (171) 
0

>  <i_epik_Tot_Q>  (171) 
0

>  <i_epik_Tot_abs_Q>  (171) 
0

>  <s_epik_Chemistry_Notes>  (171) 
This compound contains an acetal/aminal-like group ( X-CH(R)-Y where X, Y are N, S, or O) that may be acid/base labile, releasing an aldehyde.

>  <s_lp_Force_Field>  (171) 
OPLS3e

>  <r_lp_Energy>  (171) 
104.089

>  <b_lp_Chiralities_Consistent>  (171) 
1

>  <s_lp_Variant>  (171) 
47:0-2

>  <s_i_glide_gridfile>  (171) 
pfpi4k_grid

>  <i_i_glide_lignum>  (171) 
26

>  <i_i_glide_rotatable_bonds>  (171) 
2

>  <r_i_docking_score>  (171) 
-1.71277

>  <r_i_glide_ligand_efficiency>  (171) 
-0.053524

>  <r_i_glide_ligand_efficiency_sa>  (171) 
-0.169928

>  <r_i_glide_ligand_efficiency_ln>  (171) 
-0.383535

>  <r_i_glide_gscore>  (171) 
-1.71277

>  <r_i_glide_lipo>  (171) 
-0.0393131

>  <r_i_glide_hbond>  (171) 
-0.118697

>  <r_i_glide_metal>  (171) 
-0

>  <r_i_glide_rewards>  (171) 
-0.385356

>  <r_i_glide_evdw>  (171) 
-20.546

>  <r_i_glide_ecoul>  (171) 
-2.08963

>  <r_i_glide_erotb>  (171) 
0.202389

>  <r_i_glide_esite>  (171) 
-0.0310465

>  <r_i_glide_emodel>  (171) 
-24.312

>  <r_i_glide_energy>  (171) 
-22.6356

>  <r_i_glide_einternal>  (171) 
0.845653

>  <r_i_glide_intrahb_reward>  (171) 
-0

>  <i_i_glide_confnum>  (171) 
1

>  <i_i_glide_posenum>  (171) 
19

>  <r_i_glide_eff_state_penalty>  (171) 
0

>  <ligand_id>  (171) 
47

>  <original_smiles>  (171) 
CC1CCC2(C)OOC34C(C)C(C)C(C=Cc5ccc(F)cc5)OC(O2)C3C(C)CCC14

>  <smiles>  (171) 
[H]C(=C([H])C1([H])OC2([H])OC3(C([H])([H])[H])OOC4(C([H])(C([H])([H])[H])C1([H])C([H])([H])[H])C2([H])C([H])(C([H])([H])[H])C([H])([H])C([H])([H])C4([H])C([H])(C([H])([H])[H])C([H])([H])C3([H])[H])c1c([H])c([H])c(F)c([H])c1[H]

$$$$
50:0:0
     RDKit          3D

 73 77  0  0  1  0  0  0  0  0999 V2000
    1.5750   -6.2916    5.7322 C   0  0  0  0  0  0  0  0  0  0  0  0
    2.3906   -7.1290    4.7299 C   0  0  2  0  0  0  0  0  0  0  0  0
    3.7893   -7.4581    5.2908 C   0  0  0  0  0  0  0  0  0  0  0  0
    4.9437   -6.7657    4.5688 C   0  0  0  0  0  0  0  0  0  0  0  0
    4.8902   -6.9627    3.0269 C   0  0  2  0  0  0  0  0  0  0  0  0
    4.8243   -8.5006    2.7226 C   0  0  0  0  0  0  0  0  0  0  0  0
    4.8277   -8.8225    1.3411 O   0  0  0  0  0  0  0  0  0  0  0  0
    6.2252   -6.4424    2.4114 C   0  0  0  0  0  0  0  0  0  0  0  0
    6.2657   -4.9971    1.8912 C   0  0  0  0  0  0  0  0  0  0  0  0
    5.0624   -4.6185    0.9852 C   0  0  2  0  0  0  0  0  0  0  0  0
    5.0666   -5.6209   -0.2022 C   0  0  0  0  0  0  0  0  0  0  0  0
    5.1873   -3.1263    0.4140 C   0  0  1  0  0  0  0  0  0  0  0  0
    6.3868   -2.7411   -0.5428 C   0  0  1  0  0  0  0  0  0  0  0  0
    7.6655   -3.1801   -0.1382 O   0  0  0  0  0  0  0  0  0  0  0  0
    6.1824   -3.0484   -2.0377 C   0  0  0  0  0  0  0  0  0  0  0  0
    4.8576   -2.5127   -2.5065 C   0  0  0  0  0  0  0  0  0  0  0  0
    4.5861   -1.8041   -3.6012 C   0  0  0  0  0  0  0  0  0  0  0  0
    3.1424   -1.5236   -3.7906 C   0  0  0  0  0  0  0  0  0  0  0  0
    2.5499   -2.0161   -2.4665 C   0  0  0  0  0  0  0  0  0  0  0  0
    3.6389   -2.8034   -1.6888 C   0  0  2  0  0  0  0  0  0  0  0  0
    3.8547   -2.4795   -0.1613 C   0  0  2  0  0  0  0  0  0  0  0  0
    3.9416   -0.9389    0.0753 C   0  0  0  0  0  0  0  0  0  0  0  0
    2.5956   -2.9302    0.6069 C   0  0  0  0  0  0  0  0  0  0  0  0
    2.5681   -4.3951    1.0445 C   0  0  0  0  0  0  0  0  0  0  0  0
    3.7857   -4.7729    1.9178 C   0  0  2  0  0  0  0  0  0  0  0  0
    3.8205   -3.7771    3.1320 C   0  0  0  0  0  0  0  0  0  0  0  0
    3.6078   -6.2619    2.4472 C   0  0  2  0  0  0  0  0  0  0  0  0
    2.2934   -6.5314    3.2844 C   0  0  1  0  0  0  0  0  0  0  0  0
    1.2618   -7.3210    2.4498 C   0  0  0  0  0  0  0  0  0  0  0  0
    2.0184   -5.3036    5.8665 H   0  0  0  0  0  0  0  0  0  0  0  0
    1.5276   -6.7727    6.7104 H   0  0  0  0  0  0  0  0  0  0  0  0
    0.5470   -6.1567    5.3952 H   0  0  0  0  0  0  0  0  0  0  0  0
    1.8798   -8.0933    4.7064 H   0  0  0  0  0  0  0  0  0  0  0  0
    3.8296   -7.2232    6.3561 H   0  0  0  0  0  0  0  0  0  0  0  0
    3.9426   -8.5397    5.2608 H   0  0  0  0  0  0  0  0  0  0  0  0
    4.9343   -5.7195    4.8581 H   0  0  0  0  0  0  0  0  0  0  0  0
    5.8752   -7.1550    4.9842 H   0  0  0  0  0  0  0  0  0  0  0  0
    5.6644   -9.0100    3.1976 H   0  0  0  0  0  0  0  0  0  0  0  0
    3.9130   -8.9463    3.1162 H   0  0  0  0  0  0  0  0  0  0  0  0
    4.6150   -9.7408    1.2417 H   0  0  0  0  0  0  0  0  0  0  0  0
    7.0386   -6.5715    3.1234 H   0  0  0  0  0  0  0  0  0  0  0  0
    6.5300   -7.0711    1.5765 H   0  0  0  0  0  0  0  0  0  0  0  0
    6.3812   -4.2904    2.7061 H   0  0  0  0  0  0  0  0  0  0  0  0
    7.2030   -4.9345    1.3512 H   0  0  0  0  0  0  0  0  0  0  0  0
    4.3299   -5.4176   -0.9646 H   0  0  0  0  0  0  0  0  0  0  0  0
    4.9107   -6.6559    0.0786 H   0  0  0  0  0  0  0  0  0  0  0  0
    6.0391   -5.6029   -0.6750 H   0  0  0  0  0  0  0  0  0  0  0  0
    5.4334   -2.5595    1.3079 H   0  0  0  0  0  0  0  0  0  0  0  0
    6.4717   -1.6551   -0.4820 H   0  0  0  0  0  0  0  0  0  0  0  0
    8.3210   -2.8021   -0.7071 H   0  0  0  0  0  0  0  0  0  0  0  0
    6.9894   -2.6426   -2.6477 H   0  0  0  0  0  0  0  0  0  0  0  0
    6.1735   -4.1152   -2.2308 H   0  0  0  0  0  0  0  0  0  0  0  0
    5.2848   -1.4563   -4.3223 H   0  0  0  0  0  0  0  0  0  0  0  0
    2.9655   -0.4591   -3.9566 H   0  0  0  0  0  0  0  0  0  0  0  0
    2.7588   -2.0797   -4.6474 H   0  0  0  0  0  0  0  0  0  0  0  0
    2.3026   -1.0967   -1.9606 H   0  0  0  0  0  0  0  0  0  0  0  0
    1.6380   -2.5988   -2.6204 H   0  0  0  0  0  0  0  0  0  0  0  0
    3.4056   -3.8579   -1.8386 H   0  0  0  0  0  0  0  0  0  0  0  0
    2.9706   -0.4546   -0.0160 H   0  0  0  0  0  0  0  0  0  0  0  0
    4.6282   -0.4324   -0.6039 H   0  0  0  0  0  0  0  0  0  0  0  0
    4.2607   -0.7168    1.0945 H   0  0  0  0  0  0  0  0  0  0  0  0
    2.4045   -2.2872    1.4670 H   0  0  0  0  0  0  0  0  0  0  0  0
    1.7419   -2.7562   -0.0315 H   0  0  0  0  0  0  0  0  0  0  0  0
    1.6465   -4.5488    1.5953 H   0  0  0  0  0  0  0  0  0  0  0  0
    2.4794   -5.0432    0.1719 H   0  0  0  0  0  0  0  0  0  0  0  0
    2.8972   -3.7866    3.7113 H   0  0  0  0  0  0  0  0  0  0  0  0
    3.9628   -2.7386    2.8402 H   0  0  0  0  0  0  0  0  0  0  0  0
    4.6280   -3.9679    3.8284 H   0  0  0  0  0  0  0  0  0  0  0  0
    3.4057   -6.7970    1.5249 H   0  0  0  0  0  0  0  0  0  0  0  0
    1.8119   -5.5710    3.4346 H   0  0  0  0  0  0  0  0  0  0  0  0
    1.6076   -8.3352    2.2401 H   0  0  0  0  0  0  0  0  0  0  0  0
    1.0664   -6.8406    1.4907 H   0  0  0  0  0  0  0  0  0  0  0  0
    0.3059   -7.3968    2.9711 H   0  0  0  0  0  0  0  0  0  0  0  0
  1  2  1  0
  1 30  1  0
  1 31  1  0
  1 32  1  0
  2 28  1  0
  2  3  1  0
  2 33  1  6
  3  4  1  0
  3 34  1  0
  3 35  1  0
  4  5  1  0
  4 36  1  0
  4 37  1  0
  5 27  1  0
  5  6  1  1
  5  8  1  0
  6  7  1  0
  6 38  1  0
  6 39  1  0
  7 40  1  0
  8  9  1  0
  8 41  1  0
  8 42  1  0
  9 10  1  0
  9 43  1  0
  9 44  1  0
 10 25  1  0
 10 11  1  6
 10 12  1  0
 11 45  1  0
 11 46  1  0
 11 47  1  0
 12 21  1  0
 12 13  1  0
 12 48  1  1
 13 14  1  0
 13 15  1  0
 13 49  1  6
 14 50  1  0
 15 16  1  0
 15 51  1  0
 15 52  1  0
 16 20  1  0
 16 17  2  0
 17 18  1  0
 17 53  1  0
 18 19  1  0
 18 54  1  0
 18 55  1  0
 19 20  1  0
 19 56  1  0
 19 57  1  0
 20 21  1  0
 20 58  1  1
 21 22  1  6
 21 23  1  0
 22 59  1  0
 22 60  1  0
 22 61  1  0
 23 24  1  0
 23 62  1  0
 23 63  1  0
 24 25  1  0
 24 64  1  0
 24 65  1  0
 25 26  1  1
 25 27  1  0
 26 66  1  0
 26 67  1  0
 26 68  1  0
 27 28  1  0
 27 69  1  6
 28 29  1  0
 28 70  1  1
 29 71  1  0
 29 72  1  0
 29 73  1  0
M  END
>  <i_m_ct_stereo_status>  (172) 
1

>  <s_m_source_file>  (172) 
/var/tmp/pbs.5076255.sched01/tmp68k5m_u8/43t0xmz28c.sdf

>  <i_m_source_file_index>  (172) 
31

>  <i_lp_mmshare_version>  (172) 
48012

>  <i_f3d_flags>  (172) 
0

>  <s_epik_input>  (172) 
W0NIMl0xW0NIMl1bQ0BASF0oW0NIM10pW0NASF0oW0NIM10pW0NASF0oW0NAXTEyW0NIMl1bT0hdKVtDQEBdMyhbQ0gzXSlbQ0BdKFtDSDNdKShbQ0gyXVtDSDJdMilbQ0BASF00W0NAXShbQ0gzXSkoW0NIMl1bQ0gyXTMpW0NAQEhdNUMoW0NIMl1bQ0BASF00W09IXSk9W0NIXVtDSDJdW0NIMl01

>  <s_epik_cmdline>  (172) 
J2VwaWtfcHl0aG9uJywgJy1waHQnLCAnMi4wJywgJy1waCcsICc3LjAnLCAnLXRuJywgJzgnLCAnLW1hJywgJzIwMCcsICctaW1hZScsICc8aW5maWxlLm1hZT4nLCAnLW9tYWUnLCAnPG91dGZpbGUubWFlPic=

>  <r_lp_tautomer_probability>  (172) 
1

>  <r_epik_Ionization_Penalty>  (172) 
2.60485e-06

>  <r_epik_Ionization_Penalty_Charging>  (172) 
0

>  <r_epik_Ionization_Penalty_Neutral>  (172) 
2.60485e-06

>  <r_epik_State_Penalty>  (172) 
-0

>  <r_epik_Charging_Adjusted_Penalty>  (172) 
0

>  <i_epik_Tot_Q>  (172) 
0

>  <i_epik_Tot_abs_Q>  (172) 
0

>  <s_lp_Force_Field>  (172) 
OPLS3e

>  <r_lp_Energy>  (172) 
90.6853

>  <b_lp_Chiralities_Consistent>  (172) 
1

>  <s_lp_Variant>  (172) 
50:0-1

>  <s_i_glide_gridfile>  (172) 
pfpi4k_grid

>  <i_i_glide_lignum>  (172) 
31

>  <i_i_glide_rotatable_bonds>  (172) 
3

>  <r_i_docking_score>  (172) 
-2.21132

>  <r_i_glide_ligand_efficiency>  (172) 
-0.0762525

>  <r_i_glide_ligand_efficiency_sa>  (172) 
-0.234272

>  <r_i_glide_ligand_efficiency_ln>  (172) 
-0.506337

>  <r_i_glide_gscore>  (172) 
-2.21132

>  <r_i_glide_lipo>  (172) 
-0.678276

>  <r_i_glide_hbond>  (172) 
0

>  <r_i_glide_metal>  (172) 
-0

>  <r_i_glide_rewards>  (172) 
-0.677475

>  <r_i_glide_evdw>  (172) 
-15.3937

>  <r_i_glide_ecoul>  (172) 
-1.38691

>  <r_i_glide_erotb>  (172) 
0.12215

>  <r_i_glide_esite>  (172) 
0

>  <r_i_glide_emodel>  (172) 
-17.8497

>  <r_i_glide_energy>  (172) 
-16.7806

>  <r_i_glide_einternal>  (172) 
1.39567

>  <r_i_glide_intrahb_reward>  (172) 
-0

>  <i_i_glide_confnum>  (172) 
6

>  <i_i_glide_posenum>  (172) 
38

>  <r_i_glide_eff_state_penalty>  (172) 
0

>  <ligand_id>  (172) 
50

>  <original_smiles>  (172) 
CC1CCC2(CO)CCC3(C)C4C(O)CC5=CCCC5C4(C)CCC3(C)C2C1C

>  <smiles>  (172) 
[H]OC([H])([H])C12C([H])([H])C([H])([H])C([H])(C([H])([H])[H])C([H])(C([H])([H])[H])C1([H])C1(C([H])([H])[H])C([H])([H])C([H])([H])C3(C([H])([H])[H])C4([H])C(=C([H])C([H])([H])C4([H])[H])C([H])([H])C([H])(O[H])C3([H])C1(C([H])([H])[H])C([H])([H])C2([H])[H]

$$$$
50:0:1
     RDKit          3D

 73 77  0  0  1  0  0  0  0  0999 V2000
    2.3069   -9.1553    5.1935 C   0  0  0  0  0  0  0  0  0  0  0  0
    3.5724   -9.3252    4.3350 C   0  0  2  0  0  0  0  0  0  0  0  0
    4.8380   -9.0938    5.1864 C   0  0  0  0  0  0  0  0  0  0  0  0
    5.6128   -7.8237    4.8491 C   0  0  0  0  0  0  0  0  0  0  0  0
    5.9235   -7.7112    3.3345 C   0  0  2  0  0  0  0  0  0  0  0  0
    6.6503   -9.0055    2.8450 C   0  0  0  0  0  0  0  0  0  0  0  0
    7.8327   -9.2711    3.5766 O   0  0  0  0  0  0  0  0  0  0  0  0
    6.9225   -6.5452    3.0838 C   0  0  0  0  0  0  0  0  0  0  0  0
    6.3448   -5.1724    2.7222 C   0  0  0  0  0  0  0  0  0  0  0  0
    5.2778   -5.1941    1.5963 C   0  0  2  0  0  0  0  0  0  0  0  0
    5.9793   -5.8235    0.3592 C   0  0  0  0  0  0  0  0  0  0  0  0
    4.7585   -3.7248    1.2190 C   0  0  1  0  0  0  0  0  0  0  0  0
    5.7520   -2.6589    0.6144 C   0  0  1  0  0  0  0  0  0  0  0  0
    6.9993   -2.5808    1.2452 O   0  0  0  0  0  0  0  0  0  0  0  0
    5.9848   -2.7132   -0.9020 C   0  0  0  0  0  0  0  0  0  0  0  0
    4.6666   -2.7289   -1.6216 C   0  0  0  0  0  0  0  0  0  0  0  0
    4.2986   -2.0114   -2.6832 C   0  0  0  0  0  0  0  0  0  0  0  0
    2.9198   -2.3801   -3.1605 C   0  0  0  0  0  0  0  0  0  0  0  0
    2.4012   -3.3467   -2.0706 C   0  0  0  0  0  0  0  0  0  0  0  0
    3.6092   -3.6851   -1.1452 C   0  0  2  0  0  0  0  0  0  0  0  0
    3.3897   -3.6359    0.4134 C   0  0  2  0  0  0  0  0  0  0  0  0
    2.7047   -2.3033    0.8334 C   0  0  0  0  0  0  0  0  0  0  0  0
    2.3921   -4.7610    0.7891 C   0  0  0  0  0  0  0  0  0  0  0  0
    3.0055   -6.1296    1.0791 C   0  0  0  0  0  0  0  0  0  0  0  0
    4.0967   -6.0849    2.1796 C   0  0  2  0  0  0  0  0  0  0  0  0
    3.4568   -5.4448    3.4624 C   0  0  0  0  0  0  0  0  0  0  0  0
    4.5872   -7.5664    2.5125 C   0  0  2  0  0  0  0  0  0  0  0  0
    3.4428   -8.5538    2.9760 C   0  0  1  0  0  0  0  0  0  0  0  0
    3.0696   -9.5411    1.8495 C   0  0  0  0  0  0  0  0  0  0  0  0
    2.1860   -8.1242    5.5264 H   0  0  0  0  0  0  0  0  0  0  0  0
    2.3339   -9.7922    6.0787 H   0  0  0  0  0  0  0  0  0  0  0  0
    1.4136   -9.4351    4.6354 H   0  0  0  0  0  0  0  0  0  0  0  0
    3.6028  -10.3897    4.1000 H   0  0  0  0  0  0  0  0  0  0  0  0
    4.5957   -9.0910    6.2493 H   0  0  0  0  0  0  0  0  0  0  0  0
    5.5027   -9.9522    5.0758 H   0  0  0  0  0  0  0  0  0  0  0  0
    5.0602   -6.9705    5.2223 H   0  0  0  0  0  0  0  0  0  0  0  0
    6.5383   -7.8255    5.4274 H   0  0  0  0  0  0  0  0  0  0  0  0
    6.0024   -9.8795    2.9035 H   0  0  0  0  0  0  0  0  0  0  0  0
    6.9188   -8.9193    1.7908 H   0  0  0  0  0  0  0  0  0  0  0  0
    8.4837   -8.6229    3.3451 H   0  0  0  0  0  0  0  0  0  0  0  0
    7.5797   -6.4264    3.9438 H   0  0  0  0  0  0  0  0  0  0  0  0
    7.6060   -6.8151    2.2768 H   0  0  0  0  0  0  0  0  0  0  0  0
    5.9976   -4.6562    3.6133 H   0  0  0  0  0  0  0  0  0  0  0  0
    7.2198   -4.6281    2.4011 H   0  0  0  0  0  0  0  0  0  0  0  0
    5.3699   -5.8447   -0.5335 H   0  0  0  0  0  0  0  0  0  0  0  0
    6.2936   -6.8486    0.5127 H   0  0  0  0  0  0  0  0  0  0  0  0
    6.8974   -5.2899    0.1188 H   0  0  0  0  0  0  0  0  0  0  0  0
    4.5553   -3.3007    2.2018 H   0  0  0  0  0  0  0  0  0  0  0  0
    5.3150   -1.6790    0.8073 H   0  0  0  0  0  0  0  0  0  0  0  0
    6.8555   -2.3900    2.1603 H   0  0  0  0  0  0  0  0  0  0  0  0
    6.5759   -1.8605   -1.2322 H   0  0  0  0  0  0  0  0  0  0  0  0
    6.5422   -3.5987   -1.1891 H   0  0  0  0  0  0  0  0  0  0  0  0
    4.9108   -1.2847   -3.1963 H   0  0  0  0  0  0  0  0  0  0  0  0
    2.2892   -1.4960   -3.2592 H   0  0  0  0  0  0  0  0  0  0  0  0
    2.9846   -2.8731   -4.1335 H   0  0  0  0  0  0  0  0  0  0  0  0
    1.5957   -2.8642   -1.5326 H   0  0  0  0  0  0  0  0  0  0  0  0
    1.9430   -4.2334   -2.5073 H   0  0  0  0  0  0  0  0  0  0  0  0
    3.9744   -4.6536   -1.4334 H   0  0  0  0  0  0  0  0  0  0  0  0
    1.6620   -2.2744    0.5492 H   0  0  0  0  0  0  0  0  0  0  0  0
    3.1632   -1.4250    0.3821 H   0  0  0  0  0  0  0  0  0  0  0  0
    2.7050   -2.1679    1.9154 H   0  0  0  0  0  0  0  0  0  0  0  0
    1.8058   -4.4581    1.6537 H   0  0  0  0  0  0  0  0  0  0  0  0
    1.6637   -4.8881   -0.0081 H   0  0  0  0  0  0  0  0  0  0  0  0
    2.1831   -6.7836    1.3583 H   0  0  0  0  0  0  0  0  0  0  0  0
    3.3955   -6.5575    0.1591 H   0  0  0  0  0  0  0  0  0  0  0  0
    2.5733   -5.9801    3.8045 H   0  0  0  0  0  0  0  0  0  0  0  0
    3.1268   -4.4199    3.3206 H   0  0  0  0  0  0  0  0  0  0  0  0
    4.1287   -5.3880    4.3090 H   0  0  0  0  0  0  0  0  0  0  0  0
    4.8477   -7.9524    1.5287 H   0  0  0  0  0  0  0  0  0  0  0  0
    2.5417   -7.9624    3.0943 H   0  0  0  0  0  0  0  0  0  0  0  0
    3.8867  -10.2316    1.6401 H   0  0  0  0  0  0  0  0  0  0  0  0
    2.8289   -9.0254    0.9208 H   0  0  0  0  0  0  0  0  0  0  0  0
    2.1966  -10.1366    2.1158 H   0  0  0  0  0  0  0  0  0  0  0  0
  1  2  1  0
  1 30  1  0
  1 31  1  0
  1 32  1  0
  2 28  1  0
  2  3  1  0
  2 33  1  6
  3  4  1  0
  3 34  1  0
  3 35  1  0
  4  5  1  0
  4 36  1  0
  4 37  1  0
  5 27  1  0
  5  6  1  6
  5  8  1  0
  6  7  1  0
  6 38  1  0
  6 39  1  0
  7 40  1  0
  8  9  1  0
  8 41  1  0
  8 42  1  0
  9 10  1  0
  9 43  1  0
  9 44  1  0
 10 25  1  0
 10 11  1  6
 10 12  1  0
 11 45  1  0
 11 46  1  0
 11 47  1  0
 12 21  1  0
 12 13  1  0
 12 48  1  1
 13 14  1  0
 13 15  1  0
 13 49  1  6
 14 50  1  0
 15 16  1  0
 15 51  1  0
 15 52  1  0
 16 20  1  0
 16 17  2  0
 17 18  1  0
 17 53  1  0
 18 19  1  0
 18 54  1  0
 18 55  1  0
 19 20  1  0
 19 56  1  0
 19 57  1  0
 20 21  1  0
 20 58  1  6
 21 22  1  6
 21 23  1  0
 22 59  1  0
 22 60  1  0
 22 61  1  0
 23 24  1  0
 23 62  1  0
 23 63  1  0
 24 25  1  0
 24 64  1  0
 24 65  1  0
 25 26  1  1
 25 27  1  0
 26 66  1  0
 26 67  1  0
 26 68  1  0
 27 28  1  0
 27 69  1  6
 28 29  1  0
 28 70  1  1
 29 71  1  0
 29 72  1  0
 29 73  1  0
M  END
>  <i_m_ct_stereo_status>  (173) 
1

>  <s_m_source_file>  (173) 
/var/tmp/pbs.5076255.sched01/tmp68k5m_u8/43t0xmz28c.sdf

>  <i_m_source_file_index>  (173) 
31

>  <i_lp_mmshare_version>  (173) 
48012

>  <i_f3d_flags>  (173) 
0

>  <s_epik_input>  (173) 
W0NIMl0xW0NIMl1bQ0BASF0oW0NIM10pW0NASF0oW0NIM10pW0NASF0oW0NAXTEyW0NIMl1bT0hdKVtDQEBdMyhbQ0gzXSlbQ0BdKFtDSDNdKShbQ0gyXVtDSDJdMilbQ0BASF00W0NAXShbQ0gzXSkoW0NIMl1bQ0gyXTMpW0NAQEhdNUMoW0NIMl1bQ0BASF00W09IXSk9W0NIXVtDSDJdW0NIMl01

>  <s_epik_cmdline>  (173) 
J2VwaWtfcHl0aG9uJywgJy1waHQnLCAnMi4wJywgJy1waCcsICc3LjAnLCAnLXRuJywgJzgnLCAnLW1hJywgJzIwMCcsICctaW1hZScsICc8aW5maWxlLm1hZT4nLCAnLW9tYWUnLCAnPG91dGZpbGUubWFlPic=

>  <r_lp_tautomer_probability>  (173) 
1

>  <r_epik_Ionization_Penalty>  (173) 
2.60485e-06

>  <r_epik_Ionization_Penalty_Charging>  (173) 
0

>  <r_epik_Ionization_Penalty_Neutral>  (173) 
2.60485e-06

>  <r_epik_State_Penalty>  (173) 
-0

>  <r_epik_Charging_Adjusted_Penalty>  (173) 
0

>  <i_epik_Tot_Q>  (173) 
0

>  <i_epik_Tot_abs_Q>  (173) 
0

>  <s_lp_Force_Field>  (173) 
OPLS3e

>  <r_lp_Energy>  (173) 
90.6853

>  <b_lp_Chiralities_Consistent>  (173) 
1

>  <s_lp_Variant>  (173) 
50:0-1

>  <s_i_glide_gridfile>  (173) 
pfpi4k_grid

>  <i_i_glide_lignum>  (173) 
31

>  <i_i_glide_rotatable_bonds>  (173) 
3

>  <r_i_docking_score>  (173) 
-2.14226

>  <r_i_glide_ligand_efficiency>  (173) 
-0.0738709

>  <r_i_glide_ligand_efficiency_sa>  (173) 
-0.226955

>  <r_i_glide_ligand_efficiency_ln>  (173) 
-0.490522

>  <r_i_glide_gscore>  (173) 
-2.14226

>  <r_i_glide_lipo>  (173) 
-0.573783

>  <r_i_glide_hbond>  (173) 
0

>  <r_i_glide_metal>  (173) 
-0

>  <r_i_glide_rewards>  (173) 
-0.677475

>  <r_i_glide_evdw>  (173) 
-17.6471

>  <r_i_glide_ecoul>  (173) 
-0.871946

>  <r_i_glide_erotb>  (173) 
0.12215

>  <r_i_glide_esite>  (173) 
0

>  <r_i_glide_emodel>  (173) 
-20.3631

>  <r_i_glide_energy>  (173) 
-18.5191

>  <r_i_glide_einternal>  (173) 
0.39409

>  <r_i_glide_intrahb_reward>  (173) 
-0

>  <i_i_glide_confnum>  (173) 
1

>  <i_i_glide_posenum>  (173) 
12

>  <r_i_glide_eff_state_penalty>  (173) 
0

>  <ligand_id>  (173) 
50

>  <original_smiles>  (173) 
CC1CCC2(CO)CCC3(C)C4C(O)CC5=CCCC5C4(C)CCC3(C)C2C1C

>  <smiles>  (173) 
[H]OC([H])([H])C12C([H])([H])C([H])([H])C([H])(C([H])([H])[H])C([H])(C([H])([H])[H])C1([H])C1(C([H])([H])[H])C([H])([H])C([H])([H])C3(C([H])([H])[H])C4([H])C(=C([H])C([H])([H])C4([H])[H])C([H])([H])C([H])(O[H])C3([H])C1(C([H])([H])[H])C([H])([H])C2([H])[H]

$$$$
50:0:2
     RDKit          3D

 73 77  0  0  1  0  0  0  0  0999 V2000
    1.1336   -7.0457    5.2628 C   0  0  0  0  0  0  0  0  0  0  0  0
    2.0708   -7.7693    4.2750 C   0  0  2  0  0  0  0  0  0  0  0  0
    3.4406   -8.0627    4.9235 C   0  0  0  0  0  0  0  0  0  0  0  0
    4.6025   -7.2544    4.3561 C   0  0  0  0  0  0  0  0  0  0  0  0
    4.6771   -7.3533    2.8090 C   0  0  2  0  0  0  0  0  0  0  0  0
    4.7142   -8.8519    2.3761 C   0  0  0  0  0  0  0  0  0  0  0  0
    5.7854   -9.5714    2.9553 O   0  0  0  0  0  0  0  0  0  0  0  0
    6.0151   -6.7274    2.3059 C   0  0  0  0  0  0  0  0  0  0  0  0
    6.0150   -5.2456    1.8979 C   0  0  0  0  0  0  0  0  0  0  0  0
    4.8630   -4.8775    0.9287 C   0  0  2  0  0  0  0  0  0  0  0  0
    5.0273   -5.8038   -0.3032 C   0  0  0  0  0  0  0  0  0  0  0  0
    4.9432   -3.3467    0.4499 C   0  0  1  0  0  0  0  0  0  0  0  0
    6.1781   -2.8397   -0.3909 C   0  0  1  0  0  0  0  0  0  0  0  0
    7.4427   -3.2569    0.0646 O   0  0  0  0  0  0  0  0  0  0  0  0
    6.1226   -3.0568   -1.9123 C   0  0  0  0  0  0  0  0  0  0  0  0
    4.8081   -2.5650   -2.4574 C   0  0  0  0  0  0  0  0  0  0  0  0
    4.5776   -1.8323   -3.5484 C   0  0  0  0  0  0  0  0  0  0  0  0
    3.1327   -1.5986   -3.8094 C   0  0  0  0  0  0  0  0  0  0  0  0
    2.4863   -2.1654   -2.5484 C   0  0  0  0  0  0  0  0  0  0  0  0
    3.5510   -2.9678   -1.7531 C   0  0  2  0  0  0  0  0  0  0  0  0
    3.6223   -2.7271   -0.1972 C   0  0  2  0  0  0  0  0  0  0  0  0
    3.6070   -1.2037    0.1489 C   0  0  0  0  0  0  0  0  0  0  0  0
    2.3168   -3.2971    0.4181 C   0  0  0  0  0  0  0  0  0  0  0  0
    2.3611   -4.7936    0.7857 C   0  0  0  0  0  0  0  0  0  0  0  0
    3.5291   -5.1572    1.7368 C   0  0  2  0  0  0  0  0  0  0  0  0
    3.4128   -4.2488    3.0042 C   0  0  0  0  0  0  0  0  0  0  0  0
    3.4028   -6.6895    2.1599 C   0  0  2  0  0  0  0  0  0  0  0  0
    2.0481   -7.0866    2.8690 C   0  0  1  0  0  0  0  0  0  0  0  0
    1.1245   -7.8692    1.9072 C   0  0  0  0  0  0  0  0  0  0  0  0
    1.5111   -6.0463    5.4929 H   0  0  0  0  0  0  0  0  0  0  0  0
    1.0458   -7.5949    6.2033 H   0  0  0  0  0  0  0  0  0  0  0  0
    0.1264   -6.9441    4.8579 H   0  0  0  0  0  0  0  0  0  0  0  0
    1.6192   -8.7507    4.1528 H   0  0  0  0  0  0  0  0  0  0  0  0
    3.3832   -7.9025    5.9979 H   0  0  0  0  0  0  0  0  0  0  0  0
    3.6584   -9.1317    4.8223 H   0  0  0  0  0  0  0  0  0  0  0  0
    4.5052   -6.2323    4.7014 H   0  0  0  0  0  0  0  0  0  0  0  0
    5.5226   -7.6205    4.8152 H   0  0  0  0  0  0  0  0  0  0  0  0
    3.7892   -9.3677    2.6131 H   0  0  0  0  0  0  0  0  0  0  0  0
    4.8165   -8.9316    1.2982 H   0  0  0  0  0  0  0  0  0  0  0  0
    5.6968  -10.4697    2.6939 H   0  0  0  0  0  0  0  0  0  0  0  0
    6.7842   -6.8642    3.0592 H   0  0  0  0  0  0  0  0  0  0  0  0
    6.3875   -7.3082    1.4577 H   0  0  0  0  0  0  0  0  0  0  0  0
    6.0478   -4.5911    2.7678 H   0  0  0  0  0  0  0  0  0  0  0  0
    6.9819   -5.1070    1.4273 H   0  0  0  0  0  0  0  0  0  0  0  0
    4.3396   -5.5658   -1.0965 H   0  0  0  0  0  0  0  0  0  0  0  0
    4.8903   -6.8622   -0.0989 H   0  0  0  0  0  0  0  0  0  0  0  0
    6.0233   -5.7009   -0.7161 H   0  0  0  0  0  0  0  0  0  0  0  0
    5.0859   -2.8195    1.3954 H   0  0  0  0  0  0  0  0  0  0  0  0
    6.2072   -1.7575   -0.2606 H   0  0  0  0  0  0  0  0  0  0  0  0
    8.0886   -3.0470   -0.5841 H   0  0  0  0  0  0  0  0  0  0  0  0
    6.9408   -2.5519   -2.4267 H   0  0  0  0  0  0  0  0  0  0  0  0
    6.1808   -4.1041   -2.1702 H   0  0  0  0  0  0  0  0  0  0  0  0
    5.2960   -1.4520   -4.2399 H   0  0  0  0  0  0  0  0  0  0  0  0
    2.9071   -0.5395   -3.9144 H   0  0  0  0  0  0  0  0  0  0  0  0
    2.8425   -2.1112   -4.7167 H   0  0  0  0  0  0  0  0  0  0  0  0
    2.2260   -1.2705   -1.9890 H   0  0  0  0  0  0  0  0  0  0  0  0
    1.5898   -2.7466   -2.7766 H   0  0  0  0  0  0  0  0  0  0  0  0
    3.3984   -4.0227   -1.9725 H   0  0  0  0  0  0  0  0  0  0  0  0
    2.6186   -0.7426    0.0195 H   0  0  0  0  0  0  0  0  0  0  0  0
    4.3185   -0.6235   -0.4350 H   0  0  0  0  0  0  0  0  0  0  0  0
    3.8307   -1.0390    1.2015 H   0  0  0  0  0  0  0  0  0  0  0  0
    2.0355   -2.7199    1.3061 H   0  0  0  0  0  0  0  0  0  0  0  0
    1.5053   -3.1238   -0.2861 H   0  0  0  0  0  0  0  0  0  0  0  0
    1.4125   -5.0454    1.2538 H   0  0  0  0  0  0  0  0  0  0  0  0
    2.3772   -5.3858   -0.1316 H   0  0  0  0  0  0  0  0  0  0  0  0
    2.4532   -4.3446    3.5119 H   0  0  0  0  0  0  0  0  0  0  0  0
    3.5148   -3.1896    2.7886 H   0  0  0  0  0  0  0  0  0  0  0  0
    4.1767   -4.4384    3.7464 H   0  0  0  0  0  0  0  0  0  0  0  0
    3.3155   -7.2030    1.2004 H   0  0  0  0  0  0  0  0  0  0  0  0
    1.5067   -6.1669    3.0407 H   0  0  0  0  0  0  0  0  0  0  0  0
    1.5378   -8.8476    1.6630 H   0  0  0  0  0  0  0  0  0  0  0  0
    0.9701   -7.3363    0.9666 H   0  0  0  0  0  0  0  0  0  0  0  0
    0.1412   -8.0277    2.3471 H   0  0  0  0  0  0  0  0  0  0  0  0
  1  2  1  0
  1 30  1  0
  1 31  1  0
  1 32  1  0
  2 28  1  0
  2  3  1  0
  2 33  1  6
  3  4  1  0
  3 34  1  0
  3 35  1  0
  4  5  1  0
  4 36  1  0
  4 37  1  0
  5 27  1  0
  5  6  1  1
  5  8  1  0
  6  7  1  0
  6 38  1  0
  6 39  1  0
  7 40  1  0
  8  9  1  0
  8 41  1  0
  8 42  1  0
  9 10  1  0
  9 43  1  0
  9 44  1  0
 10 25  1  0
 10 11  1  6
 10 12  1  0
 11 45  1  0
 11 46  1  0
 11 47  1  0
 12 21  1  0
 12 13  1  0
 12 48  1  1
 13 14  1  0
 13 15  1  0
 13 49  1  6
 14 50  1  0
 15 16  1  0
 15 51  1  0
 15 52  1  0
 16 20  1  0
 16 17  2  0
 17 18  1  0
 17 53  1  0
 18 19  1  0
 18 54  1  0
 18 55  1  0
 19 20  1  0
 19 56  1  0
 19 57  1  0
 20 21  1  0
 20 58  1  1
 21 22  1  6
 21 23  1  0
 22 59  1  0
 22 60  1  0
 22 61  1  0
 23 24  1  0
 23 62  1  0
 23 63  1  0
 24 25  1  0
 24 64  1  0
 24 65  1  0
 25 26  1  1
 25 27  1  0
 26 66  1  0
 26 67  1  0
 26 68  1  0
 27 28  1  0
 27 69  1  6
 28 29  1  0
 28 70  1  1
 29 71  1  0
 29 72  1  0
 29 73  1  0
M  END
>  <i_m_ct_stereo_status>  (174) 
1

>  <s_m_source_file>  (174) 
/var/tmp/pbs.5076255.sched01/tmp68k5m_u8/43t0xmz28c.sdf

>  <i_m_source_file_index>  (174) 
31

>  <i_lp_mmshare_version>  (174) 
48012

>  <i_f3d_flags>  (174) 
0

>  <s_epik_input>  (174) 
W0NIMl0xW0NIMl1bQ0BASF0oW0NIM10pW0NASF0oW0NIM10pW0NASF0oW0NAXTEyW0NIMl1bT0hdKVtDQEBdMyhbQ0gzXSlbQ0BdKFtDSDNdKShbQ0gyXVtDSDJdMilbQ0BASF00W0NAXShbQ0gzXSkoW0NIMl1bQ0gyXTMpW0NAQEhdNUMoW0NIMl1bQ0BASF00W09IXSk9W0NIXVtDSDJdW0NIMl01

>  <s_epik_cmdline>  (174) 
J2VwaWtfcHl0aG9uJywgJy1waHQnLCAnMi4wJywgJy1waCcsICc3LjAnLCAnLXRuJywgJzgnLCAnLW1hJywgJzIwMCcsICctaW1hZScsICc8aW5maWxlLm1hZT4nLCAnLW9tYWUnLCAnPG91dGZpbGUubWFlPic=

>  <r_lp_tautomer_probability>  (174) 
1

>  <r_epik_Ionization_Penalty>  (174) 
2.60485e-06

>  <r_epik_Ionization_Penalty_Charging>  (174) 
0

>  <r_epik_Ionization_Penalty_Neutral>  (174) 
2.60485e-06

>  <r_epik_State_Penalty>  (174) 
-0

>  <r_epik_Charging_Adjusted_Penalty>  (174) 
0

>  <i_epik_Tot_Q>  (174) 
0

>  <i_epik_Tot_abs_Q>  (174) 
0

>  <s_lp_Force_Field>  (174) 
OPLS3e

>  <r_lp_Energy>  (174) 
90.6853

>  <b_lp_Chiralities_Consistent>  (174) 
1

>  <s_lp_Variant>  (174) 
50:0-1

>  <s_i_glide_gridfile>  (174) 
pfpi4k_grid

>  <i_i_glide_lignum>  (174) 
31

>  <i_i_glide_rotatable_bonds>  (174) 
3

>  <r_i_docking_score>  (174) 
-2.07875

>  <r_i_glide_ligand_efficiency>  (174) 
-0.0716811

>  <r_i_glide_ligand_efficiency_sa>  (174) 
-0.220227

>  <r_i_glide_ligand_efficiency_ln>  (174) 
-0.475981

>  <r_i_glide_gscore>  (174) 
-2.07875

>  <r_i_glide_lipo>  (174) 
-0.68181

>  <r_i_glide_hbond>  (174) 
0

>  <r_i_glide_metal>  (174) 
-0

>  <r_i_glide_rewards>  (174) 
-0.677475

>  <r_i_glide_evdw>  (174) 
-15.151

>  <r_i_glide_ecoul>  (174) 
-0.560434

>  <r_i_glide_erotb>  (174) 
0.12215

>  <r_i_glide_esite>  (174) 
0

>  <r_i_glide_emodel>  (174) 
-16.9476

>  <r_i_glide_energy>  (174) 
-15.7115

>  <r_i_glide_einternal>  (174) 
0.989813

>  <r_i_glide_intrahb_reward>  (174) 
-0

>  <i_i_glide_confnum>  (174) 
4

>  <i_i_glide_posenum>  (174) 
28

>  <r_i_glide_eff_state_penalty>  (174) 
0

>  <ligand_id>  (174) 
50

>  <original_smiles>  (174) 
CC1CCC2(CO)CCC3(C)C4C(O)CC5=CCCC5C4(C)CCC3(C)C2C1C

>  <smiles>  (174) 
[H]OC([H])([H])C12C([H])([H])C([H])([H])C([H])(C([H])([H])[H])C([H])(C([H])([H])[H])C1([H])C1(C([H])([H])[H])C([H])([H])C([H])([H])C3(C([H])([H])[H])C4([H])C(=C([H])C([H])([H])C4([H])[H])C([H])([H])C([H])(O[H])C3([H])C1(C([H])([H])[H])C([H])([H])C2([H])[H]

$$$$
51:0:0
     RDKit          3D

 29 32  0  0  1  0  0  0  0  0999 V2000
    5.0349   -5.1674    0.7647 C   0  0  0  0  0  0  0  0  0  0  0  0
    5.8693   -4.1834    0.2032 N   0  0  0  0  0  0  0  0  0  0  0  0
    5.2505   -3.3474   -0.5832 N   0  0  0  0  0  0  0  0  0  0  0  0
    3.6162   -3.6963   -0.6969 S   0  0  0  0  0  0  0  0  0  0  0  0
    3.7316   -5.0539    0.3719 C   0  0  0  0  0  0  0  0  0  0  0  0
    2.5781   -5.8777    0.7036 C   0  0  0  0  0  0  0  0  0  0  0  0
    1.4144   -5.7503    0.0812 N   0  0  0  0  0  0  0  0  0  0  0  0
    0.6282   -6.7323    0.6930 O   0  0  0  0  0  0  0  0  0  0  0  0
    1.4119   -7.2991    1.6505 C   0  0  0  0  0  0  0  0  0  0  0  0
    0.8553   -8.4259    2.4665 C   0  0  2  0  0  0  0  0  0  0  0  0
   -0.6915   -8.3981    2.6119 C   0  0  0  0  0  0  0  0  0  0  0  0
   -0.9044   -8.3453    4.1309 C   0  0  2  0  0  0  0  0  0  0  0  0
   -0.4783   -6.9612    4.6567 C   0  0  0  0  0  0  0  0  0  0  0  0
    1.0565   -7.0222    4.5901 C   0  0  0  0  0  0  0  0  0  0  0  0
    1.3029   -8.4080    3.9516 C   0  0  1  0  0  0  0  0  0  0  0  0
    0.2205   -9.2395    4.6288 C   0  0  0  0  0  0  0  0  0  0  0  0
    2.6644   -6.8382    1.6607 N   0  0  0  0  0  0  0  0  0  0  0  0
    5.4487   -5.9164    1.4226 H   0  0  0  0  0  0  0  0  0  0  0  0
    1.1634   -9.3635    1.9997 H   0  0  0  0  0  0  0  0  0  0  0  0
   -1.1889   -7.5575    2.1277 H   0  0  0  0  0  0  0  0  0  0  0  0
   -1.1177   -9.3068    2.1875 H   0  0  0  0  0  0  0  0  0  0  0  0
   -1.9057   -8.6495    4.4380 H   0  0  0  0  0  0  0  0  0  0  0  0
   -0.8865   -6.1479    4.0606 H   0  0  0  0  0  0  0  0  0  0  0  0
   -0.8046   -6.8094    5.6830 H   0  0  0  0  0  0  0  0  0  0  0  0
    1.4820   -6.1883    4.0327 H   0  0  0  0  0  0  0  0  0  0  0  0
    1.4894   -6.9829    5.5915 H   0  0  0  0  0  0  0  0  0  0  0  0
    2.3181   -8.7762    4.1026 H   0  0  0  0  0  0  0  0  0  0  0  0
    0.3002   -9.2661    5.7173 H   0  0  0  0  0  0  0  0  0  0  0  0
    0.1538  -10.2639    4.2557 H   0  0  0  0  0  0  0  0  0  0  0  0
  1  5  2  0
  1  2  1  0
  1 18  1  0
  2  3  2  0
  3  4  1  0
  4  5  1  0
  5  6  1  0
  6 17  1  0
  6  7  2  0
  7  8  1  0
  8  9  1  0
  9 10  1  0
  9 17  2  0
 10 15  1  0
 10 11  1  0
 10 19  1  6
 11 12  1  0
 11 20  1  0
 11 21  1  0
 12 16  1  0
 12 13  1  0
 12 22  1  6
 13 14  1  0
 13 23  1  0
 13 24  1  0
 14 15  1  0
 14 25  1  0
 14 26  1  0
 15 16  1  0
 15 27  1  6
 16 28  1  0
 16 29  1  0
M  END
>  <i_m_ct_stereo_status>  (175) 
1

>  <s_m_source_file>  (175) 
/var/tmp/pbs.5076255.sched01/tmp68k5m_u8/43t0xmz28c.sdf

>  <i_m_source_file_index>  (175) 
32

>  <i_lp_mmshare_version>  (175) 
48012

>  <i_f3d_flags>  (175) 
0

>  <s_epik_input>  (175) 
czFubltjSF1jMS1jMm5vYyhuMilbQ0BIXShbQ0gyXVtDQEhdMzQpW0NASF0oW0NIMl00KVtDSDJdW0NIMl0z

>  <s_epik_cmdline>  (175) 
J2VwaWtfcHl0aG9uJywgJy1waHQnLCAnMi4wJywgJy1waCcsICc3LjAnLCAnLXRuJywgJzgnLCAnLW1hJywgJzIwMCcsICctaW1hZScsICc8aW5maWxlLm1hZT4nLCAnLW9tYWUnLCAnPG91dGZpbGUubWFlPic=

>  <r_lp_tautomer_probability>  (175) 
1

>  <r_epik_Ionization_Penalty>  (175) 
1.05684e-10

>  <r_epik_Ionization_Penalty_Charging>  (175) 
0

>  <r_epik_Ionization_Penalty_Neutral>  (175) 
1.05684e-10

>  <r_epik_State_Penalty>  (175) 
-0

>  <r_epik_Charging_Adjusted_Penalty>  (175) 
0

>  <i_epik_Tot_Q>  (175) 
0

>  <i_epik_Tot_abs_Q>  (175) 
0

>  <s_lp_Force_Field>  (175) 
OPLS3e

>  <r_lp_Energy>  (175) 
33.5133

>  <b_lp_Chiralities_Consistent>  (175) 
1

>  <s_lp_Variant>  (175) 
51:0-1

>  <s_i_glide_gridfile>  (175) 
pfpi4k_grid

>  <i_i_glide_lignum>  (175) 
32

>  <i_i_glide_rotatable_bonds>  (175) 
2

>  <r_i_docking_score>  (175) 
-3.20728

>  <r_i_glide_ligand_efficiency>  (175) 
-0.188663

>  <r_i_glide_ligand_efficiency_sa>  (175) 
-0.485107

>  <r_i_glide_ligand_efficiency_ln>  (175) 
-0.836707

>  <r_i_glide_gscore>  (175) 
-3.20728

>  <r_i_glide_lipo>  (175) 
-0.0695749

>  <r_i_glide_hbond>  (175) 
0

>  <r_i_glide_metal>  (175) 
-0

>  <r_i_glide_rewards>  (175) 
-1.7161

>  <r_i_glide_evdw>  (175) 
-22.0526

>  <r_i_glide_ecoul>  (175) 
-4.37693

>  <r_i_glide_erotb>  (175) 
0.566566

>  <r_i_glide_esite>  (175) 
-0.228997

>  <r_i_glide_emodel>  (175) 
-30.7788

>  <r_i_glide_energy>  (175) 
-26.4296

>  <r_i_glide_einternal>  (175) 
2.44569

>  <r_i_glide_intrahb_reward>  (175) 
-0

>  <i_i_glide_confnum>  (175) 
5

>  <i_i_glide_posenum>  (175) 
9

>  <r_i_glide_eff_state_penalty>  (175) 
0

>  <ligand_id>  (175) 
51

>  <original_smiles>  (175) 
c1nnsc1-c1noc(C2CC3CCC2C3)n1

>  <smiles>  (175) 
[H]c1nnsc1-c1noc(C2([H])C([H])([H])C3([H])C([H])([H])C([H])([H])C2([H])C3([H])[H])n1

$$$$
51:0:1
     RDKit          3D

 29 32  0  0  1  0  0  0  0  0999 V2000
    5.1099   -5.3044    0.6153 C   0  0  0  0  0  0  0  0  0  0  0  0
    5.8372   -4.2465    0.0542 N   0  0  0  0  0  0  0  0  0  0  0  0
    5.0944   -3.3368   -0.5206 N   0  0  0  0  0  0  0  0  0  0  0  0
    3.4603   -3.7040   -0.4056 S   0  0  0  0  0  0  0  0  0  0  0  0
    3.7593   -5.1751    0.4513 C   0  0  0  0  0  0  0  0  0  0  0  0
    2.6769   -6.0656    0.8505 C   0  0  0  0  0  0  0  0  0  0  0  0
    1.4188   -5.8558    0.4856 N   0  0  0  0  0  0  0  0  0  0  0  0
    0.7443   -6.9278    1.0872 O   0  0  0  0  0  0  0  0  0  0  0  0
    1.6913   -7.6399    1.7569 C   0  0  0  0  0  0  0  0  0  0  0  0
    1.2967   -8.9005    2.4659 C   0  0  2  0  0  0  0  0  0  0  0  0
   -0.0700   -8.8110    3.1931 C   0  0  0  0  0  0  0  0  0  0  0  0
    0.2768   -9.1548    4.6508 C   0  0  2  0  0  0  0  0  0  0  0  0
    1.0703   -7.9922    5.2775 C   0  0  0  0  0  0  0  0  0  0  0  0
    2.4533   -8.1289    4.6213 C   0  0  0  0  0  0  0  0  0  0  0  0
    2.2378   -9.3034    3.6350 C   0  0  1  0  0  0  0  0  0  0  0  0
    1.3468  -10.2209    4.4686 C   0  0  0  0  0  0  0  0  0  0  0  0
    2.9329   -7.1844    1.5726 N   0  0  0  0  0  0  0  0  0  0  0  0
    5.6286   -6.1185    1.1011 H   0  0  0  0  0  0  0  0  0  0  0  0
    1.2707   -9.7027    1.7229 H   0  0  0  0  0  0  0  0  0  0  0  0
   -0.5544   -7.8364    3.1234 H   0  0  0  0  0  0  0  0  0  0  0  0
   -0.7589   -9.5457    2.7768 H   0  0  0  0  0  0  0  0  0  0  0  0
   -0.5854   -9.4581    5.2423 H   0  0  0  0  0  0  0  0  0  0  0  0
    0.6122   -7.0244    5.0675 H   0  0  0  0  0  0  0  0  0  0  0  0
    1.1531   -8.1033    6.3585 H   0  0  0  0  0  0  0  0  0  0  0  0
    2.7768   -7.1933    4.1669 H   0  0  0  0  0  0  0  0  0  0  0  0
    3.2129   -8.3899    5.3606 H   0  0  0  0  0  0  0  0  0  0  0  0
    3.1685   -9.7611    3.2975 H   0  0  0  0  0  0  0  0  0  0  0  0
    1.8018  -10.5387    5.4091 H   0  0  0  0  0  0  0  0  0  0  0  0
    0.9921  -11.1033    3.9312 H   0  0  0  0  0  0  0  0  0  0  0  0
  1  5  2  0
  1  2  1  0
  1 18  1  0
  2  3  2  0
  3  4  1  0
  4  5  1  0
  5  6  1  0
  6 17  1  0
  6  7  2  0
  7  8  1  0
  8  9  1  0
  9 10  1  0
  9 17  2  0
 10 15  1  0
 10 11  1  0
 10 19  1  6
 11 12  1  0
 11 20  1  0
 11 21  1  0
 12 16  1  0
 12 13  1  0
 12 22  1  1
 13 14  1  0
 13 23  1  0
 13 24  1  0
 14 15  1  0
 14 25  1  0
 14 26  1  0
 15 16  1  0
 15 27  1  6
 16 28  1  0
 16 29  1  0
M  END
>  <i_m_ct_stereo_status>  (176) 
1

>  <s_m_source_file>  (176) 
/var/tmp/pbs.5076255.sched01/tmp68k5m_u8/43t0xmz28c.sdf

>  <i_m_source_file_index>  (176) 
32

>  <i_lp_mmshare_version>  (176) 
48012

>  <i_f3d_flags>  (176) 
0

>  <s_epik_input>  (176) 
czFubltjSF1jMS1jMm5vYyhuMilbQ0BIXShbQ0gyXVtDQEhdMzQpW0NASF0oW0NIMl00KVtDSDJdW0NIMl0z

>  <s_epik_cmdline>  (176) 
J2VwaWtfcHl0aG9uJywgJy1waHQnLCAnMi4wJywgJy1waCcsICc3LjAnLCAnLXRuJywgJzgnLCAnLW1hJywgJzIwMCcsICctaW1hZScsICc8aW5maWxlLm1hZT4nLCAnLW9tYWUnLCAnPG91dGZpbGUubWFlPic=

>  <r_lp_tautomer_probability>  (176) 
1

>  <r_epik_Ionization_Penalty>  (176) 
1.05684e-10

>  <r_epik_Ionization_Penalty_Charging>  (176) 
0

>  <r_epik_Ionization_Penalty_Neutral>  (176) 
1.05684e-10

>  <r_epik_State_Penalty>  (176) 
-0

>  <r_epik_Charging_Adjusted_Penalty>  (176) 
0

>  <i_epik_Tot_Q>  (176) 
0

>  <i_epik_Tot_abs_Q>  (176) 
0

>  <s_lp_Force_Field>  (176) 
OPLS3e

>  <r_lp_Energy>  (176) 
33.5133

>  <b_lp_Chiralities_Consistent>  (176) 
1

>  <s_lp_Variant>  (176) 
51:0-1

>  <s_i_glide_gridfile>  (176) 
pfpi4k_grid

>  <i_i_glide_lignum>  (176) 
32

>  <i_i_glide_rotatable_bonds>  (176) 
2

>  <r_i_docking_score>  (176) 
-3.20315

>  <r_i_glide_ligand_efficiency>  (176) 
-0.188421

>  <r_i_glide_ligand_efficiency_sa>  (176) 
-0.484483

>  <r_i_glide_ligand_efficiency_ln>  (176) 
-0.835631

>  <r_i_glide_gscore>  (176) 
-3.20315

>  <r_i_glide_lipo>  (176) 
-0.0908673

>  <r_i_glide_hbond>  (176) 
0

>  <r_i_glide_metal>  (176) 
-0

>  <r_i_glide_rewards>  (176) 
-1.7161

>  <r_i_glide_evdw>  (176) 
-21.4157

>  <r_i_glide_ecoul>  (176) 
-4.57278

>  <r_i_glide_erotb>  (176) 
0.566566

>  <r_i_glide_esite>  (176) 
-0.206051

>  <r_i_glide_emodel>  (176) 
-30.4246

>  <r_i_glide_energy>  (176) 
-25.9884

>  <r_i_glide_einternal>  (176) 
2.27308

>  <r_i_glide_intrahb_reward>  (176) 
-0

>  <i_i_glide_confnum>  (176) 
5

>  <i_i_glide_posenum>  (176) 
1

>  <r_i_glide_eff_state_penalty>  (176) 
0

>  <ligand_id>  (176) 
51

>  <original_smiles>  (176) 
c1nnsc1-c1noc(C2CC3CCC2C3)n1

>  <smiles>  (176) 
[H]c1nnsc1-c1noc(C2([H])C([H])([H])C3([H])C([H])([H])C([H])([H])C2([H])C3([H])[H])n1

$$$$
51:0:2
     RDKit          3D

 29 32  0  0  1  0  0  0  0  0999 V2000
    0.3449   -6.6462    4.4009 C   0  0  0  0  0  0  0  0  0  0  0  0
   -0.6483   -7.5328    4.8343 N   0  0  0  0  0  0  0  0  0  0  0  0
   -1.2125   -8.2216    3.8801 N   0  0  0  0  0  0  0  0  0  0  0  0
   -0.5604   -7.8574    2.3905 S   0  0  0  0  0  0  0  0  0  0  0  0
    0.5335   -6.6872    3.0462 C   0  0  0  0  0  0  0  0  0  0  0  0
    1.4287   -5.9287    2.2083 C   0  0  0  0  0  0  0  0  0  0  0  0
    1.4111   -6.0827    0.8857 N   0  0  0  0  0  0  0  0  0  0  0  0
    2.3169   -5.0971    0.4769 O   0  0  0  0  0  0  0  0  0  0  0  0
    2.7440   -4.4525    1.6093 C   0  0  0  0  0  0  0  0  0  0  0  0
    3.7821   -3.3682    1.4910 C   0  0  2  0  0  0  0  0  0  0  0  0
    3.5384   -2.4280    0.2886 C   0  0  0  0  0  0  0  0  0  0  0  0
    4.8685   -2.5189   -0.4827 C   0  0  2  0  0  0  0  0  0  0  0  0
    5.0274   -3.9273   -1.0994 C   0  0  0  0  0  0  0  0  0  0  0  0
    5.3818   -4.8148    0.1148 C   0  0  0  0  0  0  0  0  0  0  0  0
    5.2582   -3.8133    1.2796 C   0  0  1  0  0  0  0  0  0  0  0  0
    5.8810   -2.5653    0.6521 C   0  0  0  0  0  0  0  0  0  0  0  0
    2.2102   -4.9388    2.7286 N   0  0  0  0  0  0  0  0  0  0  0  0
    0.8691   -6.0086    5.0998 H   0  0  0  0  0  0  0  0  0  0  0  0
    3.7442   -2.7701    2.4061 H   0  0  0  0  0  0  0  0  0  0  0  0
    2.6946   -2.7230   -0.3396 H   0  0  0  0  0  0  0  0  0  0  0  0
    3.3326   -1.4110    0.6272 H   0  0  0  0  0  0  0  0  0  0  0  0
    4.9940   -1.7090   -1.2022 H   0  0  0  0  0  0  0  0  0  0  0  0
    4.1141   -4.2539   -1.5994 H   0  0  0  0  0  0  0  0  0  0  0  0
    5.8304   -3.9485   -1.8362 H   0  0  0  0  0  0  0  0  0  0  0  0
    4.7516   -5.6982    0.2099 H   0  0  0  0  0  0  0  0  0  0  0  0
    6.4025   -5.1932    0.0378 H   0  0  0  0  0  0  0  0  0  0  0  0
    5.7552   -4.1522    2.1876 H   0  0  0  0  0  0  0  0  0  0  0  0
    6.9047   -2.7121    0.3033 H   0  0  0  0  0  0  0  0  0  0  0  0
    5.8505   -1.6797    1.2901 H   0  0  0  0  0  0  0  0  0  0  0  0
  1  5  2  0
  1  2  1  0
  1 18  1  0
  2  3  2  0
  3  4  1  0
  4  5  1  0
  5  6  1  0
  6 17  1  0
  6  7  2  0
  7  8  1  0
  8  9  1  0
  9 10  1  0
  9 17  2  0
 10 15  1  0
 10 11  1  0
 10 19  1  1
 11 12  1  0
 11 20  1  0
 11 21  1  0
 12 16  1  0
 12 13  1  0
 12 22  1  6
 13 14  1  0
 13 23  1  0
 13 24  1  0
 14 15  1  0
 14 25  1  0
 14 26  1  0
 15 16  1  0
 15 27  1  1
 16 28  1  0
 16 29  1  0
M  END
>  <i_m_ct_stereo_status>  (177) 
1

>  <s_m_source_file>  (177) 
/var/tmp/pbs.5076255.sched01/tmp68k5m_u8/43t0xmz28c.sdf

>  <i_m_source_file_index>  (177) 
32

>  <i_lp_mmshare_version>  (177) 
48012

>  <i_f3d_flags>  (177) 
0

>  <s_epik_input>  (177) 
czFubltjSF1jMS1jMm5vYyhuMilbQ0BIXShbQ0gyXVtDQEhdMzQpW0NASF0oW0NIMl00KVtDSDJdW0NIMl0z

>  <s_epik_cmdline>  (177) 
J2VwaWtfcHl0aG9uJywgJy1waHQnLCAnMi4wJywgJy1waCcsICc3LjAnLCAnLXRuJywgJzgnLCAnLW1hJywgJzIwMCcsICctaW1hZScsICc8aW5maWxlLm1hZT4nLCAnLW9tYWUnLCAnPG91dGZpbGUubWFlPic=

>  <r_lp_tautomer_probability>  (177) 
1

>  <r_epik_Ionization_Penalty>  (177) 
1.05684e-10

>  <r_epik_Ionization_Penalty_Charging>  (177) 
0

>  <r_epik_Ionization_Penalty_Neutral>  (177) 
1.05684e-10

>  <r_epik_State_Penalty>  (177) 
-0

>  <r_epik_Charging_Adjusted_Penalty>  (177) 
0

>  <i_epik_Tot_Q>  (177) 
0

>  <i_epik_Tot_abs_Q>  (177) 
0

>  <s_lp_Force_Field>  (177) 
OPLS3e

>  <r_lp_Energy>  (177) 
33.5133

>  <b_lp_Chiralities_Consistent>  (177) 
1

>  <s_lp_Variant>  (177) 
51:0-1

>  <s_i_glide_gridfile>  (177) 
pfpi4k_grid

>  <i_i_glide_lignum>  (177) 
32

>  <i_i_glide_rotatable_bonds>  (177) 
2

>  <r_i_docking_score>  (177) 
-2.97427

>  <r_i_glide_ligand_efficiency>  (177) 
-0.174957

>  <r_i_glide_ligand_efficiency_sa>  (177) 
-0.449864

>  <r_i_glide_ligand_efficiency_ln>  (177) 
-0.775921

>  <r_i_glide_gscore>  (177) 
-2.97427

>  <r_i_glide_lipo>  (177) 
-0.184973

>  <r_i_glide_hbond>  (177) 
0

>  <r_i_glide_metal>  (177) 
-0

>  <r_i_glide_rewards>  (177) 
-1.7161

>  <r_i_glide_evdw>  (177) 
-22.4232

>  <r_i_glide_ecoul>  (177) 
-1.40555

>  <r_i_glide_erotb>  (177) 
0.566566

>  <r_i_glide_esite>  (177) 
-0.30777

>  <r_i_glide_emodel>  (177) 
-28.212

>  <r_i_glide_energy>  (177) 
-23.8287

>  <r_i_glide_einternal>  (177) 
1.42139

>  <r_i_glide_intrahb_reward>  (177) 
-0

>  <i_i_glide_confnum>  (177) 
6

>  <i_i_glide_posenum>  (177) 
3

>  <r_i_glide_eff_state_penalty>  (177) 
0

>  <ligand_id>  (177) 
51

>  <original_smiles>  (177) 
c1nnsc1-c1noc(C2CC3CCC2C3)n1

>  <smiles>  (177) 
[H]c1nnsc1-c1noc(C2([H])C([H])([H])C3([H])C([H])([H])C([H])([H])C2([H])C3([H])[H])n1

$$$$
52:0:0
     RDKit          3D

 45 48  0  0  1  0  0  0  0  0999 V2000
    7.3383   -8.1247    1.8672 C   0  0  0  0  0  0  0  0  0  0  0  0
    6.8919   -6.6506    1.9718 C   0  0  1  0  0  0  0  0  0  0  0  0
    7.7642   -5.8212    0.9989 C   0  0  0  0  0  0  0  0  0  0  0  0
    7.2214   -4.4265    0.6741 C   0  0  0  0  0  0  0  0  0  0  0  0
    5.7919   -4.5247    0.1192 C   0  0  1  0  0  0  0  0  0  0  0  0
    4.8482   -5.1505    1.1775 C   0  0  1  0  0  0  0  0  0  0  0  0
    3.4306   -5.3081    0.5681 C   0  0  0  0  0  0  0  0  0  0  0  0
    2.8513   -3.9796    0.0638 C   0  0  0  0  0  0  0  0  0  0  0  0
    3.8235   -3.3168   -0.8843 C   0  0  0  0  0  0  0  0  0  0  0  0
    3.5798   -2.8371   -2.1033 C   0  0  0  0  0  0  0  0  0  0  0  0
    4.8211   -2.2627   -2.7291 C   0  0  0  0  0  0  0  0  0  0  0  0
    5.9410   -2.8077   -1.8205 C   0  0  0  0  0  0  0  0  0  0  0  0
    5.2681   -3.1752   -0.4658 C   0  0  2  0  0  0  0  0  0  0  0  0
    5.3847   -1.9914    0.5188 C   0  0  0  0  0  0  0  0  0  0  0  0
    5.3616   -6.5271    1.7129 C   0  0  2  0  0  0  0  0  0  0  0  0
    4.7311   -6.8300    3.0965 C   0  0  0  0  0  0  0  0  0  0  0  0
    5.6928   -6.2756    4.1560 C   0  0  0  0  0  0  0  0  0  0  0  0
    7.0274   -6.2385    3.4398 C   0  0  0  0  0  0  0  0  0  0  0  0
    8.0894   -5.9558    3.9908 O   0  0  0  0  0  0  0  0  0  0  0  0
    7.1183   -8.5351    0.8812 H   0  0  0  0  0  0  0  0  0  0  0  0
    6.8418   -8.7616    2.5999 H   0  0  0  0  0  0  0  0  0  0  0  0
    8.4126   -8.2264    2.0274 H   0  0  0  0  0  0  0  0  0  0  0  0
    8.7756   -5.7205    1.3897 H   0  0  0  0  0  0  0  0  0  0  0  0
    7.8715   -6.3741    0.0703 H   0  0  0  0  0  0  0  0  0  0  0  0
    7.2572   -3.8009    1.5658 H   0  0  0  0  0  0  0  0  0  0  0  0
    7.8748   -3.9520   -0.0602 H   0  0  0  0  0  0  0  0  0  0  0  0
    5.8113   -5.2325   -0.7100 H   0  0  0  0  0  0  0  0  0  0  0  0
    4.7922   -4.4594    2.0207 H   0  0  0  0  0  0  0  0  0  0  0  0
    3.4810   -6.0057   -0.2715 H   0  0  0  0  0  0  0  0  0  0  0  0
    2.7462   -5.7548    1.2889 H   0  0  0  0  0  0  0  0  0  0  0  0
    1.8954   -4.1367   -0.4324 H   0  0  0  0  0  0  0  0  0  0  0  0
    2.6790   -3.3100    0.9043 H   0  0  0  0  0  0  0  0  0  0  0  0
    2.6202   -2.8198   -2.5941 H   0  0  0  0  0  0  0  0  0  0  0  0
    4.9370   -2.5781   -3.7650 H   0  0  0  0  0  0  0  0  0  0  0  0
    4.7698   -1.1734   -2.6926 H   0  0  0  0  0  0  0  0  0  0  0  0
    6.3368   -3.7064   -2.2923 H   0  0  0  0  0  0  0  0  0  0  0  0
    6.7805   -2.1227   -1.7151 H   0  0  0  0  0  0  0  0  0  0  0  0
    6.4257   -1.7433    0.7264 H   0  0  0  0  0  0  0  0  0  0  0  0
    4.8903   -2.2018    1.4666 H   0  0  0  0  0  0  0  0  0  0  0  0
    4.9172   -1.0963    0.1032 H   0  0  0  0  0  0  0  0  0  0  0  0
    5.0659   -7.2982    0.9979 H   0  0  0  0  0  0  0  0  0  0  0  0
    3.7323   -6.4140    3.2176 H   0  0  0  0  0  0  0  0  0  0  0  0
    4.6416   -7.9091    3.2294 H   0  0  0  0  0  0  0  0  0  0  0  0
    5.4238   -5.2643    4.4567 H   0  0  0  0  0  0  0  0  0  0  0  0
    5.7331   -6.8995    5.0482 H   0  0  0  0  0  0  0  0  0  0  0  0
  2  1  1  1
  1 20  1  0
  1 21  1  0
  1 22  1  0
  2 15  1  0
  2 18  1  0
  2  3  1  0
  3  4  1  0
  3 23  1  0
  3 24  1  0
  4  5  1  0
  4 25  1  0
  4 26  1  0
  5 13  1  0
  5  6  1  0
  5 27  1  6
  6  7  1  0
  6 15  1  0
  6 28  1  1
  7  8  1  0
  7 29  1  0
  7 30  1  0
  8  9  1  0
  8 31  1  0
  8 32  1  0
  9 13  1  0
  9 10  2  0
 10 11  1  0
 10 33  1  0
 11 12  1  0
 11 34  1  0
 11 35  1  0
 12 13  1  0
 12 36  1  0
 12 37  1  0
 13 14  1  1
 14 38  1  0
 14 39  1  0
 14 40  1  0
 15 16  1  0
 15 41  1  6
 16 17  1  0
 16 42  1  0
 16 43  1  0
 17 18  1  0
 17 44  1  0
 17 45  1  0
 18 19  2  0
M  END
>  <i_m_ct_stereo_status>  (178) 
1

>  <s_m_source_file>  (178) 
/var/tmp/pbs.5076255.sched01/tmp68k5m_u8/43t0xmz28c.sdf

>  <i_m_source_file_index>  (178) 
33

>  <i_lp_mmshare_version>  (178) 
48012

>  <i_f3d_flags>  (178) 
0

>  <s_epik_input>  (178) 
Tz1DMVtDSDJdW0NIMl1bQ0BIXShbQ0BdMTJbQ0gzXSlbQ0BIXTNbQ0BIXShbQ0gyXVtDSDJdMilbQ0BdNChbQ0gzXSlDKFtDSDJdW0NIMl0zKT1bQ0hdW0NIMl1bQ0gyXTQ=

>  <s_epik_cmdline>  (178) 
J2VwaWtfcHl0aG9uJywgJy1waHQnLCAnMi4wJywgJy1waCcsICc3LjAnLCAnLXRuJywgJzgnLCAnLW1hJywgJzIwMCcsICctaW1hZScsICc8aW5maWxlLm1hZT4nLCAnLW9tYWUnLCAnPG91dGZpbGUubWFlPic=

>  <r_lp_tautomer_probability>  (178) 
1

>  <r_epik_Ionization_Penalty>  (178) 
2.31543e-14

>  <r_epik_Ionization_Penalty_Charging>  (178) 
0

>  <r_epik_Ionization_Penalty_Neutral>  (178) 
2.31543e-14

>  <r_epik_State_Penalty>  (178) 
-0

>  <r_epik_Charging_Adjusted_Penalty>  (178) 
0

>  <i_epik_Tot_Q>  (178) 
0

>  <i_epik_Tot_abs_Q>  (178) 
0

>  <s_lp_Force_Field>  (178) 
OPLS3e

>  <r_lp_Energy>  (178) 
14.2099

>  <b_lp_Chiralities_Consistent>  (178) 
1

>  <s_lp_Variant>  (178) 
52:0-1

>  <s_i_glide_gridfile>  (178) 
pfpi4k_grid

>  <i_i_glide_lignum>  (178) 
33

>  <i_i_glide_rotatable_bonds>  (178) 
0

>  <r_i_docking_score>  (178) 
-3.43277

>  <r_i_glide_ligand_efficiency>  (178) 
-0.180672

>  <r_i_glide_ligand_efficiency_sa>  (178) 
-0.482105

>  <r_i_glide_ligand_efficiency_ln>  (178) 
-0.87028

>  <r_i_glide_gscore>  (178) 
-3.43277

>  <r_i_glide_lipo>  (178) 
-0.726377

>  <r_i_glide_hbond>  (178) 
0

>  <r_i_glide_metal>  (178) 
-0

>  <r_i_glide_rewards>  (178) 
-1.65142

>  <r_i_glide_evdw>  (178) 
-23.3463

>  <r_i_glide_ecoul>  (178) 
0.748976

>  <r_i_glide_erotb>  (178) 
0

>  <r_i_glide_esite>  (178) 
0

>  <r_i_glide_emodel>  (178) 
-27.1193

>  <r_i_glide_energy>  (178) 
-22.5973

>  <r_i_glide_einternal>  (178) 
0

>  <r_i_glide_intrahb_reward>  (178) 
-0

>  <i_i_glide_confnum>  (178) 
1

>  <i_i_glide_posenum>  (178) 
1

>  <r_i_glide_eff_state_penalty>  (178) 
0

>  <ligand_id>  (178) 
52

>  <original_smiles>  (178) 
CC12CCC3C(CCC4=CCCC43C)C1CCC2=O

>  <smiles>  (178) 
[H]C1=C2C([H])([H])C([H])([H])C3([H])C([H])(C([H])([H])C([H])([H])C4(C([H])([H])[H])C(=O)C([H])([H])C([H])([H])C34[H])C2(C([H])([H])[H])C([H])([H])C1([H])[H]

$$$$
52:0:1
     RDKit          3D

 45 48  0  0  1  0  0  0  0  0999 V2000
    5.7748   -2.8775    2.5622 C   0  0  0  0  0  0  0  0  0  0  0  0
    4.7398   -3.2107    1.5043 C   0  0  1  0  0  0  0  0  0  0  0  0
    3.9109   -1.9320    1.3004 C   0  0  0  0  0  0  0  0  0  0  0  0
    3.0905   -1.9502    0.0321 C   0  0  0  0  0  0  0  0  0  0  0  0
    3.9719   -2.1746   -1.1855 C   0  0  1  0  0  0  0  0  0  0  0  0
    4.6669   -3.5342   -1.0828 C   0  0  1  0  0  0  0  0  0  0  0  0
    5.5981   -3.6467   -2.2828 C   0  0  0  0  0  0  0  0  0  0  0  0
    4.8925   -3.6154   -3.6233 C   0  0  0  0  0  0  0  0  0  0  0  0
    4.1441   -2.3060   -3.6858 C   0  0  0  0  0  0  0  0  0  0  0  0
    4.1511   -1.3575   -4.6205 C   0  0  0  0  0  0  0  0  0  0  0  0
    3.2500   -0.2170   -4.3180 C   0  0  0  0  0  0  0  0  0  0  0  0
    3.0139   -0.4857   -2.8386 C   0  0  0  0  0  0  0  0  0  0  0  0
    3.2468   -1.9888   -2.5444 C   0  0  2  0  0  0  0  0  0  0  0  0
    1.9933   -2.8846   -2.7462 C   0  0  0  0  0  0  0  0  0  0  0  0
    5.4529   -3.7366    0.2387 C   0  0  2  0  0  0  0  0  0  0  0  0
    5.6553   -5.2455    0.5303 C   0  0  0  0  0  0  0  0  0  0  0  0
    4.4592   -5.7105    1.3720 C   0  0  0  0  0  0  0  0  0  0  0  0
    3.9488   -4.4259    2.0021 C   0  0  0  0  0  0  0  0  0  0  0  0
    3.0649   -4.3897    2.8484 O   0  0  0  0  0  0  0  0  0  0  0  0
    6.4876   -2.1243    2.2047 H   0  0  0  0  0  0  0  0  0  0  0  0
    6.2855   -3.7960    2.8183 H   0  0  0  0  0  0  0  0  0  0  0  0
    5.3351   -2.4959    3.4829 H   0  0  0  0  0  0  0  0  0  0  0  0
    3.2286   -1.7920    2.1338 H   0  0  0  0  0  0  0  0  0  0  0  0
    4.5710   -1.0608    1.2706 H   0  0  0  0  0  0  0  0  0  0  0  0
    2.2952   -2.6949    0.0815 H   0  0  0  0  0  0  0  0  0  0  0  0
    2.6436   -0.9706   -0.0468 H   0  0  0  0  0  0  0  0  0  0  0  0
    4.7737   -1.4344   -1.1428 H   0  0  0  0  0  0  0  0  0  0  0  0
    3.9089   -4.3110   -1.1575 H   0  0  0  0  0  0  0  0  0  0  0  0
    6.4105   -2.9110   -2.2529 H   0  0  0  0  0  0  0  0  0  0  0  0
    5.9882   -4.6297   -2.2191 H   0  0  0  0  0  0  0  0  0  0  0  0
    5.6156   -3.8314   -4.4042 H   0  0  0  0  0  0  0  0  0  0  0  0
    4.1754   -4.4309   -3.7174 H   0  0  0  0  0  0  0  0  0  0  0  0
    4.6798   -1.3603   -5.5132 H   0  0  0  0  0  0  0  0  0  0  0  0
    3.7217    0.7450   -4.5120 H   0  0  0  0  0  0  0  0  0  0  0  0
    2.3467   -0.2989   -4.9292 H   0  0  0  0  0  0  0  0  0  0  0  0
    3.8027    0.1026   -2.3327 H   0  0  0  0  0  0  0  0  0  0  0  0
    2.0793   -0.1029   -2.5017 H   0  0  0  0  0  0  0  0  0  0  0  0
    1.2227   -2.7260   -2.0020 H   0  0  0  0  0  0  0  0  0  0  0  0
    2.2112   -3.9457   -2.6480 H   0  0  0  0  0  0  0  0  0  0  0  0
    1.5531   -2.6986   -3.7353 H   0  0  0  0  0  0  0  0  0  0  0  0
    6.4247   -3.2463    0.1376 H   0  0  0  0  0  0  0  0  0  0  0  0
    5.7531   -5.8479   -0.3704 H   0  0  0  0  0  0  0  0  0  0  0  0
    6.5733   -5.3905    1.0995 H   0  0  0  0  0  0  0  0  0  0  0  0
    3.6685   -6.1295    0.7501 H   0  0  0  0  0  0  0  0  0  0  0  0
    4.7425   -6.4528    2.1225 H   0  0  0  0  0  0  0  0  0  0  0  0
  2  1  1  1
  1 20  1  0
  1 21  1  0
  1 22  1  0
  2 15  1  0
  2 18  1  0
  2  3  1  0
  3  4  1  0
  3 23  1  0
  3 24  1  0
  4  5  1  0
  4 25  1  0
  4 26  1  0
  5 13  1  0
  5  6  1  0
  5 27  1  1
  6  7  1  0
  6 15  1  0
  6 28  1  6
  7  8  1  0
  7 29  1  0
  7 30  1  0
  8  9  1  0
  8 31  1  0
  8 32  1  0
  9 13  1  0
  9 10  2  0
 10 11  1  0
 10 33  1  0
 11 12  1  0
 11 34  1  0
 11 35  1  0
 12 13  1  0
 12 36  1  0
 12 37  1  0
 13 14  1  1
 14 38  1  0
 14 39  1  0
 14 40  1  0
 15 16  1  0
 15 41  1  6
 16 17  1  0
 16 42  1  0
 16 43  1  0
 17 18  1  0
 17 44  1  0
 17 45  1  0
 18 19  2  0
M  END
>  <i_m_ct_stereo_status>  (179) 
1

>  <s_m_source_file>  (179) 
/var/tmp/pbs.5076255.sched01/tmp68k5m_u8/43t0xmz28c.sdf

>  <i_m_source_file_index>  (179) 
33

>  <i_lp_mmshare_version>  (179) 
48012

>  <i_f3d_flags>  (179) 
0

>  <s_epik_input>  (179) 
Tz1DMVtDSDJdW0NIMl1bQ0BIXShbQ0BdMTJbQ0gzXSlbQ0BIXTNbQ0BIXShbQ0gyXVtDSDJdMilbQ0BdNChbQ0gzXSlDKFtDSDJdW0NIMl0zKT1bQ0hdW0NIMl1bQ0gyXTQ=

>  <s_epik_cmdline>  (179) 
J2VwaWtfcHl0aG9uJywgJy1waHQnLCAnMi4wJywgJy1waCcsICc3LjAnLCAnLXRuJywgJzgnLCAnLW1hJywgJzIwMCcsICctaW1hZScsICc8aW5maWxlLm1hZT4nLCAnLW9tYWUnLCAnPG91dGZpbGUubWFlPic=

>  <r_lp_tautomer_probability>  (179) 
1

>  <r_epik_Ionization_Penalty>  (179) 
2.31543e-14

>  <r_epik_Ionization_Penalty_Charging>  (179) 
0

>  <r_epik_Ionization_Penalty_Neutral>  (179) 
2.31543e-14

>  <r_epik_State_Penalty>  (179) 
-0

>  <r_epik_Charging_Adjusted_Penalty>  (179) 
0

>  <i_epik_Tot_Q>  (179) 
0

>  <i_epik_Tot_abs_Q>  (179) 
0

>  <s_lp_Force_Field>  (179) 
OPLS3e

>  <r_lp_Energy>  (179) 
14.2099

>  <b_lp_Chiralities_Consistent>  (179) 
1

>  <s_lp_Variant>  (179) 
52:0-1

>  <s_i_glide_gridfile>  (179) 
pfpi4k_grid

>  <i_i_glide_lignum>  (179) 
33

>  <i_i_glide_rotatable_bonds>  (179) 
0

>  <r_i_docking_score>  (179) 
-2.69192

>  <r_i_glide_ligand_efficiency>  (179) 
-0.14168

>  <r_i_glide_ligand_efficiency_sa>  (179) 
-0.37806

>  <r_i_glide_ligand_efficiency_ln>  (179) 
-0.682461

>  <r_i_glide_gscore>  (179) 
-2.69192

>  <r_i_glide_lipo>  (179) 
-1.07796

>  <r_i_glide_hbond>  (179) 
0

>  <r_i_glide_metal>  (179) 
-0

>  <r_i_glide_rewards>  (179) 
-1.70484

>  <r_i_glide_evdw>  (179) 
-1.31269

>  <r_i_glide_ecoul>  (179) 
1.04343

>  <r_i_glide_erotb>  (179) 
0

>  <r_i_glide_esite>  (179) 
0

>  <r_i_glide_emodel>  (179) 
-2.13122

>  <r_i_glide_energy>  (179) 
-0.26926

>  <r_i_glide_einternal>  (179) 
0

>  <r_i_glide_intrahb_reward>  (179) 
-0

>  <i_i_glide_confnum>  (179) 
2

>  <i_i_glide_posenum>  (179) 
7

>  <r_i_glide_eff_state_penalty>  (179) 
0

>  <ligand_id>  (179) 
52

>  <original_smiles>  (179) 
CC12CCC3C(CCC4=CCCC43C)C1CCC2=O

>  <smiles>  (179) 
[H]C1=C2C([H])([H])C([H])([H])C3([H])C([H])(C([H])([H])C([H])([H])C4(C([H])([H])[H])C(=O)C([H])([H])C([H])([H])C34[H])C2(C([H])([H])[H])C([H])([H])C1([H])[H]

$$$$
53:0:0
     RDKit          3D

 44 48  0  0  1  0  0  0  0  0999 V2000
    2.5476    3.4317    2.8165 N   0  0  0  0  0  0  0  0  0  0  0  0
    2.1829    2.1092    2.8067 C   0  0  0  0  0  0  0  0  0  0  0  0
    2.9011    1.0663    3.0853 N   0  0  0  0  0  0  0  0  0  0  0  0
    2.0266   -0.0756    2.9876 C   0  0  1  0  0  0  0  0  0  0  0  0
    0.7347    0.4937    2.3229 C   0  0  0  0  0  0  0  0  0  0  0  0
    0.8994    1.8835    2.4445 O   0  0  0  0  0  0  0  0  0  0  0  0
    2.7462   -1.1404    2.2107 C   0  0  0  0  0  0  0  0  0  0  0  0
    3.0215   -1.2077    0.8408 C   0  0  0  0  0  0  0  0  0  0  0  0
    3.7706   -2.3259    0.3708 C   0  0  0  0  0  0  0  0  0  0  0  0
    4.0954   -2.5636   -1.0523 C   0  0  0  0  0  0  0  0  0  0  0  0
    3.4682   -1.9111   -2.0515 C   0  0  0  0  0  0  0  0  0  0  0  0
    3.7737   -2.1499   -3.5157 C   0  0  0  0  0  0  0  0  0  0  0  0
    4.5981   -3.4257   -3.6987 C   0  0  0  0  0  0  0  0  0  0  0  0
    5.6536   -3.4260   -2.7559 O   0  0  0  0  0  0  0  0  0  0  0  0
    5.1843   -3.5735   -1.4160 C   0  0  0  0  0  0  0  0  0  0  0  0
    4.2144   -3.2499    1.2688 N   0  0  0  0  0  0  0  0  0  0  0  0
    3.9771   -3.1862    2.5990 C   0  0  0  0  0  0  0  0  0  0  0  0
    3.2166   -2.1079    3.0762 C   0  0  0  0  0  0  0  0  0  0  0  0
    2.8684   -1.8692    4.3759 O   0  0  0  0  0  0  0  0  0  0  0  0
    1.9085   -0.8008    4.3835 C   0  0  1  0  0  0  0  0  0  0  0  0
    2.1585    0.0291    5.6395 C   0  0  0  0  0  0  0  0  0  0  0  0
    1.6289   -0.8806    6.7366 C   0  0  0  0  0  0  0  0  0  0  0  0
    0.5537   -1.6336    6.1606 O   0  0  0  0  0  0  0  0  0  0  0  0
    0.5744   -1.4920    4.7439 C   0  0  0  0  0  0  0  0  0  0  0  0
    3.5039    3.7488    2.8949 H   0  0  0  0  0  0  0  0  0  0  0  0
    0.6804    0.2586    1.2648 H   0  0  0  0  0  0  0  0  0  0  0  0
   -0.2203    0.1944    2.7489 H   0  0  0  0  0  0  0  0  0  0  0  0
    2.6494   -0.4435    0.1644 H   0  0  0  0  0  0  0  0  0  0  0  0
    2.6903   -1.1856   -1.8763 H   0  0  0  0  0  0  0  0  0  0  0  0
    2.8339   -2.2249   -4.0660 H   0  0  0  0  0  0  0  0  0  0  0  0
    4.3079   -1.2782   -3.8942 H   0  0  0  0  0  0  0  0  0  0  0  0
    3.9666   -4.2971   -3.5690 H   0  0  0  0  0  0  0  0  0  0  0  0
    5.0086   -3.4839   -4.7013 H   0  0  0  0  0  0  0  0  0  0  0  0
    6.0476   -3.4225   -0.7719 H   0  0  0  0  0  0  0  0  0  0  0  0
    4.8195   -4.5880   -1.2420 H   0  0  0  0  0  0  0  0  0  0  0  0
    4.3847   -3.9714    3.2144 H   0  0  0  0  0  0  0  0  0  0  0  0
    3.2142    0.3104    5.7820 H   0  0  0  0  0  0  0  0  0  0  0  0
    1.5682    0.9470    5.6073 H   0  0  0  0  0  0  0  0  0  0  0  0
    2.4002   -1.5902    7.0540 H   0  0  0  0  0  0  0  0  0  0  0  0
    1.2978   -0.3288    7.6287 H   0  0  0  0  0  0  0  0  0  0  0  0
   -0.2979   -0.8778    4.5537 H   0  0  0  0  0  0  0  0  0  0  0  0
    0.4352   -2.4427    4.2212 H   0  0  0  0  0  0  0  0  0  0  0  0
    1.9139    4.1655    2.5001 H   0  0  0  0  0  0  0  0  0  0  0  0
    4.7570   -4.0429    0.9148 H   0  0  0  0  0  0  0  0  0  0  0  0
  1  2  1  0
  1 25  1  0
  1 43  1  0
  2  6  1  0
  2  3  2  0
  3  4  1  0
  4 20  1  0
  4  5  1  6
  4  7  1  0
  5  6  1  0
  5 26  1  0
  5 27  1  0
  7 18  1  0
  7  8  2  0
  8  9  1  0
  8 28  1  0
  9 10  1  0
  9 16  2  0
 10 15  1  0
 10 11  2  0
 11 12  1  0
 11 29  1  0
 12 13  1  0
 12 30  1  0
 12 31  1  0
 13 14  1  0
 13 32  1  0
 13 33  1  0
 14 15  1  0
 15 34  1  0
 15 35  1  0
 16 17  1  0
 16 44  1  0
 17 18  2  0
 17 36  1  0
 18 19  1  0
 20 19  1  6
 20 24  1  0
 20 21  1  0
 21 22  1  0
 21 37  1  0
 21 38  1  0
 22 23  1  0
 22 39  1  0
 22 40  1  0
 23 24  1  0
 24 41  1  0
 24 42  1  0
M  CHG  1  16   1
M  END
>  <i_m_ct_stereo_status>  (180) 
1

>  <s_m_source_file>  (180) 
/var/tmp/pbs.5076255.sched01/tmp68k5m_u8/43t0xmz28c.sdf

>  <i_m_source_file_index>  (180) 
34

>  <i_lp_mmshare_version>  (180) 
48012

>  <i_f3d_flags>  (180) 
0

>  <s_epik_input>  (180) 
W0NIMl0xT0MoPU5cW0hdKS9bTkhdW0NAQF0xMltDQF0zKFtDSDJdW0NIMl1PW0NIMl0zKU9jNGMyW2NIXWMobltjSF00KUM1PVtDSF1bQ0gyXVtDSDJdT1tDSDJdNQ==

>  <s_epik_cmdline>  (180) 
J2VwaWtfcHl0aG9uJywgJy1waHQnLCAnMi4wJywgJy1waCcsICc3LjAnLCAnLXRuJywgJzgnLCAnLW1hJywgJzIwMCcsICctaW1hZScsICc8aW5maWxlLm1hZT4nLCAnLW9tYWUnLCAnPG91dGZpbGUubWFlPic=

>  <r_epik_Ionization_Penalty>  (180) 
0.459855

>  <r_epik_Ionization_Penalty_Charging>  (180) 
0.459855

>  <r_epik_Ionization_Penalty_Neutral>  (180) 
2.51145e-13

>  <r_epik_State_Penalty>  (180) 
0.479884

>  <r_epik_Charging_Adjusted_Penalty>  (180) 
0.939739

>  <i_epik_Tot_Q>  (180) 
1

>  <i_epik_Tot_abs_Q>  (180) 
1

>  <s_epik_Chemistry_Notes>  (180) 
This compound has an imine and may undergo hydrolysis.

>  <s_lp_Force_Field>  (180) 
OPLS3e

>  <r_lp_Energy>  (180) 
11.2491

>  <b_lp_Chiralities_Consistent>  (180) 
1

>  <s_lp_Variant>  (180) 
53:0-1

>  <s_i_glide_gridfile>  (180) 
pfpi4k_grid

>  <i_i_glide_lignum>  (180) 
34

>  <i_i_glide_rotatable_bonds>  (180) 
1

>  <r_i_docking_score>  (180) 
-3.8035

>  <r_i_glide_ligand_efficiency>  (180) 
-0.158479

>  <r_i_glide_ligand_efficiency_sa>  (180) 
-0.457133

>  <r_i_glide_ligand_efficiency_ln>  (180) 
-0.910353

>  <r_i_glide_gscore>  (180) 
-3.8035

>  <r_i_glide_lipo>  (180) 
-0.459824

>  <r_i_glide_hbond>  (180) 
-0.0284717

>  <r_i_glide_metal>  (180) 
-0

>  <r_i_glide_rewards>  (180) 
-1.15665

>  <r_i_glide_evdw>  (180) 
-26.0516

>  <r_i_glide_ecoul>  (180) 
-6.41647

>  <r_i_glide_erotb>  (180) 
0.172326

>  <r_i_glide_esite>  (180) 
-0.0658337

>  <r_i_glide_emodel>  (180) 
-41.0668

>  <r_i_glide_energy>  (180) 
-32.4681

>  <r_i_glide_einternal>  (180) 
0.136422

>  <r_i_glide_intrahb_reward>  (180) 
-0

>  <i_i_glide_confnum>  (180) 
3

>  <i_i_glide_posenum>  (180) 
2

>  <r_i_glide_eff_state_penalty>  (180) 
0

>  <ligand_id>  (180) 
53

>  <original_smiles>  (180) 
N=C1NC2(CO1)c1cc(C3=CCCOC3)ncc1OC21CCOC1

>  <smiles>  (180) 
[H]C1=C(c2c([H])c3c(c([H])[n+]2[H])OC2(C([H])([H])OC([H])([H])C2([H])[H])C32N=C(N([H])[H])OC2([H])[H])C([H])([H])OC([H])([H])C1([H])[H]

$$$$
53:0:1
     RDKit          3D

 44 48  0  0  1  0  0  0  0  0999 V2000
    3.1888    1.0776    8.1153 N   0  0  0  0  0  0  0  0  0  0  0  0
    2.8728    1.6434    6.8972 C   0  0  0  0  0  0  0  0  0  0  0  0
    2.0429    1.2405    6.0089 N   0  0  0  0  0  0  0  0  0  0  0  0
    2.0627    2.2206    4.9422 C   0  0  1  0  0  0  0  0  0  0  0  0
    3.2850    3.1258    5.2926 C   0  0  0  0  0  0  0  0  0  0  0  0
    3.5724    2.7782    6.6292 O   0  0  0  0  0  0  0  0  0  0  0  0
    2.1615    1.4798    3.6451 C   0  0  0  0  0  0  0  0  0  0  0  0
    3.2511    0.7948    3.0801 C   0  0  0  0  0  0  0  0  0  0  0  0
    3.0378    0.1333    1.8402 C   0  0  0  0  0  0  0  0  0  0  0  0
    4.1185   -0.5744    1.1098 C   0  0  0  0  0  0  0  0  0  0  0  0
    3.9395   -1.0643   -0.1344 C   0  0  0  0  0  0  0  0  0  0  0  0
    5.0011   -1.8272   -0.8952 C   0  0  0  0  0  0  0  0  0  0  0  0
    6.1299   -2.2704    0.0397 C   0  0  0  0  0  0  0  0  0  0  0  0
    6.4916   -1.1756    0.8579 O   0  0  0  0  0  0  0  0  0  0  0  0
    5.4678   -0.8109    1.7820 C   0  0  0  0  0  0  0  0  0  0  0  0
    1.7906    0.1423    1.2997 N   0  0  0  0  0  0  0  0  0  0  0  0
    0.7351    0.7959    1.8257 C   0  0  0  0  0  0  0  0  0  0  0  0
    0.9231    1.4737    3.0289 C   0  0  0  0  0  0  0  0  0  0  0  0
   -0.0271    2.1566    3.7335 O   0  0  0  0  0  0  0  0  0  0  0  0
    0.6401    2.8892    4.7704 C   0  0  1  0  0  0  0  0  0  0  0  0
   -0.2826    2.9003    5.9762 C   0  0  0  0  0  0  0  0  0  0  0  0
   -1.3580    3.8894    5.5334 C   0  0  0  0  0  0  0  0  0  0  0  0
   -0.7207    4.8361    4.6786 O   0  0  0  0  0  0  0  0  0  0  0  0
    0.5679    4.3583    4.3028 C   0  0  0  0  0  0  0  0  0  0  0  0
    2.8055    0.2053    8.4494 H   0  0  0  0  0  0  0  0  0  0  0  0
    4.1648    2.8832    4.6952 H   0  0  0  0  0  0  0  0  0  0  0  0
    3.1483    4.2001    5.2139 H   0  0  0  0  0  0  0  0  0  0  0  0
    4.2124    0.8082    3.5823 H   0  0  0  0  0  0  0  0  0  0  0  0
    3.0194   -0.9398   -0.6847 H   0  0  0  0  0  0  0  0  0  0  0  0
    4.5481   -2.6929   -1.3786 H   0  0  0  0  0  0  0  0  0  0  0  0
    5.3732   -1.1743   -1.6832 H   0  0  0  0  0  0  0  0  0  0  0  0
    5.8163   -3.1111    0.6606 H   0  0  0  0  0  0  0  0  0  0  0  0
    6.9975   -2.5856   -0.5367 H   0  0  0  0  0  0  0  0  0  0  0  0
    5.8175    0.1116    2.2415 H   0  0  0  0  0  0  0  0  0  0  0  0
    5.3504   -1.5534    2.5738 H   0  0  0  0  0  0  0  0  0  0  0  0
   -0.1960    0.7371    1.2808 H   0  0  0  0  0  0  0  0  0  0  0  0
   -0.6904    1.9167    6.2405 H   0  0  0  0  0  0  0  0  0  0  0  0
    0.2354    3.3083    6.8442 H   0  0  0  0  0  0  0  0  0  0  0  0
   -2.1385    3.3848    4.9577 H   0  0  0  0  0  0  0  0  0  0  0  0
   -1.8218    4.3817    6.3893 H   0  0  0  0  0  0  0  0  0  0  0  0
    1.2349    5.0179    4.8478 H   0  0  0  0  0  0  0  0  0  0  0  0
    0.7786    4.4797    3.2364 H   0  0  0  0  0  0  0  0  0  0  0  0
    3.8378    1.4849    8.7737 H   0  0  0  0  0  0  0  0  0  0  0  0
    1.5974   -0.3414    0.3849 H   0  0  0  0  0  0  0  0  0  0  0  0
  1  2  1  0
  1 25  1  0
  1 43  1  0
  2  6  1  0
  2  3  2  0
  3  4  1  0
  4 20  1  0
  4  5  1  1
  4  7  1  0
  5  6  1  0
  5 26  1  0
  5 27  1  0
  7 18  1  0
  7  8  2  0
  8  9  1  0
  8 28  1  0
  9 10  1  0
  9 16  2  0
 10 15  1  0
 10 11  2  0
 11 12  1  0
 11 29  1  0
 12 13  1  0
 12 30  1  0
 12 31  1  0
 13 14  1  0
 13 32  1  0
 13 33  1  0
 14 15  1  0
 15 34  1  0
 15 35  1  0
 16 17  1  0
 16 44  1  0
 17 18  2  0
 17 36  1  0
 18 19  1  0
 20 19  1  6
 20 24  1  0
 20 21  1  0
 21 22  1  0
 21 37  1  0
 21 38  1  0
 22 23  1  0
 22 39  1  0
 22 40  1  0
 23 24  1  0
 24 41  1  0
 24 42  1  0
M  CHG  1  16   1
M  END
>  <i_m_ct_stereo_status>  (181) 
1

>  <s_m_source_file>  (181) 
/var/tmp/pbs.5076255.sched01/tmp68k5m_u8/43t0xmz28c.sdf

>  <i_m_source_file_index>  (181) 
34

>  <i_lp_mmshare_version>  (181) 
48012

>  <i_f3d_flags>  (181) 
0

>  <s_epik_input>  (181) 
W0NIMl0xT0MoPU5cW0hdKS9bTkhdW0NAQF0xMltDQF0zKFtDSDJdW0NIMl1PW0NIMl0zKU9jNGMyW2NIXWMobltjSF00KUM1PVtDSF1bQ0gyXVtDSDJdT1tDSDJdNQ==

>  <s_epik_cmdline>  (181) 
J2VwaWtfcHl0aG9uJywgJy1waHQnLCAnMi4wJywgJy1waCcsICc3LjAnLCAnLXRuJywgJzgnLCAnLW1hJywgJzIwMCcsICctaW1hZScsICc8aW5maWxlLm1hZT4nLCAnLW9tYWUnLCAnPG91dGZpbGUubWFlPic=

>  <r_epik_Ionization_Penalty>  (181) 
0.459855

>  <r_epik_Ionization_Penalty_Charging>  (181) 
0.459855

>  <r_epik_Ionization_Penalty_Neutral>  (181) 
2.51145e-13

>  <r_epik_State_Penalty>  (181) 
0.479884

>  <r_epik_Charging_Adjusted_Penalty>  (181) 
0.939739

>  <i_epik_Tot_Q>  (181) 
1

>  <i_epik_Tot_abs_Q>  (181) 
1

>  <s_epik_Chemistry_Notes>  (181) 
This compound has an imine and may undergo hydrolysis.

>  <s_lp_Force_Field>  (181) 
OPLS3e

>  <r_lp_Energy>  (181) 
11.2491

>  <b_lp_Chiralities_Consistent>  (181) 
1

>  <s_lp_Variant>  (181) 
53:0-1

>  <s_i_glide_gridfile>  (181) 
pfpi4k_grid

>  <i_i_glide_lignum>  (181) 
34

>  <i_i_glide_rotatable_bonds>  (181) 
1

>  <r_i_docking_score>  (181) 
-3.66998

>  <r_i_glide_ligand_efficiency>  (181) 
-0.152916

>  <r_i_glide_ligand_efficiency_sa>  (181) 
-0.441085

>  <r_i_glide_ligand_efficiency_ln>  (181) 
-0.878394

>  <r_i_glide_gscore>  (181) 
-3.66998

>  <r_i_glide_lipo>  (181) 
-0.232183

>  <r_i_glide_hbond>  (181) 
-0.205506

>  <r_i_glide_metal>  (181) 
-0

>  <r_i_glide_rewards>  (181) 
-1.15665

>  <r_i_glide_evdw>  (181) 
-20.6158

>  <r_i_glide_ecoul>  (181) 
-7.51852

>  <r_i_glide_erotb>  (181) 
0.172326

>  <r_i_glide_esite>  (181) 
-0.0893985

>  <r_i_glide_emodel>  (181) 
-36.2927

>  <r_i_glide_energy>  (181) 
-28.1344

>  <r_i_glide_einternal>  (181) 
0.333718

>  <r_i_glide_intrahb_reward>  (181) 
-0

>  <i_i_glide_confnum>  (181) 
1

>  <i_i_glide_posenum>  (181) 
1

>  <r_i_glide_eff_state_penalty>  (181) 
0

>  <ligand_id>  (181) 
53

>  <original_smiles>  (181) 
N=C1NC2(CO1)c1cc(C3=CCCOC3)ncc1OC21CCOC1

>  <smiles>  (181) 
[H]C1=C(c2c([H])c3c(c([H])[n+]2[H])OC2(C([H])([H])OC([H])([H])C2([H])[H])C32N=C(N([H])[H])OC2([H])[H])C([H])([H])OC([H])([H])C1([H])[H]

$$$$
53:0:2
     RDKit          3D

 44 48  0  0  1  0  0  0  0  0999 V2000
    4.4292    4.4734    5.6827 N   0  0  0  0  0  0  0  0  0  0  0  0
    3.4152    4.0285    4.8763 C   0  0  0  0  0  0  0  0  0  0  0  0
    2.7050    2.9355    4.9928 N   0  0  0  0  0  0  0  0  0  0  0  0
    1.7513    2.9659    3.9103 C   0  0  1  0  0  0  0  0  0  0  0  0
    2.2320    4.1323    2.9964 C   0  0  0  0  0  0  0  0  0  0  0  0
    3.1556    4.8177    3.8175 O   0  0  0  0  0  0  0  0  0  0  0  0
    1.7348    1.6049    3.2791 C   0  0  0  0  0  0  0  0  0  0  0  0
    2.6988    1.0083    2.4394 C   0  0  0  0  0  0  0  0  0  0  0  0
    2.4579   -0.3348    2.0335 C   0  0  0  0  0  0  0  0  0  0  0  0
    3.3596   -1.0939    1.1369 C   0  0  0  0  0  0  0  0  0  0  0  0
    4.3833   -0.5099    0.4793 C   0  0  0  0  0  0  0  0  0  0  0  0
    5.2895   -1.2485   -0.4748 C   0  0  0  0  0  0  0  0  0  0  0  0
    4.7031   -2.6131   -0.8526 C   0  0  0  0  0  0  0  0  0  0  0  0
    4.2501   -3.2505    0.3287 O   0  0  0  0  0  0  0  0  0  0  0  0
    3.1333   -2.5909    0.9110 C   0  0  0  0  0  0  0  0  0  0  0  0
    1.3554   -0.9823    2.4800 N   0  0  0  0  0  0  0  0  0  0  0  0
    0.4357   -0.4279    3.3016 C   0  0  0  0  0  0  0  0  0  0  0  0
    0.6277    0.9096    3.7037 C   0  0  0  0  0  0  0  0  0  0  0  0
   -0.1760    1.6308    4.5255 O   0  0  0  0  0  0  0  0  0  0  0  0
    0.2727    2.9993    4.4885 C   0  0  1  0  0  0  0  0  0  0  0  0
    0.0786    3.5766    5.8770 C   0  0  0  0  0  0  0  0  0  0  0  0
   -1.4548    3.7531    5.9250 C   0  0  0  0  0  0  0  0  0  0  0  0
   -1.8648    4.0386    4.5890 O   0  0  0  0  0  0  0  0  0  0  0  0
   -0.8112    3.7327    3.6791 C   0  0  0  0  0  0  0  0  0  0  0  0
    4.8009    3.9744    6.4800 H   0  0  0  0  0  0  0  0  0  0  0  0
    2.7741    3.7718    2.1211 H   0  0  0  0  0  0  0  0  0  0  0  0
    1.4881    4.8256    2.6264 H   0  0  0  0  0  0  0  0  0  0  0  0
    3.5686    1.5592    2.1470 H   0  0  0  0  0  0  0  0  0  0  0  0
    4.6090    0.5404    0.5724 H   0  0  0  0  0  0  0  0  0  0  0  0
    5.4272   -0.6411   -1.3694 H   0  0  0  0  0  0  0  0  0  0  0  0
    6.2605   -1.3555    0.0100 H   0  0  0  0  0  0  0  0  0  0  0  0
    3.8777   -2.5015   -1.5581 H   0  0  0  0  0  0  0  0  0  0  0  0
    5.4631   -3.2310   -1.3264 H   0  0  0  0  0  0  0  0  0  0  0  0
    2.9588   -3.0753    1.8727 H   0  0  0  0  0  0  0  0  0  0  0  0
    2.2338   -2.7333    0.3079 H   0  0  0  0  0  0  0  0  0  0  0  0
   -0.3985   -1.0358    3.6032 H   0  0  0  0  0  0  0  0  0  0  0  0
    0.4510    2.9516    6.6918 H   0  0  0  0  0  0  0  0  0  0  0  0
    0.5433    4.5610    5.9468 H   0  0  0  0  0  0  0  0  0  0  0  0
   -1.9337    2.8196    6.2390 H   0  0  0  0  0  0  0  0  0  0  0  0
   -1.7572    4.5425    6.6175 H   0  0  0  0  0  0  0  0  0  0  0  0
   -0.5151    4.7208    3.3468 H   0  0  0  0  0  0  0  0  0  0  0  0
   -1.1417    3.1773    2.7996 H   0  0  0  0  0  0  0  0  0  0  0  0
    4.9185    5.3513    5.5267 H   0  0  0  0  0  0  0  0  0  0  0  0
    1.2056   -1.9487    2.1726 H   0  0  0  0  0  0  0  0  0  0  0  0
  1  2  1  0
  1 25  1  0
  1 43  1  0
  2  6  1  0
  2  3  2  0
  3  4  1  0
  4 20  1  0
  4  5  1  6
  4  7  1  0
  5  6  1  0
  5 26  1  0
  5 27  1  0
  7 18  1  0
  7  8  2  0
  8  9  1  0
  8 28  1  0
  9 10  1  0
  9 16  2  0
 10 15  1  0
 10 11  2  0
 11 12  1  0
 11 29  1  0
 12 13  1  0
 12 30  1  0
 12 31  1  0
 13 14  1  0
 13 32  1  0
 13 33  1  0
 14 15  1  0
 15 34  1  0
 15 35  1  0
 16 17  1  0
 16 44  1  0
 17 18  2  0
 17 36  1  0
 18 19  1  0
 20 19  1  1
 20 24  1  0
 20 21  1  0
 21 22  1  0
 21 37  1  0
 21 38  1  0
 22 23  1  0
 22 39  1  0
 22 40  1  0
 23 24  1  0
 24 41  1  0
 24 42  1  0
M  CHG  1  16   1
M  END
>  <i_m_ct_stereo_status>  (182) 
1

>  <s_m_source_file>  (182) 
/var/tmp/pbs.5076255.sched01/tmp68k5m_u8/43t0xmz28c.sdf

>  <i_m_source_file_index>  (182) 
34

>  <i_lp_mmshare_version>  (182) 
48012

>  <i_f3d_flags>  (182) 
0

>  <s_epik_input>  (182) 
W0NIMl0xT0MoPU5cW0hdKS9bTkhdW0NAQF0xMltDQF0zKFtDSDJdW0NIMl1PW0NIMl0zKU9jNGMyW2NIXWMobltjSF00KUM1PVtDSF1bQ0gyXVtDSDJdT1tDSDJdNQ==

>  <s_epik_cmdline>  (182) 
J2VwaWtfcHl0aG9uJywgJy1waHQnLCAnMi4wJywgJy1waCcsICc3LjAnLCAnLXRuJywgJzgnLCAnLW1hJywgJzIwMCcsICctaW1hZScsICc8aW5maWxlLm1hZT4nLCAnLW9tYWUnLCAnPG91dGZpbGUubWFlPic=

>  <r_epik_Ionization_Penalty>  (182) 
0.459855

>  <r_epik_Ionization_Penalty_Charging>  (182) 
0.459855

>  <r_epik_Ionization_Penalty_Neutral>  (182) 
2.51145e-13

>  <r_epik_State_Penalty>  (182) 
0.479884

>  <r_epik_Charging_Adjusted_Penalty>  (182) 
0.939739

>  <i_epik_Tot_Q>  (182) 
1

>  <i_epik_Tot_abs_Q>  (182) 
1

>  <s_epik_Chemistry_Notes>  (182) 
This compound has an imine and may undergo hydrolysis.

>  <s_lp_Force_Field>  (182) 
OPLS3e

>  <r_lp_Energy>  (182) 
11.2491

>  <b_lp_Chiralities_Consistent>  (182) 
1

>  <s_lp_Variant>  (182) 
53:0-1

>  <s_i_glide_gridfile>  (182) 
pfpi4k_grid

>  <i_i_glide_lignum>  (182) 
34

>  <i_i_glide_rotatable_bonds>  (182) 
1

>  <r_i_docking_score>  (182) 
-3.37991

>  <r_i_glide_ligand_efficiency>  (182) 
-0.14083

>  <r_i_glide_ligand_efficiency_sa>  (182) 
-0.406223

>  <r_i_glide_ligand_efficiency_ln>  (182) 
-0.808968

>  <r_i_glide_gscore>  (182) 
-3.37991

>  <r_i_glide_lipo>  (182) 
-0.141703

>  <r_i_glide_hbond>  (182) 
0

>  <r_i_glide_metal>  (182) 
-0

>  <r_i_glide_rewards>  (182) 
-1.15665

>  <r_i_glide_evdw>  (182) 
-23.3707

>  <r_i_glide_ecoul>  (182) 
-6.96532

>  <r_i_glide_erotb>  (182) 
0.172326

>  <r_i_glide_esite>  (182) 
-0.0405536

>  <r_i_glide_emodel>  (182) 
-37.9315

>  <r_i_glide_energy>  (182) 
-30.336

>  <r_i_glide_einternal>  (182) 
0.211288

>  <r_i_glide_intrahb_reward>  (182) 
-0

>  <i_i_glide_confnum>  (182) 
2

>  <i_i_glide_posenum>  (182) 
24

>  <r_i_glide_eff_state_penalty>  (182) 
0

>  <ligand_id>  (182) 
53

>  <original_smiles>  (182) 
N=C1NC2(CO1)c1cc(C3=CCCOC3)ncc1OC21CCOC1

>  <smiles>  (182) 
[H]C1=C(c2c([H])c3c(c([H])[n+]2[H])OC2(C([H])([H])OC([H])([H])C2([H])[H])C32N=C(N([H])[H])OC2([H])[H])C([H])([H])OC([H])([H])C1([H])[H]

$$$$
53:2:0
     RDKit          3D

 44 48  0  0  1  0  0  0  0  0999 V2000
    3.0356  -12.2387    4.8242 N   0  0  0  0  0  0  0  0  0  0  0  0
    2.6215  -10.9714    4.6527 C   0  0  0  0  0  0  0  0  0  0  0  0
    2.1209  -10.3851    3.5525 N   0  0  0  0  0  0  0  0  0  0  0  0
    1.7988   -8.9896    3.8641 C   0  0  1  0  0  0  0  0  0  0  0  0
    1.8530   -8.9997    5.4085 C   0  0  0  0  0  0  0  0  0  0  0  0
    2.6413  -10.1382    5.7273 O   0  0  0  0  0  0  0  0  0  0  0  0
    2.8049   -8.1118    3.1885 C   0  0  0  0  0  0  0  0  0  0  0  0
    4.1600   -7.8685    3.4976 C   0  0  0  0  0  0  0  0  0  0  0  0
    4.8564   -6.9913    2.6232 C   0  0  0  0  0  0  0  0  0  0  0  0
    6.2936   -6.6923    2.8451 C   0  0  0  0  0  0  0  0  0  0  0  0
    7.0732   -6.1747    1.8756 C   0  0  0  0  0  0  0  0  0  0  0  0
    8.5393   -5.8632    2.0656 C   0  0  0  0  0  0  0  0  0  0  0  0
    9.0686   -6.5060    3.3554 C   0  0  0  0  0  0  0  0  0  0  0  0
    8.1517   -6.2442    4.4028 O   0  0  0  0  0  0  0  0  0  0  0  0
    6.9101   -6.9188    4.2238 C   0  0  0  0  0  0  0  0  0  0  0  0
    4.2803   -6.4078    1.5366 N   0  0  0  0  0  0  0  0  0  0  0  0
    2.9852   -6.6568    1.2797 C   0  0  0  0  0  0  0  0  0  0  0  0
    2.2231   -7.5005    2.0882 C   0  0  0  0  0  0  0  0  0  0  0  0
    0.9176   -7.8275    1.9368 O   0  0  0  0  0  0  0  0  0  0  0  0
    0.4960   -8.4657    3.1503 C   0  0  1  0  0  0  0  0  0  0  0  0
   -0.5821   -9.4663    2.8323 C   0  0  0  0  0  0  0  0  0  0  0  0
   -1.7607   -8.5523    2.5194 C   0  0  0  0  0  0  0  0  0  0  0  0
   -1.5983   -7.3843    3.3275 O   0  0  0  0  0  0  0  0  0  0  0  0
   -0.2881   -7.3672    3.8930 C   0  0  0  0  0  0  0  0  0  0  0  0
    2.8735  -12.9456    4.1122 H   0  0  0  0  0  0  0  0  0  0  0  0
    2.0453  -10.8041    2.6348 H   0  0  0  0  0  0  0  0  0  0  0  0
    2.2301   -8.0817    5.8604 H   0  0  0  0  0  0  0  0  0  0  0  0
    0.8733   -9.2130    5.8345 H   0  0  0  0  0  0  0  0  0  0  0  0
    4.6250   -8.3336    4.3560 H   0  0  0  0  0  0  0  0  0  0  0  0
    6.6910   -5.9655    0.8838 H   0  0  0  0  0  0  0  0  0  0  0  0
    9.0935   -6.2409    1.2074 H   0  0  0  0  0  0  0  0  0  0  0  0
    8.6634   -4.7800    2.0836 H   0  0  0  0  0  0  0  0  0  0  0  0
    9.1956   -7.5825    3.2345 H   0  0  0  0  0  0  0  0  0  0  0  0
   10.0404   -6.0913    3.6128 H   0  0  0  0  0  0  0  0  0  0  0  0
    6.2340   -6.5278    4.9854 H   0  0  0  0  0  0  0  0  0  0  0  0
    7.0233   -7.9912    4.3942 H   0  0  0  0  0  0  0  0  0  0  0  0
    2.5539   -6.1805    0.4037 H   0  0  0  0  0  0  0  0  0  0  0  0
   -0.3285  -10.1344    2.0118 H   0  0  0  0  0  0  0  0  0  0  0  0
   -0.8143  -10.0828    3.6861 H   0  0  0  0  0  0  0  0  0  0  0  0
   -1.7035   -8.2575    1.4763 H   0  0  0  0  0  0  0  0  0  0  0  0
   -2.7158   -9.0464    2.6794 H   0  0  0  0  0  0  0  0  0  0  0  0
   -0.4188   -7.5963    4.9478 H   0  0  0  0  0  0  0  0  0  0  0  0
    0.1689   -6.3761    3.8300 H   0  0  0  0  0  0  0  0  0  0  0  0
    3.1967  -12.5574    5.7813 H   0  0  0  0  0  0  0  0  0  0  0  0
  1  2  1  0
  1 25  1  0
  1 44  1  0
  2  6  1  0
  2  3  2  0
  3  4  1  0
  3 26  1  0
  4 20  1  0
  4  5  1  1
  4  7  1  0
  5  6  1  0
  5 27  1  0
  5 28  1  0
  7 18  1  0
  7  8  2  0
  8  9  1  0
  8 29  1  0
  9 10  1  0
  9 16  2  0
 10 15  1  0
 10 11  2  0
 11 12  1  0
 11 30  1  0
 12 13  1  0
 12 31  1  0
 12 32  1  0
 13 14  1  0
 13 33  1  0
 13 34  1  0
 14 15  1  0
 15 35  1  0
 15 36  1  0
 16 17  1  0
 17 18  2  0
 17 37  1  0
 18 19  1  0
 20 19  1  6
 20 24  1  0
 20 21  1  0
 21 22  1  0
 21 38  1  0
 21 39  1  0
 22 23  1  0
 22 40  1  0
 22 41  1  0
 23 24  1  0
 24 42  1  0
 24 43  1  0
M  CHG  1   3   1
M  END
>  <i_m_ct_stereo_status>  (183) 
1

>  <s_m_source_file>  (183) 
/var/tmp/pbs.5076255.sched01/tmp68k5m_u8/43t0xmz28c.sdf

>  <i_m_source_file_index>  (183) 
36

>  <i_lp_mmshare_version>  (183) 
48012

>  <i_f3d_flags>  (183) 
0

>  <s_epik_input>  (183) 
W0NIMl0xT0MoPU5cW0hdKS9bTkhdW0NAQF0xMltDQF0zKFtDSDJdW0NIMl1PW0NIMl0zKU9jNGMyW2NIXWMobltjSF00KUM1PVtDSF1bQ0gyXVtDSDJdT1tDSDJdNQ==

>  <s_epik_cmdline>  (183) 
J2VwaWtfcHl0aG9uJywgJy1waHQnLCAnMi4wJywgJy1waCcsICc3LjAnLCAnLXRuJywgJzgnLCAnLW1hJywgJzIwMCcsICctaW1hZScsICc8aW5maWxlLm1hZT4nLCAnLW9tYWUnLCAnPG91dGZpbGUubWFlPic=

>  <r_epik_Ionization_Penalty>  (183) 
1.05632

>  <r_epik_Ionization_Penalty_Charging>  (183) 
0.00259638

>  <r_epik_Ionization_Penalty_Neutral>  (183) 
1.05373

>  <r_epik_State_Penalty>  (183) 
1.06433

>  <r_epik_Charging_Adjusted_Penalty>  (183) 
1.06693

>  <i_epik_Tot_Q>  (183) 
1

>  <i_epik_Tot_abs_Q>  (183) 
1

>  <s_epik_Chemistry_Notes>  (183) 
This compound has an imine and may undergo hydrolysis.

>  <s_lp_Force_Field>  (183) 
OPLS3e

>  <r_lp_Energy>  (183) 
10.7695

>  <b_lp_Chiralities_Consistent>  (183) 
1

>  <s_lp_Variant>  (183) 
53:0-3

>  <s_i_glide_gridfile>  (183) 
pfpi4k_grid

>  <i_i_glide_lignum>  (183) 
36

>  <i_i_glide_rotatable_bonds>  (183) 
1

>  <r_i_docking_score>  (183) 
-3.43794

>  <r_i_glide_ligand_efficiency>  (183) 
-0.143248

>  <r_i_glide_ligand_efficiency_sa>  (183) 
-0.413198

>  <r_i_glide_ligand_efficiency_ln>  (183) 
-0.822858

>  <r_i_glide_gscore>  (183) 
-3.43794

>  <r_i_glide_lipo>  (183) 
-0.247029

>  <r_i_glide_hbond>  (183) 
-0.0254588

>  <r_i_glide_metal>  (183) 
-0

>  <r_i_glide_rewards>  (183) 
-1.15665

>  <r_i_glide_evdw>  (183) 
-22.6726

>  <r_i_glide_ecoul>  (183) 
-6.33017

>  <r_i_glide_erotb>  (183) 
0.172326

>  <r_i_glide_esite>  (183) 
-0.0979762

>  <r_i_glide_emodel>  (183) 
-37.243

>  <r_i_glide_energy>  (183) 
-29.0028

>  <r_i_glide_einternal>  (183) 
0.00384026

>  <r_i_glide_intrahb_reward>  (183) 
-0

>  <i_i_glide_confnum>  (183) 
3

>  <i_i_glide_posenum>  (183) 
35

>  <r_i_glide_eff_state_penalty>  (183) 
0

>  <ligand_id>  (183) 
53

>  <original_smiles>  (183) 
N=C1NC2(CO1)c1cc(C3=CCCOC3)ncc1OC21CCOC1

>  <smiles>  (183) 
[H]C1=C(c2nc([H])c3c(c2[H])C2([N+]([H])=C(N([H])[H])OC2([H])[H])C2(O3)C([H])([H])OC([H])([H])C2([H])[H])C([H])([H])OC([H])([H])C1([H])[H]

$$$$
53:2:1
     RDKit          3D

 44 48  0  0  1  0  0  0  0  0999 V2000
    3.6558  -12.1435    3.2405 N   0  0  0  0  0  0  0  0  0  0  0  0
    3.1443  -10.9177    3.4467 C   0  0  0  0  0  0  0  0  0  0  0  0
    2.3423  -10.1903    2.6552 N   0  0  0  0  0  0  0  0  0  0  0  0
    2.0308   -8.9288    3.3298 C   0  0  1  0  0  0  0  0  0  0  0  0
    2.5109   -9.2202    4.7685 C   0  0  0  0  0  0  0  0  0  0  0  0
    3.4177  -10.3066    4.6254 O   0  0  0  0  0  0  0  0  0  0  0  0
    2.7528   -7.8331    2.6202 C   0  0  0  0  0  0  0  0  0  0  0  0
    4.1250   -7.5123    2.6249 C   0  0  0  0  0  0  0  0  0  0  0  0
    4.5161   -6.4108    1.8160 C   0  0  0  0  0  0  0  0  0  0  0  0
    5.9225   -5.9347    1.7270 C   0  0  0  0  0  0  0  0  0  0  0  0
    6.9067   -6.4508    2.4994 C   0  0  0  0  0  0  0  0  0  0  0  0
    8.3504   -6.0425    2.3872 C   0  0  0  0  0  0  0  0  0  0  0  0
    8.6127   -5.2634    1.0956 C   0  0  0  0  0  0  0  0  0  0  0  0
    7.5938   -4.2956    0.9227 O   0  0  0  0  0  0  0  0  0  0  0  0
    6.3109   -4.8677    0.6936 C   0  0  0  0  0  0  0  0  0  0  0  0
    3.6290   -5.7006    1.0704 N   0  0  0  0  0  0  0  0  0  0  0  0
    2.3242   -6.0353    1.0865 C   0  0  0  0  0  0  0  0  0  0  0  0
    1.8592   -7.0951    1.8608 C   0  0  0  0  0  0  0  0  0  0  0  0
    0.5800   -7.5360    1.9840 O   0  0  0  0  0  0  0  0  0  0  0  0
    0.5510   -8.4370    3.1015 C   0  0  1  0  0  0  0  0  0  0  0  0
   -0.5079   -9.4798    2.8782 C   0  0  0  0  0  0  0  0  0  0  0  0
   -1.7674   -8.6529    3.0673 C   0  0  0  0  0  0  0  0  0  0  0  0
   -1.4647   -7.6496    4.0297 O   0  0  0  0  0  0  0  0  0  0  0  0
   -0.0568   -7.5953    4.2385 C   0  0  0  0  0  0  0  0  0  0  0  0
    3.4503  -12.6525    2.3834 H   0  0  0  0  0  0  0  0  0  0  0  0
    2.0518  -10.4330    1.7245 H   0  0  0  0  0  0  0  0  0  0  0  0
    2.9475   -8.3735    5.2932 H   0  0  0  0  0  0  0  0  0  0  0  0
    1.7068   -9.6274    5.3811 H   0  0  0  0  0  0  0  0  0  0  0  0
    4.7966   -8.1024    3.2286 H   0  0  0  0  0  0  0  0  0  0  0  0
    6.7289   -7.1922    3.2605 H   0  0  0  0  0  0  0  0  0  0  0  0
    8.5934   -5.4548    3.2702 H   0  0  0  0  0  0  0  0  0  0  0  0
    8.9744   -6.9347    2.4246 H   0  0  0  0  0  0  0  0  0  0  0  0
    9.5723   -4.7573    1.1678 H   0  0  0  0  0  0  0  0  0  0  0  0
    8.6353   -5.9336    0.2342 H   0  0  0  0  0  0  0  0  0  0  0  0
    6.2444   -5.2941   -0.3105 H   0  0  0  0  0  0  0  0  0  0  0  0
    5.6172   -4.0240    0.7251 H   0  0  0  0  0  0  0  0  0  0  0  0
    1.6505   -5.4432    0.4767 H   0  0  0  0  0  0  0  0  0  0  0  0
   -0.4593   -9.9470    1.8974 H   0  0  0  0  0  0  0  0  0  0  0  0
   -0.4511  -10.2604    3.6368 H   0  0  0  0  0  0  0  0  0  0  0  0
   -2.0457   -8.1625    2.1371 H   0  0  0  0  0  0  0  0  0  0  0  0
   -2.5797   -9.2941    3.3817 H   0  0  0  0  0  0  0  0  0  0  0  0
    0.1206   -8.0414    5.2157 H   0  0  0  0  0  0  0  0  0  0  0  0
    0.3102   -6.5664    4.2798 H   0  0  0  0  0  0  0  0  0  0  0  0
    4.1999  -12.5904    3.9714 H   0  0  0  0  0  0  0  0  0  0  0  0
  1  2  1  0
  1 25  1  0
  1 44  1  0
  2  6  1  0
  2  3  2  0
  3  4  1  0
  3 26  1  0
  4 20  1  0
  4  5  1  1
  4  7  1  0
  5  6  1  0
  5 27  1  0
  5 28  1  0
  7 18  1  0
  7  8  2  0
  8  9  1  0
  8 29  1  0
  9 10  1  0
  9 16  2  0
 10 15  1  0
 10 11  2  0
 11 12  1  0
 11 30  1  0
 12 13  1  0
 12 31  1  0
 12 32  1  0
 13 14  1  0
 13 33  1  0
 13 34  1  0
 14 15  1  0
 15 35  1  0
 15 36  1  0
 16 17  1  0
 17 18  2  0
 17 37  1  0
 18 19  1  0
 20 19  1  6
 20 24  1  0
 20 21  1  0
 21 22  1  0
 21 38  1  0
 21 39  1  0
 22 23  1  0
 22 40  1  0
 22 41  1  0
 23 24  1  0
 24 42  1  0
 24 43  1  0
M  CHG  1   3   1
M  END
>  <i_m_ct_stereo_status>  (184) 
1

>  <s_m_source_file>  (184) 
/var/tmp/pbs.5076255.sched01/tmp68k5m_u8/43t0xmz28c.sdf

>  <i_m_source_file_index>  (184) 
36

>  <i_lp_mmshare_version>  (184) 
48012

>  <i_f3d_flags>  (184) 
0

>  <s_epik_input>  (184) 
W0NIMl0xT0MoPU5cW0hdKS9bTkhdW0NAQF0xMltDQF0zKFtDSDJdW0NIMl1PW0NIMl0zKU9jNGMyW2NIXWMobltjSF00KUM1PVtDSF1bQ0gyXVtDSDJdT1tDSDJdNQ==

>  <s_epik_cmdline>  (184) 
J2VwaWtfcHl0aG9uJywgJy1waHQnLCAnMi4wJywgJy1waCcsICc3LjAnLCAnLXRuJywgJzgnLCAnLW1hJywgJzIwMCcsICctaW1hZScsICc8aW5maWxlLm1hZT4nLCAnLW9tYWUnLCAnPG91dGZpbGUubWFlPic=

>  <r_epik_Ionization_Penalty>  (184) 
1.05632

>  <r_epik_Ionization_Penalty_Charging>  (184) 
0.00259638

>  <r_epik_Ionization_Penalty_Neutral>  (184) 
1.05373

>  <r_epik_State_Penalty>  (184) 
1.06433

>  <r_epik_Charging_Adjusted_Penalty>  (184) 
1.06693

>  <i_epik_Tot_Q>  (184) 
1

>  <i_epik_Tot_abs_Q>  (184) 
1

>  <s_epik_Chemistry_Notes>  (184) 
This compound has an imine and may undergo hydrolysis.

>  <s_lp_Force_Field>  (184) 
OPLS3e

>  <r_lp_Energy>  (184) 
10.7695

>  <b_lp_Chiralities_Consistent>  (184) 
1

>  <s_lp_Variant>  (184) 
53:0-3

>  <s_i_glide_gridfile>  (184) 
pfpi4k_grid

>  <i_i_glide_lignum>  (184) 
36

>  <i_i_glide_rotatable_bonds>  (184) 
1

>  <r_i_docking_score>  (184) 
-3.27236

>  <r_i_glide_ligand_efficiency>  (184) 
-0.136348

>  <r_i_glide_ligand_efficiency_sa>  (184) 
-0.393297

>  <r_i_glide_ligand_efficiency_ln>  (184) 
-0.783227

>  <r_i_glide_gscore>  (184) 
-3.27236

>  <r_i_glide_lipo>  (184) 
-0.233227

>  <r_i_glide_hbond>  (184) 
-0.0618289

>  <r_i_glide_metal>  (184) 
-0

>  <r_i_glide_rewards>  (184) 
-1.15665

>  <r_i_glide_evdw>  (184) 
-25.2846

>  <r_i_glide_ecoul>  (184) 
-4.29986

>  <r_i_glide_erotb>  (184) 
0.172326

>  <r_i_glide_esite>  (184) 
-0.0837773

>  <r_i_glide_emodel>  (184) 
-37.8799

>  <r_i_glide_energy>  (184) 
-29.5845

>  <r_i_glide_einternal>  (184) 
0.840452

>  <r_i_glide_intrahb_reward>  (184) 
-0

>  <i_i_glide_confnum>  (184) 
6

>  <i_i_glide_posenum>  (184) 
6

>  <r_i_glide_eff_state_penalty>  (184) 
0

>  <ligand_id>  (184) 
53

>  <original_smiles>  (184) 
N=C1NC2(CO1)c1cc(C3=CCCOC3)ncc1OC21CCOC1

>  <smiles>  (184) 
[H]C1=C(c2nc([H])c3c(c2[H])C2([N+]([H])=C(N([H])[H])OC2([H])[H])C2(O3)C([H])([H])OC([H])([H])C2([H])[H])C([H])([H])OC([H])([H])C1([H])[H]

$$$$
53:2:2
     RDKit          3D

 44 48  0  0  1  0  0  0  0  0999 V2000
    3.0171   -1.4002   -3.0593 N   0  0  0  0  0  0  0  0  0  0  0  0
    3.5233   -1.5892   -1.8260 C   0  0  0  0  0  0  0  0  0  0  0  0
    3.2927   -2.5846   -0.9577 N   0  0  0  0  0  0  0  0  0  0  0  0
    4.0849   -2.3622    0.2469 C   0  0  1  0  0  0  0  0  0  0  0  0
    5.0368   -1.2365   -0.2198 C   0  0  0  0  0  0  0  0  0  0  0  0
    4.4139   -0.6925   -1.3733 O   0  0  0  0  0  0  0  0  0  0  0  0
    3.1667   -2.0167    1.3859 C   0  0  0  0  0  0  0  0  0  0  0  0
    2.4709   -0.8318    1.6600 C   0  0  0  0  0  0  0  0  0  0  0  0
    1.6242   -0.8415    2.7994 C   0  0  0  0  0  0  0  0  0  0  0  0
    0.7995    0.3409    3.1305 C   0  0  0  0  0  0  0  0  0  0  0  0
   -0.3274    0.2330    3.8735 C   0  0  0  0  0  0  0  0  0  0  0  0
   -1.1817    1.4225    4.2479 C   0  0  0  0  0  0  0  0  0  0  0  0
   -0.7957    2.6621    3.4345 C   0  0  0  0  0  0  0  0  0  0  0  0
    0.6186    2.7648    3.4666 O   0  0  0  0  0  0  0  0  0  0  0  0
    1.2573    1.7313    2.7150 C   0  0  0  0  0  0  0  0  0  0  0  0
    1.4973   -1.9305    3.6112 N   0  0  0  0  0  0  0  0  0  0  0  0
    2.2038   -3.0521    3.3304 C   0  0  0  0  0  0  0  0  0  0  0  0
    3.0448   -3.1150    2.2110 C   0  0  0  0  0  0  0  0  0  0  0  0
    3.7837   -4.1776    1.8007 O   0  0  0  0  0  0  0  0  0  0  0  0
    4.7061   -3.6806    0.8137 C   0  0  1  0  0  0  0  0  0  0  0  0
    5.0306   -4.7965   -0.1551 C   0  0  0  0  0  0  0  0  0  0  0  0
    5.9372   -5.6664    0.7058 C   0  0  0  0  0  0  0  0  0  0  0  0
    6.6550   -4.7908    1.5675 O   0  0  0  0  0  0  0  0  0  0  0  0
    6.0392   -3.5095    1.5668 C   0  0  0  0  0  0  0  0  0  0  0  0
    2.3455   -2.0427   -3.4743 H   0  0  0  0  0  0  0  0  0  0  0  0
    2.6376   -3.3527   -1.0994 H   0  0  0  0  0  0  0  0  0  0  0  0
    5.2675   -0.4932    0.5453 H   0  0  0  0  0  0  0  0  0  0  0  0
    5.9775   -1.6265   -0.5868 H   0  0  0  0  0  0  0  0  0  0  0  0
    2.5349    0.0210    1.0013 H   0  0  0  0  0  0  0  0  0  0  0  0
   -0.6790   -0.7213    4.2359 H   0  0  0  0  0  0  0  0  0  0  0  0
   -2.2306    1.1761    4.0794 H   0  0  0  0  0  0  0  0  0  0  0  0
   -1.0594    1.6086    5.3162 H   0  0  0  0  0  0  0  0  0  0  0  0
   -1.1425    2.5788    2.4050 H   0  0  0  0  0  0  0  0  0  0  0  0
   -1.2339    3.5571    3.8637 H   0  0  0  0  0  0  0  0  0  0  0  0
    2.3240    1.8304    2.9173 H   0  0  0  0  0  0  0  0  0  0  0  0
    1.1012    1.8754    1.6421 H   0  0  0  0  0  0  0  0  0  0  0  0
    2.0954   -3.8880    3.9969 H   0  0  0  0  0  0  0  0  0  0  0  0
    4.1458   -5.3274   -0.5109 H   0  0  0  0  0  0  0  0  0  0  0  0
    5.5813   -4.4117   -1.0118 H   0  0  0  0  0  0  0  0  0  0  0  0
    5.3407   -6.3378    1.3218 H   0  0  0  0  0  0  0  0  0  0  0  0
    6.6332   -6.2588    0.1048 H   0  0  0  0  0  0  0  0  0  0  0  0
    6.7397   -2.8790    1.0301 H   0  0  0  0  0  0  0  0  0  0  0  0
    5.9376   -3.0900    2.5747 H   0  0  0  0  0  0  0  0  0  0  0  0
    3.2048   -0.5112   -3.5231 H   0  0  0  0  0  0  0  0  0  0  0  0
  1  2  1  0
  1 25  1  0
  1 44  1  0
  2  6  1  0
  2  3  2  0
  3  4  1  0
  3 26  1  0
  4 20  1  0
  4  5  1  6
  4  7  1  0
  5  6  1  0
  5 27  1  0
  5 28  1  0
  7 18  1  0
  7  8  2  0
  8  9  1  0
  8 29  1  0
  9 10  1  0
  9 16  2  0
 10 15  1  0
 10 11  2  0
 11 12  1  0
 11 30  1  0
 12 13  1  0
 12 31  1  0
 12 32  1  0
 13 14  1  0
 13 33  1  0
 13 34  1  0
 14 15  1  0
 15 35  1  0
 15 36  1  0
 16 17  1  0
 17 18  2  0
 17 37  1  0
 18 19  1  0
 20 19  1  1
 20 24  1  0
 20 21  1  0
 21 22  1  0
 21 38  1  0
 21 39  1  0
 22 23  1  0
 22 40  1  0
 22 41  1  0
 23 24  1  0
 24 42  1  0
 24 43  1  0
M  CHG  1   3   1
M  END
>  <i_m_ct_stereo_status>  (185) 
1

>  <s_m_source_file>  (185) 
/var/tmp/pbs.5076255.sched01/tmp68k5m_u8/43t0xmz28c.sdf

>  <i_m_source_file_index>  (185) 
36

>  <i_lp_mmshare_version>  (185) 
48012

>  <i_f3d_flags>  (185) 
0

>  <s_epik_input>  (185) 
W0NIMl0xT0MoPU5cW0hdKS9bTkhdW0NAQF0xMltDQF0zKFtDSDJdW0NIMl1PW0NIMl0zKU9jNGMyW2NIXWMobltjSF00KUM1PVtDSF1bQ0gyXVtDSDJdT1tDSDJdNQ==

>  <s_epik_cmdline>  (185) 
J2VwaWtfcHl0aG9uJywgJy1waHQnLCAnMi4wJywgJy1waCcsICc3LjAnLCAnLXRuJywgJzgnLCAnLW1hJywgJzIwMCcsICctaW1hZScsICc8aW5maWxlLm1hZT4nLCAnLW9tYWUnLCAnPG91dGZpbGUubWFlPic=

>  <r_epik_Ionization_Penalty>  (185) 
1.05632

>  <r_epik_Ionization_Penalty_Charging>  (185) 
0.00259638

>  <r_epik_Ionization_Penalty_Neutral>  (185) 
1.05373

>  <r_epik_State_Penalty>  (185) 
1.06433

>  <r_epik_Charging_Adjusted_Penalty>  (185) 
1.06693

>  <i_epik_Tot_Q>  (185) 
1

>  <i_epik_Tot_abs_Q>  (185) 
1

>  <s_epik_Chemistry_Notes>  (185) 
This compound has an imine and may undergo hydrolysis.

>  <s_lp_Force_Field>  (185) 
OPLS3e

>  <r_lp_Energy>  (185) 
10.7695

>  <b_lp_Chiralities_Consistent>  (185) 
1

>  <s_lp_Variant>  (185) 
53:0-3

>  <s_i_glide_gridfile>  (185) 
pfpi4k_grid

>  <i_i_glide_lignum>  (185) 
36

>  <i_i_glide_rotatable_bonds>  (185) 
1

>  <r_i_docking_score>  (185) 
-2.83239

>  <r_i_glide_ligand_efficiency>  (185) 
-0.118016

>  <r_i_glide_ligand_efficiency_sa>  (185) 
-0.340418

>  <r_i_glide_ligand_efficiency_ln>  (185) 
-0.677922

>  <r_i_glide_gscore>  (185) 
-2.83239

>  <r_i_glide_lipo>  (185) 
-0.223775

>  <r_i_glide_hbond>  (185) 
0

>  <r_i_glide_metal>  (185) 
-0

>  <r_i_glide_rewards>  (185) 
-1.15665

>  <r_i_glide_evdw>  (185) 
-23.2558

>  <r_i_glide_ecoul>  (185) 
-2.16691

>  <r_i_glide_erotb>  (185) 
0.172326

>  <r_i_glide_esite>  (185) 
-0.136469

>  <r_i_glide_emodel>  (185) 
-32.5624

>  <r_i_glide_energy>  (185) 
-25.4227

>  <r_i_glide_einternal>  (185) 
0.0317308

>  <r_i_glide_intrahb_reward>  (185) 
-0

>  <i_i_glide_confnum>  (185) 
1

>  <i_i_glide_posenum>  (185) 
2

>  <r_i_glide_eff_state_penalty>  (185) 
0

>  <ligand_id>  (185) 
53

>  <original_smiles>  (185) 
N=C1NC2(CO1)c1cc(C3=CCCOC3)ncc1OC21CCOC1

>  <smiles>  (185) 
[H]C1=C(c2nc([H])c3c(c2[H])C2([N+]([H])=C(N([H])[H])OC2([H])[H])C2(O3)C([H])([H])OC([H])([H])C2([H])[H])C([H])([H])OC([H])([H])C1([H])[H]

$$$$
54:0:0
     RDKit          3D

 42 45  0  0  1  0  0  0  0  0999 V2000
    1.9797   -3.4554   -1.9237 C   0  0  0  0  0  0  0  0  0  0  0  0
    2.9992   -2.9847   -1.1717 C   0  0  0  0  0  0  0  0  0  0  0  0
    3.3295   -3.4386    0.2527 C   0  0  1  0  0  0  0  0  0  0  0  0
    2.9083   -4.7754    0.4926 O   0  0  0  0  0  0  0  0  0  0  0  0
    4.8606   -3.1461    0.2181 C   0  0  1  0  0  0  0  0  0  0  0  0
    5.6065   -4.2527   -0.5205 C   0  0  1  0  0  0  0  0  0  0  0  0
    4.9635   -5.0473   -1.4848 O   0  0  0  0  0  0  0  0  0  0  0  0
    6.7937   -3.4637   -1.0098 C   0  0  1  0  0  0  0  0  0  0  0  0
    6.3831   -2.7469   -2.2314 O   0  0  0  0  0  0  0  0  0  0  0  0
    5.0409   -2.4646   -2.7105 C   0  0  0  0  0  0  0  0  0  0  0  0
    4.6788   -2.5626   -3.8964 O   0  0  0  0  0  0  0  0  0  0  0  0
    4.0111   -1.9537   -1.6671 C   0  0  1  0  0  0  0  0  0  0  0  0
    3.3500   -0.7833   -2.3136 C   0  0  0  0  0  0  0  0  0  0  0  0
    4.7986   -1.7065   -0.4013 C   0  0  1  0  0  0  0  0  0  0  0  0
    4.4785   -0.7807    0.7669 C   0  0  0  0  0  0  0  0  0  0  0  0
    5.4131   -1.4108    1.8388 C   0  0  0  0  0  0  0  0  0  0  0  0
    5.8711   -2.7991    1.3020 C   0  0  2  0  0  0  0  0  0  0  0  0
    7.2235   -2.8974    0.4163 C   0  0  0  0  0  0  0  0  0  0  0  0
    8.1871   -3.9854    1.0121 C   0  0  0  0  0  0  0  0  0  0  0  0
    8.0822   -1.6259    0.2972 C   0  0  0  0  0  0  0  0  0  0  0  0
    1.8505   -3.1183   -2.9421 H   0  0  0  0  0  0  0  0  0  0  0  0
    1.3350   -4.2439   -1.5462 H   0  0  0  0  0  0  0  0  0  0  0  0
    2.7825   -2.8064    0.9901 H   0  0  0  0  0  0  0  0  0  0  0  0
    3.1753   -5.2864   -0.2613 H   0  0  0  0  0  0  0  0  0  0  0  0
    5.8823   -5.0069    0.2196 H   0  0  0  0  0  0  0  0  0  0  0  0
    5.5580   -5.7158   -1.8381 H   0  0  0  0  0  0  0  0  0  0  0  0
    7.6355   -4.0929   -1.2896 H   0  0  0  0  0  0  0  0  0  0  0  0
    2.8276   -0.9749   -3.2416 H   0  0  0  0  0  0  0  0  0  0  0  0
    4.0240    0.0581   -2.4193 H   0  0  0  0  0  0  0  0  0  0  0  0
    2.6171   -0.6571   -1.5330 H   0  0  0  0  0  0  0  0  0  0  0  0
    5.6710   -1.1985   -0.7216 H   0  0  0  0  0  0  0  0  0  0  0  0
    4.7376    0.2606    0.5414 H   0  0  0  0  0  0  0  0  0  0  0  0
    3.4279   -0.8115    1.0680 H   0  0  0  0  0  0  0  0  0  0  0  0
    6.2617   -0.7601    2.0887 H   0  0  0  0  0  0  0  0  0  0  0  0
    4.8343   -1.5623    2.7642 H   0  0  0  0  0  0  0  0  0  0  0  0
    5.8709   -3.5408    2.1013 H   0  0  0  0  0  0  0  0  0  0  0  0
    8.5535   -3.7383    1.9897 H   0  0  0  0  0  0  0  0  0  0  0  0
    9.0651   -4.1145    0.3704 H   0  0  0  0  0  0  0  0  0  0  0  0
    7.7243   -4.9682    1.1361 H   0  0  0  0  0  0  0  0  0  0  0  0
    8.4105   -1.2173    1.2530 H   0  0  0  0  0  0  0  0  0  0  0  0
    7.5296   -0.8283   -0.1712 H   0  0  0  0  0  0  0  0  0  0  0  0
    8.9622   -1.8230   -0.3249 H   0  0  0  0  0  0  0  0  0  0  0  0
  1  2  2  0
  1 21  1  0
  1 22  1  0
  2 12  1  0
  2  3  1  0
  3  4  1  0
  5  3  1  1
  3 23  1  1
  4 24  1  0
  5 14  1  0
  5 17  1  0
  5  6  1  0
  6  7  1  0
  6  8  1  0
  6 25  1  1
  7 26  1  0
  8 18  1  0
  8  9  1  0
  8 27  1  6
  9 10  1  0
 10 11  2  0
 10 12  1  0
 12 13  1  6
 12 14  1  0
 13 28  1  0
 13 29  1  0
 13 30  1  0
 14 15  1  0
 14 31  1  6
 15 16  1  0
 15 32  1  0
 15 33  1  0
 16 17  1  0
 16 34  1  0
 16 35  1  0
 17 18  1  0
 17 36  1  1
 18 19  1  0
 18 20  1  0
 19 37  1  0
 19 38  1  0
 19 39  1  0
 20 40  1  0
 20 41  1  0
 20 42  1  0
M  END
>  <i_m_ct_stereo_status>  (186) 
1

>  <s_m_source_file>  (186) 
/var/tmp/pbs.5076255.sched01/tmp68k5m_u8/43t0xmz28c.sdf

>  <i_m_source_file_index>  (186) 
38

>  <i_lp_mmshare_version>  (186) 
48012

>  <i_f3d_flags>  (186) 
0

>  <s_epik_input>  (186) 
W09IXVtDQEBIXTFDKD1bQ0gyXSlbQ0BAXShbQ0gzXSkoW0NAQEhdMltDQEBdMTM0KUMoPU8pT1tDQEhdKFtDQEBIXTNbT0hdKUMoW0NIM10pKFtDSDNdKVtDQEhdNFtDSDJdW0NIMl0y

>  <s_epik_cmdline>  (186) 
J2VwaWtfcHl0aG9uJywgJy1waHQnLCAnMi4wJywgJy1waCcsICc3LjAnLCAnLXRuJywgJzgnLCAnLW1hJywgJzIwMCcsICctaW1hZScsICc8aW5maWxlLm1hZT4nLCAnLW9tYWUnLCAnPG91dGZpbGUubWFlPic=

>  <r_lp_tautomer_probability>  (186) 
1

>  <r_epik_Ionization_Penalty>  (186) 
3.08985e-07

>  <r_epik_Ionization_Penalty_Charging>  (186) 
0

>  <r_epik_Ionization_Penalty_Neutral>  (186) 
3.08985e-07

>  <r_epik_State_Penalty>  (186) 
-0

>  <r_epik_Charging_Adjusted_Penalty>  (186) 
0

>  <i_epik_Tot_Q>  (186) 
0

>  <i_epik_Tot_abs_Q>  (186) 
0

>  <s_epik_Chemistry_Notes>  (186) 
This compound has an ester and may undergo hydrolysis at high or low pH.

>  <s_lp_Force_Field>  (186) 
OPLS3e

>  <r_lp_Energy>  (186) 
114.783

>  <b_lp_Chiralities_Consistent>  (186) 
1

>  <s_lp_Variant>  (186) 
54:0-1

>  <s_i_glide_gridfile>  (186) 
pfpi4k_grid

>  <i_i_glide_lignum>  (186) 
38

>  <i_i_glide_rotatable_bonds>  (186) 
2

>  <r_i_docking_score>  (186) 
-3.87038

>  <r_i_glide_ligand_efficiency>  (186) 
-0.193519

>  <r_i_glide_ligand_efficiency_sa>  (186) 
-0.525291

>  <r_i_glide_ligand_efficiency_ln>  (186) 
-0.968628

>  <r_i_glide_gscore>  (186) 
-3.87038

>  <r_i_glide_lipo>  (186) 
-0.878089

>  <r_i_glide_hbond>  (186) 
-0.095109

>  <r_i_glide_metal>  (186) 
-0

>  <r_i_glide_rewards>  (186) 
-2.22931

>  <r_i_glide_evdw>  (186) 
-7.63427

>  <r_i_glide_ecoul>  (186) 
-1.90769

>  <r_i_glide_erotb>  (186) 
0

>  <r_i_glide_esite>  (186) 
0

>  <r_i_glide_emodel>  (186) 
-17.3013

>  <r_i_glide_energy>  (186) 
-9.54196

>  <r_i_glide_einternal>  (186) 
0.785578

>  <r_i_glide_intrahb_reward>  (186) 
-0.5

>  <i_i_glide_confnum>  (186) 
1

>  <i_i_glide_posenum>  (186) 
37

>  <r_i_glide_eff_state_penalty>  (186) 
0

>  <ligand_id>  (186) 
54

>  <original_smiles>  (186) 
C=C1C(O)C23C(O)C4OC(=O)C1(C)C2CCC3C4(C)C

>  <smiles>  (186) 
[H]OC1([H])C(=C([H])[H])C2(C([H])([H])[H])C(=O)OC3([H])C([H])(O[H])C14C2([H])C([H])([H])C([H])([H])C4([H])C3(C([H])([H])[H])C([H])([H])[H]

$$$$
54:0:1
     RDKit          3D

 42 45  0  0  1  0  0  0  0  0999 V2000
    1.9871   -3.4949   -1.8727 C   0  0  0  0  0  0  0  0  0  0  0  0
    3.0132   -3.0270   -1.1396 C   0  0  0  0  0  0  0  0  0  0  0  0
    3.3703   -3.4679    0.2997 C   0  0  1  0  0  0  0  0  0  0  0  0
    2.9918   -4.8140    0.5597 O   0  0  0  0  0  0  0  0  0  0  0  0
    4.8811   -3.1620    0.2446 C   0  0  1  0  0  0  0  0  0  0  0  0
    5.6465   -4.2663   -0.4924 C   0  0  1  0  0  0  0  0  0  0  0  0
    5.0265   -5.0883   -1.3869 O   0  0  0  0  0  0  0  0  0  0  0  0
    6.8148   -3.4846   -1.0017 C   0  0  1  0  0  0  0  0  0  0  0  0
    6.3801   -2.7605   -2.2143 O   0  0  0  0  0  0  0  0  0  0  0  0
    5.0352   -2.4884   -2.6855 C   0  0  0  0  0  0  0  0  0  0  0  0
    4.6739   -2.5174   -3.8504 O   0  0  0  0  0  0  0  0  0  0  0  0
    4.0194   -1.9845   -1.6290 C   0  0  1  0  0  0  0  0  0  0  0  0
    3.3475   -0.7915   -2.2320 C   0  0  0  0  0  0  0  0  0  0  0  0
    4.8109   -1.7370   -0.3762 C   0  0  1  0  0  0  0  0  0  0  0  0
    4.5054   -0.8103    0.8055 C   0  0  0  0  0  0  0  0  0  0  0  0
    5.4561   -1.4478    1.8625 C   0  0  0  0  0  0  0  0  0  0  0  0
    5.8999   -2.8222    1.3066 C   0  0  2  0  0  0  0  0  0  0  0  0
    7.2556   -2.9217    0.4061 C   0  0  0  0  0  0  0  0  0  0  0  0
    8.2128   -3.9952    1.0055 C   0  0  0  0  0  0  0  0  0  0  0  0
    8.1091   -1.6552    0.2683 C   0  0  0  0  0  0  0  0  0  0  0  0
    1.8243   -3.1602   -2.8923 H   0  0  0  0  0  0  0  0  0  0  0  0
    1.3434   -4.2873   -1.4941 H   0  0  0  0  0  0  0  0  0  0  0  0
    2.8300   -2.8442    1.0030 H   0  0  0  0  0  0  0  0  0  0  0  0
    3.4168   -5.3640   -0.0894 H   0  0  0  0  0  0  0  0  0  0  0  0
    5.9387   -5.0276    0.2253 H   0  0  0  0  0  0  0  0  0  0  0  0
    5.5298   -5.1511   -2.1888 H   0  0  0  0  0  0  0  0  0  0  0  0
    7.6496   -4.1227   -1.2898 H   0  0  0  0  0  0  0  0  0  0  0  0
    2.7655   -0.9574   -3.1392 H   0  0  0  0  0  0  0  0  0  0  0  0
    4.0411    0.0526   -2.3825 H   0  0  0  0  0  0  0  0  0  0  0  0
    2.5955   -0.6496   -1.4613 H   0  0  0  0  0  0  0  0  0  0  0  0
    5.6881   -1.2212   -0.6985 H   0  0  0  0  0  0  0  0  0  0  0  0
    4.7736    0.2285    0.5821 H   0  0  0  0  0  0  0  0  0  0  0  0
    3.4624   -0.8305    1.1206 H   0  0  0  0  0  0  0  0  0  0  0  0
    6.3032   -0.7989    2.0983 H   0  0  0  0  0  0  0  0  0  0  0  0
    4.8910   -1.5988    2.7885 H   0  0  0  0  0  0  0  0  0  0  0  0
    5.9081   -3.5744    2.0960 H   0  0  0  0  0  0  0  0  0  0  0  0
    8.5840   -3.7369    1.9846 H   0  0  0  0  0  0  0  0  0  0  0  0
    9.1065   -4.1220    0.3830 H   0  0  0  0  0  0  0  0  0  0  0  0
    7.7542   -4.9746    1.1725 H   0  0  0  0  0  0  0  0  0  0  0  0
    8.4402   -1.2278    1.2151 H   0  0  0  0  0  0  0  0  0  0  0  0
    7.5490   -0.8709   -0.1989 H   0  0  0  0  0  0  0  0  0  0  0  0
    8.9859   -1.8550   -0.3542 H   0  0  0  0  0  0  0  0  0  0  0  0
  1  2  2  0
  1 21  1  0
  1 22  1  0
  2 12  1  0
  2  3  1  0
  3  4  1  0
  5  3  1  1
  3 23  1  1
  4 24  1  0
  5 14  1  0
  5 17  1  0
  5  6  1  0
  6  7  1  0
  6  8  1  0
  6 25  1  1
  7 26  1  0
  8 18  1  0
  8  9  1  0
  8 27  1  6
  9 10  1  0
 10 11  2  0
 10 12  1  0
 12 13  1  6
 12 14  1  0
 13 28  1  0
 13 29  1  0
 13 30  1  0
 14 15  1  0
 14 31  1  6
 15 16  1  0
 15 32  1  0
 15 33  1  0
 16 17  1  0
 16 34  1  0
 16 35  1  0
 17 18  1  0
 17 36  1  1
 18 19  1  0
 18 20  1  0
 19 37  1  0
 19 38  1  0
 19 39  1  0
 20 40  1  0
 20 41  1  0
 20 42  1  0
M  END
>  <i_m_ct_stereo_status>  (187) 
1

>  <s_m_source_file>  (187) 
/var/tmp/pbs.5076255.sched01/tmp68k5m_u8/43t0xmz28c.sdf

>  <i_m_source_file_index>  (187) 
38

>  <i_lp_mmshare_version>  (187) 
48012

>  <i_f3d_flags>  (187) 
0

>  <s_epik_input>  (187) 
W09IXVtDQEBIXTFDKD1bQ0gyXSlbQ0BAXShbQ0gzXSkoW0NAQEhdMltDQEBdMTM0KUMoPU8pT1tDQEhdKFtDQEBIXTNbT0hdKUMoW0NIM10pKFtDSDNdKVtDQEhdNFtDSDJdW0NIMl0y

>  <s_epik_cmdline>  (187) 
J2VwaWtfcHl0aG9uJywgJy1waHQnLCAnMi4wJywgJy1waCcsICc3LjAnLCAnLXRuJywgJzgnLCAnLW1hJywgJzIwMCcsICctaW1hZScsICc8aW5maWxlLm1hZT4nLCAnLW9tYWUnLCAnPG91dGZpbGUubWFlPic=

>  <r_lp_tautomer_probability>  (187) 
1

>  <r_epik_Ionization_Penalty>  (187) 
3.08985e-07

>  <r_epik_Ionization_Penalty_Charging>  (187) 
0

>  <r_epik_Ionization_Penalty_Neutral>  (187) 
3.08985e-07

>  <r_epik_State_Penalty>  (187) 
-0

>  <r_epik_Charging_Adjusted_Penalty>  (187) 
0

>  <i_epik_Tot_Q>  (187) 
0

>  <i_epik_Tot_abs_Q>  (187) 
0

>  <s_epik_Chemistry_Notes>  (187) 
This compound has an ester and may undergo hydrolysis at high or low pH.

>  <s_lp_Force_Field>  (187) 
OPLS3e

>  <r_lp_Energy>  (187) 
114.783

>  <b_lp_Chiralities_Consistent>  (187) 
1

>  <s_lp_Variant>  (187) 
54:0-1

>  <s_i_glide_gridfile>  (187) 
pfpi4k_grid

>  <i_i_glide_lignum>  (187) 
38

>  <i_i_glide_rotatable_bonds>  (187) 
2

>  <r_i_docking_score>  (187) 
-3.69926

>  <r_i_glide_ligand_efficiency>  (187) 
-0.184963

>  <r_i_glide_ligand_efficiency_sa>  (187) 
-0.502066

>  <r_i_glide_ligand_efficiency_ln>  (187) 
-0.925802

>  <r_i_glide_gscore>  (187) 
-3.69926

>  <r_i_glide_lipo>  (187) 
-0.859502

>  <r_i_glide_hbond>  (187) 
-0.0686174

>  <r_i_glide_metal>  (187) 
-0

>  <r_i_glide_rewards>  (187) 
-2.23703

>  <r_i_glide_evdw>  (187) 
-6.18688

>  <r_i_glide_ecoul>  (187) 
-1.49844

>  <r_i_glide_erotb>  (187) 
0

>  <r_i_glide_esite>  (187) 
0

>  <r_i_glide_emodel>  (187) 
-15.4751

>  <r_i_glide_energy>  (187) 
-7.68532

>  <r_i_glide_einternal>  (187) 
1.44619

>  <r_i_glide_intrahb_reward>  (187) 
-0.5

>  <i_i_glide_confnum>  (187) 
2

>  <i_i_glide_posenum>  (187) 
4

>  <r_i_glide_eff_state_penalty>  (187) 
0

>  <ligand_id>  (187) 
54

>  <original_smiles>  (187) 
C=C1C(O)C23C(O)C4OC(=O)C1(C)C2CCC3C4(C)C

>  <smiles>  (187) 
[H]OC1([H])C(=C([H])[H])C2(C([H])([H])[H])C(=O)OC3([H])C([H])(O[H])C14C2([H])C([H])([H])C([H])([H])C4([H])C3(C([H])([H])[H])C([H])([H])[H]

$$$$
55:0:0
     RDKit          3D

 31 34  0  0  1  0  0  0  0  0999 V2000
    7.6228   -1.4560    0.4630 O   0  0  0  0  0  0  0  0  0  0  0  0
    6.5358   -2.3375    0.6738 C   0  0  2  0  0  0  0  0  0  0  0  0
    6.5473   -3.4926   -0.3542 C   0  0  2  0  0  0  0  0  0  0  0  0
    6.3342   -2.9414   -1.7857 C   0  0  0  0  0  0  0  0  0  0  0  0
    4.9789   -2.2030   -1.8625 C   0  0  1  0  0  0  0  0  0  0  0  0
    3.8370   -3.1738   -1.5120 C   0  0  0  0  0  0  0  0  0  0  0  0
    4.0515   -3.7142   -0.0809 C   0  0  1  0  0  0  0  0  0  0  0  0
    5.3968   -4.4697   -0.0157 C   0  0  0  0  0  0  0  0  0  0  0  0
    4.0521   -2.5634    0.9339 C   0  0  0  0  0  0  0  0  0  0  0  0
    3.7295   -2.8334    2.3820 C   0  0  0  0  0  0  0  0  0  0  0  0
    2.7608   -2.0443    1.5186 C   0  0  0  0  0  0  0  0  0  0  0  0
    5.1826   -1.5952    0.5799 C   0  0  2  0  0  0  0  0  0  0  0  0
    4.9567   -1.0486   -0.8462 C   0  0  0  0  0  0  0  0  0  0  0  0
    7.6129   -0.7942    1.1411 H   0  0  0  0  0  0  0  0  0  0  0  0
    6.6494   -2.7494    1.6787 H   0  0  0  0  0  0  0  0  0  0  0  0
    7.4990   -4.0250   -0.3010 H   0  0  0  0  0  0  0  0  0  0  0  0
    7.1486   -2.2680   -2.0523 H   0  0  0  0  0  0  0  0  0  0  0  0
    6.3622   -3.7535   -2.5133 H   0  0  0  0  0  0  0  0  0  0  0  0
    4.8305   -1.8120   -2.8705 H   0  0  0  0  0  0  0  0  0  0  0  0
    2.8693   -2.6765   -1.5913 H   0  0  0  0  0  0  0  0  0  0  0  0
    3.8204   -3.9936   -2.2274 H   0  0  0  0  0  0  0  0  0  0  0  0
    3.2409   -4.4024    0.1627 H   0  0  0  0  0  0  0  0  0  0  0  0
    5.3880   -5.3074   -0.7148 H   0  0  0  0  0  0  0  0  0  0  0  0
    5.5388   -4.9005    0.9762 H   0  0  0  0  0  0  0  0  0  0  0  0
    3.4497   -3.8471    2.6572 H   0  0  0  0  0  0  0  0  0  0  0  0
    4.2973   -2.2882    3.1333 H   0  0  0  0  0  0  0  0  0  0  0  0
    2.6796   -0.9736    1.7003 H   0  0  0  0  0  0  0  0  0  0  0  0
    1.8341   -2.5336    1.2289 H   0  0  0  0  0  0  0  0  0  0  0  0
    5.1681   -0.7649    1.2898 H   0  0  0  0  0  0  0  0  0  0  0  0
    5.7129   -0.3079   -1.0949 H   0  0  0  0  0  0  0  0  0  0  0  0
    3.9944   -0.5370   -0.8951 H   0  0  0  0  0  0  0  0  0  0  0  0
  1  2  1  0
  1 14  1  0
  2 12  1  0
  2  3  1  0
  2 15  1  1
  3  8  1  0
  3  4  1  0
  3 16  1  6
  4  5  1  0
  4 17  1  0
  4 18  1  0
  5 13  1  0
  5  6  1  0
  5 19  1  6
  6  7  1  0
  6 20  1  0
  6 21  1  0
  7  8  1  0
  7  9  1  0
  7 22  1  1
  8 23  1  0
  8 24  1  0
  9 11  1  0
  9 10  1  0
  9 12  1  0
 10 11  1  0
 10 25  1  0
 10 26  1  0
 11 27  1  0
 11 28  1  0
 12 13  1  0
 12 29  1  1
 13 30  1  0
 13 31  1  0
M  END
>  <i_m_ct_stereo_status>  (188) 
1

>  <s_m_source_file>  (188) 
/var/tmp/pbs.5076255.sched01/tmp68k5m_u8/43t0xmz28c.sdf

>  <i_m_source_file_index>  (188) 
39

>  <i_lp_mmshare_version>  (188) 
48012

>  <i_f3d_flags>  (188) 
0

>  <s_epik_input>  (188) 
W0NIMl0xW0NAQEhdMltDQEhdKFtPSF0pW0NAQEhdKFtDSDJdMylbQ0gyXVtDQEhdMVtDSDJdW0NAQEhdM0MyNFtDSDJdW0NIMl00

>  <s_epik_cmdline>  (188) 
J2VwaWtfcHl0aG9uJywgJy1waHQnLCAnMi4wJywgJy1waCcsICc3LjAnLCAnLXRuJywgJzgnLCAnLW1hJywgJzIwMCcsICctaW1hZScsICc8aW5maWxlLm1hZT4nLCAnLW9tYWUnLCAnPG91dGZpbGUubWFlPic=

>  <r_lp_tautomer_probability>  (188) 
1

>  <r_epik_Ionization_Penalty>  (188) 
2.2093e-06

>  <r_epik_Ionization_Penalty_Charging>  (188) 
0

>  <r_epik_Ionization_Penalty_Neutral>  (188) 
2.2093e-06

>  <r_epik_State_Penalty>  (188) 
-0

>  <r_epik_Charging_Adjusted_Penalty>  (188) 
0

>  <i_epik_Tot_Q>  (188) 
0

>  <i_epik_Tot_abs_Q>  (188) 
0

>  <s_lp_Force_Field>  (188) 
OPLS3e

>  <r_lp_Energy>  (188) 
-1.20512

>  <b_lp_Chiralities_Consistent>  (188) 
1

>  <s_lp_Variant>  (188) 
55:0-1

>  <s_i_glide_gridfile>  (188) 
pfpi4k_grid

>  <i_i_glide_lignum>  (188) 
39

>  <i_i_glide_rotatable_bonds>  (188) 
1

>  <r_i_docking_score>  (188) 
-4.0699

>  <r_i_glide_ligand_efficiency>  (188) 
-0.313069

>  <r_i_glide_ligand_efficiency_sa>  (188) 
-0.736131

>  <r_i_glide_ligand_efficiency_ln>  (188) 
-1.14164

>  <r_i_glide_gscore>  (188) 
-4.0699

>  <r_i_glide_lipo>  (188) 
-0.353193

>  <r_i_glide_hbond>  (188) 
-0.220701

>  <r_i_glide_metal>  (188) 
-0

>  <r_i_glide_rewards>  (188) 
-2.19361

>  <r_i_glide_evdw>  (188) 
-17.4558

>  <r_i_glide_ecoul>  (188) 
-2.86407

>  <r_i_glide_erotb>  (188) 
0

>  <r_i_glide_esite>  (188) 
0

>  <r_i_glide_emodel>  (188) 
-25.7614

>  <r_i_glide_energy>  (188) 
-20.3198

>  <r_i_glide_einternal>  (188) 
0.328439

>  <r_i_glide_intrahb_reward>  (188) 
-0

>  <i_i_glide_confnum>  (188) 
1

>  <i_i_glide_posenum>  (188) 
35

>  <r_i_glide_eff_state_penalty>  (188) 
0

>  <ligand_id>  (188) 
55

>  <original_smiles>  (188) 
OC1C2CC3CC(C2)C2(CC2)C1C3

>  <smiles>  (188) 
[H]OC1([H])C2([H])C([H])([H])C3([H])C([H])([H])C([H])(C2([H])[H])C2(C([H])([H])C2([H])[H])C1([H])C3([H])[H]

$$$$
55:0:1
     RDKit          3D

 31 34  0  0  1  0  0  0  0  0999 V2000
    2.9835   -1.3522    1.3069 O   0  0  0  0  0  0  0  0  0  0  0  0
    3.2582   -2.2600    0.2604 C   0  0  2  0  0  0  0  0  0  0  0  0
    4.2240   -3.3783    0.7090 C   0  0  2  0  0  0  0  0  0  0  0  0
    5.6052   -2.7832    1.0662 C   0  0  0  0  0  0  0  0  0  0  0  0
    6.1954   -2.0581   -0.1656 C   0  0  1  0  0  0  0  0  0  0  0  0
    6.3519   -3.0527   -1.3334 C   0  0  0  0  0  0  0  0  0  0  0  0
    4.9668   -3.6302   -1.6933 C   0  0  1  0  0  0  0  0  0  0  0  0
    4.3962   -4.3709   -0.4629 C   0  0  0  0  0  0  0  0  0  0  0  0
    4.0077   -2.5140   -2.1174 C   0  0  0  0  0  0  0  0  0  0  0  0
    2.8136   -2.8284   -2.9893 C   0  0  0  0  0  0  0  0  0  0  0  0
    3.9729   -2.0230   -3.5447 C   0  0  0  0  0  0  0  0  0  0  0  0
    3.8566   -1.5281   -0.9615 C   0  0  2  0  0  0  0  0  0  0  0  0
    5.2373   -0.9358   -0.6078 C   0  0  0  0  0  0  0  0  0  0  0  0
    2.3169   -0.7556    0.9940 H   0  0  0  0  0  0  0  0  0  0  0  0
    2.3023   -2.6988   -0.0250 H   0  0  0  0  0  0  0  0  0  0  0  0
    3.8071   -3.8999    1.5730 H   0  0  0  0  0  0  0  0  0  0  0  0
    5.5085   -2.0878    1.9016 H   0  0  0  0  0  0  0  0  0  0  0  0
    6.2793   -3.5752    1.4003 H   0  0  0  0  0  0  0  0  0  0  0  0
    7.1664   -1.6335    0.0966 H   0  0  0  0  0  0  0  0  0  0  0  0
    6.7953   -2.5631   -2.2011 H   0  0  0  0  0  0  0  0  0  0  0  0
    7.0344   -3.8540   -1.0496 H   0  0  0  0  0  0  0  0  0  0  0  0
    5.0773   -4.3378   -2.5138 H   0  0  0  0  0  0  0  0  0  0  0  0
    5.0574   -5.1909   -0.1776 H   0  0  0  0  0  0  0  0  0  0  0  0
    3.4361   -4.8218   -0.7167 H   0  0  0  0  0  0  0  0  0  0  0  0
    2.6956   -3.8524   -3.3365 H   0  0  0  0  0  0  0  0  0  0  0  0
    1.8862   -2.3020   -2.7761 H   0  0  0  0  0  0  0  0  0  0  0  0
    3.8074   -0.9623   -3.7176 H   0  0  0  0  0  0  0  0  0  0  0  0
    4.6134   -2.5175   -4.2682 H   0  0  0  0  0  0  0  0  0  0  0  0
    3.1858   -0.7262   -1.2760 H   0  0  0  0  0  0  0  0  0  0  0  0
    5.1379   -0.1878    0.1800 H   0  0  0  0  0  0  0  0  0  0  0  0
    5.6378   -0.4193   -1.4802 H   0  0  0  0  0  0  0  0  0  0  0  0
  1  2  1  0
  1 14  1  0
  2 12  1  0
  2  3  1  0
  2 15  1  6
  3  8  1  0
  3  4  1  0
  3 16  1  1
  4  5  1  0
  4 17  1  0
  4 18  1  0
  5 13  1  0
  5  6  1  0
  5 19  1  1
  6  7  1  0
  6 20  1  0
  6 21  1  0
  7  8  1  0
  7  9  1  0
  7 22  1  6
  8 23  1  0
  8 24  1  0
  9 11  1  0
  9 10  1  0
  9 12  1  0
 10 11  1  0
 10 25  1  0
 10 26  1  0
 11 27  1  0
 11 28  1  0
 12 13  1  0
 12 29  1  6
 13 30  1  0
 13 31  1  0
M  END
>  <i_m_ct_stereo_status>  (189) 
1

>  <s_m_source_file>  (189) 
/var/tmp/pbs.5076255.sched01/tmp68k5m_u8/43t0xmz28c.sdf

>  <i_m_source_file_index>  (189) 
39

>  <i_lp_mmshare_version>  (189) 
48012

>  <i_f3d_flags>  (189) 
0

>  <s_epik_input>  (189) 
W0NIMl0xW0NAQEhdMltDQEhdKFtPSF0pW0NAQEhdKFtDSDJdMylbQ0gyXVtDQEhdMVtDSDJdW0NAQEhdM0MyNFtDSDJdW0NIMl00

>  <s_epik_cmdline>  (189) 
J2VwaWtfcHl0aG9uJywgJy1waHQnLCAnMi4wJywgJy1waCcsICc3LjAnLCAnLXRuJywgJzgnLCAnLW1hJywgJzIwMCcsICctaW1hZScsICc8aW5maWxlLm1hZT4nLCAnLW9tYWUnLCAnPG91dGZpbGUubWFlPic=

>  <r_lp_tautomer_probability>  (189) 
1

>  <r_epik_Ionization_Penalty>  (189) 
2.2093e-06

>  <r_epik_Ionization_Penalty_Charging>  (189) 
0

>  <r_epik_Ionization_Penalty_Neutral>  (189) 
2.2093e-06

>  <r_epik_State_Penalty>  (189) 
-0

>  <r_epik_Charging_Adjusted_Penalty>  (189) 
0

>  <i_epik_Tot_Q>  (189) 
0

>  <i_epik_Tot_abs_Q>  (189) 
0

>  <s_lp_Force_Field>  (189) 
OPLS3e

>  <r_lp_Energy>  (189) 
-1.20512

>  <b_lp_Chiralities_Consistent>  (189) 
1

>  <s_lp_Variant>  (189) 
55:0-1

>  <s_i_glide_gridfile>  (189) 
pfpi4k_grid

>  <i_i_glide_lignum>  (189) 
39

>  <i_i_glide_rotatable_bonds>  (189) 
1

>  <r_i_docking_score>  (189) 
-3.81918

>  <r_i_glide_ligand_efficiency>  (189) 
-0.293783

>  <r_i_glide_ligand_efficiency_sa>  (189) 
-0.690782

>  <r_i_glide_ligand_efficiency_ln>  (189) 
-1.07131

>  <r_i_glide_gscore>  (189) 
-3.81918

>  <r_i_glide_lipo>  (189) 
-0.40016

>  <r_i_glide_hbond>  (189) 
-0.00776171

>  <r_i_glide_metal>  (189) 
-0

>  <r_i_glide_rewards>  (189) 
-2.19361

>  <r_i_glide_evdw>  (189) 
-19.7434

>  <r_i_glide_ecoul>  (189) 
-1.53653

>  <r_i_glide_erotb>  (189) 
0

>  <r_i_glide_esite>  (189) 
0

>  <r_i_glide_emodel>  (189) 
-26.3629

>  <r_i_glide_energy>  (189) 
-21.2799

>  <r_i_glide_einternal>  (189) 
0.339953

>  <r_i_glide_intrahb_reward>  (189) 
-0

>  <i_i_glide_confnum>  (189) 
2

>  <i_i_glide_posenum>  (189) 
25

>  <r_i_glide_eff_state_penalty>  (189) 
0

>  <ligand_id>  (189) 
55

>  <original_smiles>  (189) 
OC1C2CC3CC(C2)C2(CC2)C1C3

>  <smiles>  (189) 
[H]OC1([H])C2([H])C([H])([H])C3([H])C([H])([H])C([H])(C2([H])[H])C2(C([H])([H])C2([H])[H])C1([H])C3([H])[H]

$$$$
55:0:2
     RDKit          3D

 31 34  0  0  1  0  0  0  0  0999 V2000
    7.0164   -1.0619    0.4143 O   0  0  0  0  0  0  0  0  0  0  0  0
    6.2478   -2.2431    0.4988 C   0  0  2  0  0  0  0  0  0  0  0  0
    6.1228   -2.9254   -0.8857 C   0  0  2  0  0  0  0  0  0  0  0  0
    5.3364   -2.0145   -1.8606 C   0  0  0  0  0  0  0  0  0  0  0  0
    3.9271   -1.7375   -1.2950 C   0  0  1  0  0  0  0  0  0  0  0  0
    3.1773   -3.0695   -1.1160 C   0  0  0  0  0  0  0  0  0  0  0  0
    3.9569   -3.9602   -0.1279 C   0  0  1  0  0  0  0  0  0  0  0  0
    5.3530   -4.2533   -0.7094 C   0  0  0  0  0  0  0  0  0  0  0  0
    4.0891   -3.2715    1.2344 C   0  0  0  0  0  0  0  0  0  0  0  0
    4.3307   -4.0958    2.4737 C   0  0  0  0  0  0  0  0  0  0  0  0
    2.9990   -3.3913    2.2717 C   0  0  0  0  0  0  0  0  0  0  0  0
    4.8320   -1.9504    1.0502 C   0  0  2  0  0  0  0  0  0  0  0  0
    4.0429   -1.0445    0.0777 C   0  0  0  0  0  0  0  0  0  0  0  0
    7.0809   -0.6646    1.2734 H   0  0  0  0  0  0  0  0  0  0  0  0
    6.7709   -2.9124    1.1839 H   0  0  0  0  0  0  0  0  0  0  0  0
    7.1155   -3.1309   -1.2899 H   0  0  0  0  0  0  0  0  0  0  0  0
    5.8553   -1.0684   -2.0088 H   0  0  0  0  0  0  0  0  0  0  0  0
    5.2670   -2.4875   -2.8416 H   0  0  0  0  0  0  0  0  0  0  0  0
    3.3740   -1.0932   -1.9822 H   0  0  0  0  0  0  0  0  0  0  0  0
    2.1709   -2.8848   -0.7442 H   0  0  0  0  0  0  0  0  0  0  0  0
    3.0626   -3.5712   -2.0785 H   0  0  0  0  0  0  0  0  0  0  0  0
    3.4164   -4.9008   -0.0061 H   0  0  0  0  0  0  0  0  0  0  0  0
    5.2540   -4.7637   -1.6670 H   0  0  0  0  0  0  0  0  0  0  0  0
    5.8998   -4.9294   -0.0517 H   0  0  0  0  0  0  0  0  0  0  0  0
    4.3499   -5.1775    2.3653 H   0  0  0  0  0  0  0  0  0  0  0  0
    5.0095   -3.6915    3.2210 H   0  0  0  0  0  0  0  0  0  0  0  0
    2.7930   -2.5234    2.8940 H   0  0  0  0  0  0  0  0  0  0  0  0
    2.1379   -4.0130    2.0414 H   0  0  0  0  0  0  0  0  0  0  0  0
    4.9136   -1.4540    2.0186 H   0  0  0  0  0  0  0  0  0  0  0  0
    4.5301   -0.0730   -0.0231 H   0  0  0  0  0  0  0  0  0  0  0  0
    3.0467   -0.8480    0.4755 H   0  0  0  0  0  0  0  0  0  0  0  0
  1  2  1  0
  1 14  1  0
  2 12  1  0
  2  3  1  0
  2 15  1  1
  3  8  1  0
  3  4  1  0
  3 16  1  6
  4  5  1  0
  4 17  1  0
  4 18  1  0
  5 13  1  0
  5  6  1  0
  5 19  1  6
  6  7  1  0
  6 20  1  0
  6 21  1  0
  7  8  1  0
  7  9  1  0
  7 22  1  1
  8 23  1  0
  8 24  1  0
  9 11  1  0
  9 10  1  0
  9 12  1  0
 10 11  1  0
 10 25  1  0
 10 26  1  0
 11 27  1  0
 11 28  1  0
 12 13  1  0
 12 29  1  1
 13 30  1  0
 13 31  1  0
M  END
>  <i_m_ct_stereo_status>  (190) 
1

>  <s_m_source_file>  (190) 
/var/tmp/pbs.5076255.sched01/tmp68k5m_u8/43t0xmz28c.sdf

>  <i_m_source_file_index>  (190) 
39

>  <i_lp_mmshare_version>  (190) 
48012

>  <i_f3d_flags>  (190) 
0

>  <s_epik_input>  (190) 
W0NIMl0xW0NAQEhdMltDQEhdKFtPSF0pW0NAQEhdKFtDSDJdMylbQ0gyXVtDQEhdMVtDSDJdW0NAQEhdM0MyNFtDSDJdW0NIMl00

>  <s_epik_cmdline>  (190) 
J2VwaWtfcHl0aG9uJywgJy1waHQnLCAnMi4wJywgJy1waCcsICc3LjAnLCAnLXRuJywgJzgnLCAnLW1hJywgJzIwMCcsICctaW1hZScsICc8aW5maWxlLm1hZT4nLCAnLW9tYWUnLCAnPG91dGZpbGUubWFlPic=

>  <r_lp_tautomer_probability>  (190) 
1

>  <r_epik_Ionization_Penalty>  (190) 
2.2093e-06

>  <r_epik_Ionization_Penalty_Charging>  (190) 
0

>  <r_epik_Ionization_Penalty_Neutral>  (190) 
2.2093e-06

>  <r_epik_State_Penalty>  (190) 
-0

>  <r_epik_Charging_Adjusted_Penalty>  (190) 
0

>  <i_epik_Tot_Q>  (190) 
0

>  <i_epik_Tot_abs_Q>  (190) 
0

>  <s_lp_Force_Field>  (190) 
OPLS3e

>  <r_lp_Energy>  (190) 
-1.20512

>  <b_lp_Chiralities_Consistent>  (190) 
1

>  <s_lp_Variant>  (190) 
55:0-1

>  <s_i_glide_gridfile>  (190) 
pfpi4k_grid

>  <i_i_glide_lignum>  (190) 
39

>  <i_i_glide_rotatable_bonds>  (190) 
1

>  <r_i_docking_score>  (190) 
-3.72279

>  <r_i_glide_ligand_efficiency>  (190) 
-0.286368

>  <r_i_glide_ligand_efficiency_sa>  (190) 
-0.673348

>  <r_i_glide_ligand_efficiency_ln>  (190) 
-1.04428

>  <r_i_glide_gscore>  (190) 
-3.72279

>  <r_i_glide_lipo>  (190) 
-0.193068

>  <r_i_glide_hbond>  (190) 
-0.135116

>  <r_i_glide_metal>  (190) 
-0

>  <r_i_glide_rewards>  (190) 
-2.19361

>  <r_i_glide_evdw>  (190) 
-16.1721

>  <r_i_glide_ecoul>  (190) 
-2.61593

>  <r_i_glide_erotb>  (190) 
0

>  <r_i_glide_esite>  (190) 
0

>  <r_i_glide_emodel>  (190) 
-23.7533

>  <r_i_glide_energy>  (190) 
-18.7881

>  <r_i_glide_einternal>  (190) 
0.325224

>  <r_i_glide_intrahb_reward>  (190) 
-0

>  <i_i_glide_confnum>  (190) 
1

>  <i_i_glide_posenum>  (190) 
1

>  <r_i_glide_eff_state_penalty>  (190) 
0

>  <ligand_id>  (190) 
55

>  <original_smiles>  (190) 
OC1C2CC3CC(C2)C2(CC2)C1C3

>  <smiles>  (190) 
[H]OC1([H])C2([H])C([H])([H])C3([H])C([H])([H])C([H])(C2([H])[H])C2(C([H])([H])C2([H])[H])C1([H])C3([H])[H]

$$$$
57:0:0
     RDKit          3D

 32 33  0  0  1  0  0  0  0  0999 V2000
   -1.8219    3.3054    6.5082 C   0  0  0  0  0  0  0  0  0  0  0  0
   -1.5787    3.4229    5.0011 C   0  0  0  0  0  0  0  0  0  0  0  0
   -1.7830    4.4964    4.4379 O   0  0  0  0  0  0  0  0  0  0  0  0
   -1.1512    2.3292    4.3453 N   0  0  0  0  0  0  0  0  0  0  0  0
   -0.9220    2.2871    2.9037 C   0  0  0  0  0  0  0  0  0  0  0  0
   -0.1653    0.9831    2.6411 C   0  0  1  0  0  0  0  0  0  0  0  0
    1.3614    1.2209    2.6057 C   0  0  0  0  0  0  0  0  0  0  0  0
   -0.6199    0.0900    3.8052 C   0  0  1  0  0  0  0  0  0  0  0  0
    0.3256   -0.9900    4.0690 N   0  0  0  0  0  0  0  0  0  0  0  0
    0.0317   -2.0715    4.8970 C   0  0  0  0  0  0  0  0  0  0  0  0
    0.9002   -3.1805    4.8789 C   0  0  0  0  0  0  0  0  0  0  0  0
    0.5850   -4.2716    5.7042 C   0  0  0  0  0  0  0  0  0  0  0  0
   -0.5745   -4.1650    6.4945 C   0  0  0  0  0  0  0  0  0  0  0  0
   -1.3667   -3.0658    6.4849 N   0  0  0  0  0  0  0  0  0  0  0  0
   -1.0684   -2.0289    5.6870 N   0  0  0  0  0  0  0  0  0  0  0  0
   -0.8230    1.0556    4.9708 C   0  0  0  0  0  0  0  0  0  0  0  0
    1.1029   -1.0746    3.4339 H   0  0  0  0  0  0  0  0  0  0  0  0
   -0.9364    2.9339    7.0231 H   0  0  0  0  0  0  0  0  0  0  0  0
   -2.6478    2.6221    6.6959 H   0  0  0  0  0  0  0  0  0  0  0  0
   -2.0778    4.2668    6.9460 H   0  0  0  0  0  0  0  0  0  0  0  0
   -1.8857    2.2899    2.3913 H   0  0  0  0  0  0  0  0  0  0  0  0
   -0.3599    3.1535    2.5593 H   0  0  0  0  0  0  0  0  0  0  0  0
   -0.4804    0.5576    1.6861 H   0  0  0  0  0  0  0  0  0  0  0  0
    1.7245    1.5859    3.5637 H   0  0  0  0  0  0  0  0  0  0  0  0
    1.6416    1.9535    1.8505 H   0  0  0  0  0  0  0  0  0  0  0  0
    1.9133    0.3130    2.3707 H   0  0  0  0  0  0  0  0  0  0  0  0
   -1.6001   -0.3249    3.5522 H   0  0  0  0  0  0  0  0  0  0  0  0
    1.7744   -3.1957    4.2461 H   0  0  0  0  0  0  0  0  0  0  0  0
    1.1956   -5.1613    5.7272 H   0  0  0  0  0  0  0  0  0  0  0  0
   -0.8871   -4.9636    7.1502 H   0  0  0  0  0  0  0  0  0  0  0  0
    0.0960    1.1796    5.5437 H   0  0  0  0  0  0  0  0  0  0  0  0
   -1.6136    0.7076    5.6389 H   0  0  0  0  0  0  0  0  0  0  0  0
  1  2  1  0
  1 18  1  0
  1 19  1  0
  1 20  1  0
  2  3  2  0
  2  4  1  0
  4 16  1  0
  4  5  1  0
  5  6  1  0
  5 21  1  0
  5 22  1  0
  6  7  1  0
  6  8  1  0
  6 23  1  6
  7 24  1  0
  7 25  1  0
  7 26  1  0
  8 16  1  0
  8 27  1  6
  8  9  1  0
  9 10  1  0
  9 17  1  0
 10 15  1  0
 10 11  2  0
 11 12  1  0
 11 28  1  0
 12 13  2  0
 12 29  1  0
 13 14  1  0
 13 30  1  0
 14 15  2  0
 16 31  1  0
 16 32  1  0
M  END
>  <i_m_ct_stereo_status>  (191) 
1

>  <s_m_source_file>  (191) 
/var/tmp/pbs.5076255.sched01/tmp68k5m_u8/43t0xmz28c.sdf

>  <i_m_source_file_index>  (191) 
41

>  <i_lp_mmshare_version>  (191) 
48012

>  <i_f3d_flags>  (191) 
0

>  <s_epik_input>  (191) 
W0NIM11DKD1PKU4xW0NIMl1bQ0BASF0oW0NIM10pW0NASF0oW0NIMl0xKS9OPWMyXFtjSF1bY0hdW2NIXW5bbkhdMg==

>  <s_epik_cmdline>  (191) 
J2VwaWtfcHl0aG9uJywgJy1waHQnLCAnMi4wJywgJy1waCcsICc3LjAnLCAnLXRuJywgJzgnLCAnLW1hJywgJzIwMCcsICctaW1hZScsICc8aW5maWxlLm1hZT4nLCAnLW9tYWUnLCAnPG91dGZpbGUubWFlPic=

>  <r_lp_tautomer_probability>  (191) 
0.999978

>  <r_epik_Ionization_Penalty>  (191) 
0.0276801

>  <r_epik_Ionization_Penalty_Charging>  (191) 
0

>  <r_epik_Ionization_Penalty_Neutral>  (191) 
0.0276801

>  <r_epik_State_Penalty>  (191) 
0.0385544

>  <r_epik_Charging_Adjusted_Penalty>  (191) 
0.0385544

>  <i_epik_Tot_Q>  (191) 
0

>  <i_epik_Tot_abs_Q>  (191) 
0

>  <s_lp_Force_Field>  (191) 
OPLS3e

>  <r_lp_Energy>  (191) 
19.8092

>  <b_lp_Chiralities_Consistent>  (191) 
1

>  <s_lp_Variant>  (191) 
57:0-1

>  <s_i_glide_gridfile>  (191) 
pfpi4k_grid

>  <i_i_glide_lignum>  (191) 
41

>  <i_i_glide_rotatable_bonds>  (191) 
3

>  <r_i_docking_score>  (191) 
-3.15448

>  <r_i_glide_ligand_efficiency>  (191) 
-0.197155

>  <r_i_glide_ligand_efficiency_sa>  (191) 
-0.4968

>  <r_i_glide_ligand_efficiency_ln>  (191) 
-0.836159

>  <r_i_glide_gscore>  (191) 
-3.15448

>  <r_i_glide_lipo>  (191) 
-0.0719017

>  <r_i_glide_hbond>  (191) 
-0.102954

>  <r_i_glide_metal>  (191) 
-0

>  <r_i_glide_rewards>  (191) 
-1.90724

>  <r_i_glide_evdw>  (191) 
-17.5978

>  <r_i_glide_ecoul>  (191) 
-4.958

>  <r_i_glide_erotb>  (191) 
0.694579

>  <r_i_glide_esite>  (191) 
-0.143372

>  <r_i_glide_emodel>  (191) 
-27.9929

>  <r_i_glide_energy>  (191) 
-22.5558

>  <r_i_glide_einternal>  (191) 
0.143703

>  <r_i_glide_intrahb_reward>  (191) 
-0

>  <i_i_glide_confnum>  (191) 
3

>  <i_i_glide_posenum>  (191) 
2

>  <r_i_glide_eff_state_penalty>  (191) 
0

>  <ligand_id>  (191) 
57

>  <original_smiles>  (191) 
CC(=O)N1CC(C)C(N=c2cccn[nH]2)C1

>  <smiles>  (191) 
[H]c1nnc(N([H])C2([H])C([H])([H])N(C(=O)C([H])([H])[H])C([H])([H])C2([H])C([H])([H])[H])c([H])c1[H]

$$$$
57:0:1
     RDKit          3D

 32 33  0  0  1  0  0  0  0  0999 V2000
   -3.0681    2.8432    7.6671 C   0  0  0  0  0  0  0  0  0  0  0  0
   -2.0806    1.9176    6.9528 C   0  0  0  0  0  0  0  0  0  0  0  0
   -1.6304    0.9483    7.5606 O   0  0  0  0  0  0  0  0  0  0  0  0
   -1.7363    2.1883    5.6808 N   0  0  0  0  0  0  0  0  0  0  0  0
   -2.3204    3.2311    4.8450 C   0  0  0  0  0  0  0  0  0  0  0  0
   -1.4158    3.3285    3.6142 C   0  0  1  0  0  0  0  0  0  0  0  0
   -0.3453    4.4268    3.8142 C   0  0  0  0  0  0  0  0  0  0  0  0
   -0.8302    1.9114    3.4940 C   0  0  1  0  0  0  0  0  0  0  0  0
    0.4164    1.8959    2.7390 N   0  0  0  0  0  0  0  0  0  0  0  0
    1.1475    0.7257    2.5014 C   0  0  0  0  0  0  0  0  0  0  0  0
    2.2988    0.8021    1.6988 C   0  0  0  0  0  0  0  0  0  0  0  0
    3.0151   -0.3812    1.4528 C   0  0  0  0  0  0  0  0  0  0  0  0
    2.5241   -1.5562    2.0526 C   0  0  0  0  0  0  0  0  0  0  0  0
    1.4288   -1.5688    2.8460 N   0  0  0  0  0  0  0  0  0  0  0  0
    0.7462   -0.4391    3.0635 N   0  0  0  0  0  0  0  0  0  0  0  0
   -0.7135    1.4513    4.9539 C   0  0  0  0  0  0  0  0  0  0  0  0
    0.6133    2.7146    2.1689 H   0  0  0  0  0  0  0  0  0  0  0  0
   -3.9913    2.9387    7.0955 H   0  0  0  0  0  0  0  0  0  0  0  0
   -2.6396    3.8356    7.8058 H   0  0  0  0  0  0  0  0  0  0  0  0
   -3.3247    2.4526    8.6554 H   0  0  0  0  0  0  0  0  0  0  0  0
   -3.3325    2.9353    4.5638 H   0  0  0  0  0  0  0  0  0  0  0  0
   -2.3807    4.1761    5.3773 H   0  0  0  0  0  0  0  0  0  0  0  0
   -2.0055    3.5569    2.7263 H   0  0  0  0  0  0  0  0  0  0  0  0
    0.3142    4.1842    4.6457 H   0  0  0  0  0  0  0  0  0  0  0  0
   -0.7821    5.4003    4.0090 H   0  0  0  0  0  0  0  0  0  0  0  0
    0.2824    4.5463    2.9323 H   0  0  0  0  0  0  0  0  0  0  0  0
   -1.5563    1.2742    2.9835 H   0  0  0  0  0  0  0  0  0  0  0  0
    2.6169    1.7445    1.2797 H   0  0  0  0  0  0  0  0  0  0  0  0
    3.8925   -0.3928    0.8213 H   0  0  0  0  0  0  0  0  0  0  0  0
    3.0082   -2.5096    1.8993 H   0  0  0  0  0  0  0  0  0  0  0  0
    0.2556    1.7185    5.3800 H   0  0  0  0  0  0  0  0  0  0  0  0
   -0.8509    0.3737    5.0649 H   0  0  0  0  0  0  0  0  0  0  0  0
  1  2  1  0
  1 18  1  0
  1 19  1  0
  1 20  1  0
  2  3  2  0
  2  4  1  0
  4 16  1  0
  4  5  1  0
  5  6  1  0
  5 21  1  0
  5 22  1  0
  6  7  1  0
  6  8  1  0
  6 23  1  6
  7 24  1  0
  7 25  1  0
  7 26  1  0
  8 16  1  0
  8 27  1  6
  8  9  1  0
  9 10  1  0
  9 17  1  0
 10 15  1  0
 10 11  2  0
 11 12  1  0
 11 28  1  0
 12 13  2  0
 12 29  1  0
 13 14  1  0
 13 30  1  0
 14 15  2  0
 16 31  1  0
 16 32  1  0
M  END
>  <i_m_ct_stereo_status>  (192) 
1

>  <s_m_source_file>  (192) 
/var/tmp/pbs.5076255.sched01/tmp68k5m_u8/43t0xmz28c.sdf

>  <i_m_source_file_index>  (192) 
41

>  <i_lp_mmshare_version>  (192) 
48012

>  <i_f3d_flags>  (192) 
0

>  <s_epik_input>  (192) 
W0NIM11DKD1PKU4xW0NIMl1bQ0BASF0oW0NIM10pW0NASF0oW0NIMl0xKS9OPWMyXFtjSF1bY0hdW2NIXW5bbkhdMg==

>  <s_epik_cmdline>  (192) 
J2VwaWtfcHl0aG9uJywgJy1waHQnLCAnMi4wJywgJy1waCcsICc3LjAnLCAnLXRuJywgJzgnLCAnLW1hJywgJzIwMCcsICctaW1hZScsICc8aW5maWxlLm1hZT4nLCAnLW9tYWUnLCAnPG91dGZpbGUubWFlPic=

>  <r_lp_tautomer_probability>  (192) 
0.999978

>  <r_epik_Ionization_Penalty>  (192) 
0.0276801

>  <r_epik_Ionization_Penalty_Charging>  (192) 
0

>  <r_epik_Ionization_Penalty_Neutral>  (192) 
0.0276801

>  <r_epik_State_Penalty>  (192) 
0.0385544

>  <r_epik_Charging_Adjusted_Penalty>  (192) 
0.0385544

>  <i_epik_Tot_Q>  (192) 
0

>  <i_epik_Tot_abs_Q>  (192) 
0

>  <s_lp_Force_Field>  (192) 
OPLS3e

>  <r_lp_Energy>  (192) 
19.8092

>  <b_lp_Chiralities_Consistent>  (192) 
1

>  <s_lp_Variant>  (192) 
57:0-1

>  <s_i_glide_gridfile>  (192) 
pfpi4k_grid

>  <i_i_glide_lignum>  (192) 
41

>  <i_i_glide_rotatable_bonds>  (192) 
3

>  <r_i_docking_score>  (192) 
-3.09693

>  <r_i_glide_ligand_efficiency>  (192) 
-0.193558

>  <r_i_glide_ligand_efficiency_sa>  (192) 
-0.487735

>  <r_i_glide_ligand_efficiency_ln>  (192) 
-0.820902

>  <r_i_glide_gscore>  (192) 
-3.09693

>  <r_i_glide_lipo>  (192) 
-0.145911

>  <r_i_glide_hbond>  (192) 
-0.232535

>  <r_i_glide_metal>  (192) 
-0

>  <r_i_glide_rewards>  (192) 
-1.90724

>  <r_i_glide_evdw>  (192) 
-19.9195

>  <r_i_glide_ecoul>  (192) 
-2.53261

>  <r_i_glide_erotb>  (192) 
0.694579

>  <r_i_glide_esite>  (192) 
-0.129947

>  <r_i_glide_emodel>  (192) 
-27.3882

>  <r_i_glide_energy>  (192) 
-22.4522

>  <r_i_glide_einternal>  (192) 
0.80781

>  <r_i_glide_intrahb_reward>  (192) 
-0

>  <i_i_glide_confnum>  (192) 
3

>  <i_i_glide_posenum>  (192) 
6

>  <r_i_glide_eff_state_penalty>  (192) 
0

>  <ligand_id>  (192) 
57

>  <original_smiles>  (192) 
CC(=O)N1CC(C)C(N=c2cccn[nH]2)C1

>  <smiles>  (192) 
[H]c1nnc(N([H])C2([H])C([H])([H])N(C(=O)C([H])([H])[H])C([H])([H])C2([H])C([H])([H])[H])c([H])c1[H]

$$$$
57:0:2
     RDKit          3D

 32 33  0  0  1  0  0  0  0  0999 V2000
   -2.2708    3.7602    2.9532 C   0  0  0  0  0  0  0  0  0  0  0  0
   -2.0198    2.7739    4.0929 C   0  0  0  0  0  0  0  0  0  0  0  0
   -2.5197    3.0040    5.1939 O   0  0  0  0  0  0  0  0  0  0  0  0
   -1.2637    1.6827    3.8548 N   0  0  0  0  0  0  0  0  0  0  0  0
   -0.5943    1.3776    2.5882 C   0  0  0  0  0  0  0  0  0  0  0  0
    0.3690    0.2279    2.8987 C   0  0  1  0  0  0  0  0  0  0  0  0
    1.7850    0.7565    3.2139 C   0  0  0  0  0  0  0  0  0  0  0  0
   -0.2986   -0.4762    4.0900 C   0  0  1  0  0  0  0  0  0  0  0  0
    0.6537   -1.2466    4.8810 N   0  0  0  0  0  0  0  0  0  0  0  0
    0.2811   -2.3152    5.6977 C   0  0  0  0  0  0  0  0  0  0  0  0
    1.2818   -3.2195    6.1138 C   0  0  0  0  0  0  0  0  0  0  0  0
    0.8934   -4.2933    6.9304 C   0  0  0  0  0  0  0  0  0  0  0  0
   -0.4676   -4.3752    7.2835 C   0  0  0  0  0  0  0  0  0  0  0  0
   -1.3797   -3.4624    6.8751 N   0  0  0  0  0  0  0  0  0  0  0  0
   -1.0122   -2.4497    6.0771 N   0  0  0  0  0  0  0  0  0  0  0  0
   -0.9829    0.6581    4.8567 C   0  0  0  0  0  0  0  0  0  0  0  0
    1.6147   -1.2118    4.5767 H   0  0  0  0  0  0  0  0  0  0  0  0
   -2.6849    3.2444    2.0860 H   0  0  0  0  0  0  0  0  0  0  0  0
   -1.3505    4.2598    2.6561 H   0  0  0  0  0  0  0  0  0  0  0  0
   -2.9852    4.5232    3.2555 H   0  0  0  0  0  0  0  0  0  0  0  0
   -1.3404    1.0725    1.8523 H   0  0  0  0  0  0  0  0  0  0  0  0
   -0.0647    2.2397    2.1762 H   0  0  0  0  0  0  0  0  0  0  0  0
    0.4292   -0.4477    2.0444 H   0  0  0  0  0  0  0  0  0  0  0  0
    1.7779    1.3791    4.1084 H   0  0  0  0  0  0  0  0  0  0  0  0
    2.1866    1.3567    2.4005 H   0  0  0  0  0  0  0  0  0  0  0  0
    2.4977   -0.0501    3.3832 H   0  0  0  0  0  0  0  0  0  0  0  0
   -1.0725   -1.1407    3.7010 H   0  0  0  0  0  0  0  0  0  0  0  0
    2.3073   -3.0965    5.8073 H   0  0  0  0  0  0  0  0  0  0  0  0
    1.6056   -5.0294    7.2753 H   0  0  0  0  0  0  0  0  0  0  0  0
   -0.8406   -5.1724    7.9079 H   0  0  0  0  0  0  0  0  0  0  0  0
   -0.3161    1.0878    5.6041 H   0  0  0  0  0  0  0  0  0  0  0  0
   -1.8919    0.3229    5.3600 H   0  0  0  0  0  0  0  0  0  0  0  0
  1  2  1  0
  1 18  1  0
  1 19  1  0
  1 20  1  0
  2  3  2  0
  2  4  1  0
  4 16  1  0
  4  5  1  0
  5  6  1  0
  5 21  1  0
  5 22  1  0
  6  7  1  0
  6  8  1  0
  6 23  1  6
  7 24  1  0
  7 25  1  0
  7 26  1  0
  8 16  1  0
  8 27  1  6
  8  9  1  0
  9 10  1  0
  9 17  1  0
 10 15  1  0
 10 11  2  0
 11 12  1  0
 11 28  1  0
 12 13  2  0
 12 29  1  0
 13 14  1  0
 13 30  1  0
 14 15  2  0
 16 31  1  0
 16 32  1  0
M  END
>  <i_m_ct_stereo_status>  (193) 
1

>  <s_m_source_file>  (193) 
/var/tmp/pbs.5076255.sched01/tmp68k5m_u8/43t0xmz28c.sdf

>  <i_m_source_file_index>  (193) 
41

>  <i_lp_mmshare_version>  (193) 
48012

>  <i_f3d_flags>  (193) 
0

>  <s_epik_input>  (193) 
W0NIM11DKD1PKU4xW0NIMl1bQ0BASF0oW0NIM10pW0NASF0oW0NIMl0xKS9OPWMyXFtjSF1bY0hdW2NIXW5bbkhdMg==

>  <s_epik_cmdline>  (193) 
J2VwaWtfcHl0aG9uJywgJy1waHQnLCAnMi4wJywgJy1waCcsICc3LjAnLCAnLXRuJywgJzgnLCAnLW1hJywgJzIwMCcsICctaW1hZScsICc8aW5maWxlLm1hZT4nLCAnLW9tYWUnLCAnPG91dGZpbGUubWFlPic=

>  <r_lp_tautomer_probability>  (193) 
0.999978

>  <r_epik_Ionization_Penalty>  (193) 
0.0276801

>  <r_epik_Ionization_Penalty_Charging>  (193) 
0

>  <r_epik_Ionization_Penalty_Neutral>  (193) 
0.0276801

>  <r_epik_State_Penalty>  (193) 
0.0385544

>  <r_epik_Charging_Adjusted_Penalty>  (193) 
0.0385544

>  <i_epik_Tot_Q>  (193) 
0

>  <i_epik_Tot_abs_Q>  (193) 
0

>  <s_lp_Force_Field>  (193) 
OPLS3e

>  <r_lp_Energy>  (193) 
19.8092

>  <b_lp_Chiralities_Consistent>  (193) 
1

>  <s_lp_Variant>  (193) 
57:0-1

>  <s_i_glide_gridfile>  (193) 
pfpi4k_grid

>  <i_i_glide_lignum>  (193) 
41

>  <i_i_glide_rotatable_bonds>  (193) 
3

>  <r_i_docking_score>  (193) 
-2.90291

>  <r_i_glide_ligand_efficiency>  (193) 
-0.181432

>  <r_i_glide_ligand_efficiency_sa>  (193) 
-0.45718

>  <r_i_glide_ligand_efficiency_ln>  (193) 
-0.769475

>  <r_i_glide_gscore>  (193) 
-2.90291

>  <r_i_glide_lipo>  (193) 
0

>  <r_i_glide_hbond>  (193) 
0

>  <r_i_glide_metal>  (193) 
-0

>  <r_i_glide_rewards>  (193) 
-1.90724

>  <r_i_glide_evdw>  (193) 
-19.7965

>  <r_i_glide_ecoul>  (193) 
-3.61391

>  <r_i_glide_erotb>  (193) 
0.694579

>  <r_i_glide_esite>  (193) 
-0.158336

>  <r_i_glide_emodel>  (193) 
-28.3497

>  <r_i_glide_energy>  (193) 
-23.4104

>  <r_i_glide_einternal>  (193) 
0.198047

>  <r_i_glide_intrahb_reward>  (193) 
-0

>  <i_i_glide_confnum>  (193) 
3

>  <i_i_glide_posenum>  (193) 
20

>  <r_i_glide_eff_state_penalty>  (193) 
0

>  <ligand_id>  (193) 
57

>  <original_smiles>  (193) 
CC(=O)N1CC(C)C(N=c2cccn[nH]2)C1

>  <smiles>  (193) 
[H]c1nnc(N([H])C2([H])C([H])([H])N(C(=O)C([H])([H])[H])C([H])([H])C2([H])C([H])([H])[H])c([H])c1[H]

$$$$
57:1:0
     RDKit          3D

 33 34  0  0  1  0  0  0  0  0999 V2000
    1.7564   -8.1306    1.7024 C   0  0  0  0  0  0  0  0  0  0  0  0
    1.5763   -6.6629    1.2889 C   0  0  0  0  0  0  0  0  0  0  0  0
    0.4464   -6.2595    1.0332 O   0  0  0  0  0  0  0  0  0  0  0  0
    2.6711   -5.8809    1.2121 N   0  0  0  0  0  0  0  0  0  0  0  0
    4.0454   -6.3471    1.3732 C   0  0  0  0  0  0  0  0  0  0  0  0
    4.9190   -5.0976    1.3500 C   0  0  1  0  0  0  0  0  0  0  0  0
    6.3705   -5.3396    0.8881 C   0  0  0  0  0  0  0  0  0  0  0  0
    4.1095   -4.0816    0.5371 C   0  0  1  0  0  0  0  0  0  0  0  0
    4.4449   -4.1746   -0.8757 N   0  0  0  0  0  0  0  0  0  0  0  0
    4.1137   -3.2113   -1.8263 C   0  0  0  0  0  0  0  0  0  0  0  0
    3.4164   -2.0196   -1.5451 C   0  0  0  0  0  0  0  0  0  0  0  0
    3.1273   -1.1572   -2.6174 C   0  0  0  0  0  0  0  0  0  0  0  0
    3.5514   -1.5406   -3.8975 C   0  0  0  0  0  0  0  0  0  0  0  0
    4.2115   -2.6924   -4.1428 N   0  0  0  0  0  0  0  0  0  0  0  0
    4.4857   -3.4916   -3.0977 N   0  0  0  0  0  0  0  0  0  0  0  0
    2.6425   -4.4758    0.8022 C   0  0  0  0  0  0  0  0  0  0  0  0
    4.9092   -5.0121   -1.1868 H   0  0  0  0  0  0  0  0  0  0  0  0
    2.3240   -8.2172    2.6289 H   0  0  0  0  0  0  0  0  0  0  0  0
    2.2663   -8.6944    0.9196 H   0  0  0  0  0  0  0  0  0  0  0  0
    0.7859   -8.5948    1.8682 H   0  0  0  0  0  0  0  0  0  0  0  0
    4.1980   -6.8962    2.3038 H   0  0  0  0  0  0  0  0  0  0  0  0
    4.2942   -7.0032    0.5403 H   0  0  0  0  0  0  0  0  0  0  0  0
    4.9394   -4.7224    2.3739 H   0  0  0  0  0  0  0  0  0  0  0  0
    6.4074   -5.7050   -0.1316 H   0  0  0  0  0  0  0  0  0  0  0  0
    6.8698   -6.1051    1.4853 H   0  0  0  0  0  0  0  0  0  0  0  0
    6.9562   -4.4207    0.9318 H   0  0  0  0  0  0  0  0  0  0  0  0
    4.3126   -3.0699    0.9021 H   0  0  0  0  0  0  0  0  0  0  0  0
    3.0736   -1.7717   -0.5517 H   0  0  0  0  0  0  0  0  0  0  0  0
    2.5481   -0.2664   -2.4484 H   0  0  0  0  0  0  0  0  0  0  0  0
    3.3224   -0.9107   -4.7461 H   0  0  0  0  0  0  0  0  0  0  0  0
    1.9841   -4.2919   -0.0493 H   0  0  0  0  0  0  0  0  0  0  0  0
    2.2549   -3.9026    1.6446 H   0  0  0  0  0  0  0  0  0  0  0  0
    4.9419   -4.3862   -3.2716 H   0  0  0  0  0  0  0  0  0  0  0  0
  1  2  1  0
  1 18  1  0
  1 19  1  0
  1 20  1  0
  2  3  2  0
  2  4  1  0
  4 16  1  0
  4  5  1  0
  5  6  1  0
  5 21  1  0
  5 22  1  0
  6  7  1  0
  6  8  1  0
  6 23  1  1
  7 24  1  0
  7 25  1  0
  7 26  1  0
  8 16  1  0
  8 27  1  1
  8  9  1  0
  9 10  1  0
  9 17  1  0
 10 15  1  0
 10 11  2  0
 11 12  1  0
 11 28  1  0
 12 13  2  0
 12 29  1  0
 13 14  1  0
 13 30  1  0
 14 15  2  0
 15 33  1  0
 16 31  1  0
 16 32  1  0
M  CHG  1  15   1
M  END
>  <i_m_ct_stereo_status>  (194) 
1

>  <s_m_source_file>  (194) 
/var/tmp/pbs.5076255.sched01/tmp68k5m_u8/43t0xmz28c.sdf

>  <i_m_source_file_index>  (194) 
42

>  <i_lp_mmshare_version>  (194) 
48012

>  <i_f3d_flags>  (194) 
0

>  <s_epik_input>  (194) 
W0NIM11DKD1PKU4xW0NIMl1bQ0BASF0oW0NIM10pW0NASF0oW0NIMl0xKS9OPWMyXFtjSF1bY0hdW2NIXW5bbkhdMg==

>  <s_epik_cmdline>  (194) 
J2VwaWtfcHl0aG9uJywgJy1waHQnLCAnMi4wJywgJy1waCcsICc3LjAnLCAnLXRuJywgJzgnLCAnLW1hJywgJzIwMCcsICctaW1hZScsICc8aW5maWxlLm1hZT4nLCAnLW9tYWUnLCAnPG91dGZpbGUubWFlPic=

>  <r_lp_tautomer_probability>  (194) 
0.966961

>  <r_epik_Ionization_Penalty>  (194) 
2.21377

>  <r_epik_Ionization_Penalty_Charging>  (194) 
2.21376

>  <r_epik_Ionization_Penalty_Neutral>  (194) 
8.95552e-06

>  <r_epik_State_Penalty>  (194) 
1.68818

>  <r_epik_Charging_Adjusted_Penalty>  (194) 
3.90195

>  <i_epik_Tot_Q>  (194) 
1

>  <i_epik_Tot_abs_Q>  (194) 
1

>  <s_lp_Force_Field>  (194) 
OPLS3e

>  <r_lp_Energy>  (194) 
24.7782

>  <b_lp_Chiralities_Consistent>  (194) 
1

>  <s_lp_Variant>  (194) 
57:0-2

>  <s_i_glide_gridfile>  (194) 
pfpi4k_grid

>  <i_i_glide_lignum>  (194) 
42

>  <i_i_glide_rotatable_bonds>  (194) 
3

>  <r_i_docking_score>  (194) 
-4.5031

>  <r_i_glide_ligand_efficiency>  (194) 
-0.281444

>  <r_i_glide_ligand_efficiency_sa>  (194) 
-0.709194

>  <r_i_glide_ligand_efficiency_ln>  (194) 
-1.19364

>  <r_i_glide_gscore>  (194) 
-4.5031

>  <r_i_glide_lipo>  (194) 
-0.341708

>  <r_i_glide_hbond>  (194) 
-0.44882

>  <r_i_glide_metal>  (194) 
-0

>  <r_i_glide_rewards>  (194) 
-1.90037

>  <r_i_glide_evdw>  (194) 
-18.7879

>  <r_i_glide_ecoul>  (194) 
-9.86611

>  <r_i_glide_erotb>  (194) 
0.689245

>  <r_i_glide_esite>  (194) 
-0.0821389

>  <r_i_glide_emodel>  (194) 
-38.4436

>  <r_i_glide_energy>  (194) 
-28.654

>  <r_i_glide_einternal>  (194) 
0.146812

>  <r_i_glide_intrahb_reward>  (194) 
-0

>  <i_i_glide_confnum>  (194) 
1

>  <i_i_glide_posenum>  (194) 
39

>  <r_i_glide_eff_state_penalty>  (194) 
0

>  <ligand_id>  (194) 
57

>  <original_smiles>  (194) 
CC(=O)N1CC(C)C(N=c2cccn[nH]2)C1

>  <smiles>  (194) 
[H]c1n[n+]([H])c(N([H])C2([H])C([H])([H])N(C(=O)C([H])([H])[H])C([H])([H])C2([H])C([H])([H])[H])c([H])c1[H]

$$$$
57:1:1
     RDKit          3D

 33 34  0  0  1  0  0  0  0  0999 V2000
    1.4068   -1.1008    2.7821 C   0  0  0  0  0  0  0  0  0  0  0  0
    1.8453   -2.5609    2.9200 C   0  0  0  0  0  0  0  0  0  0  0  0
    1.2058   -3.3137    3.6566 O   0  0  0  0  0  0  0  0  0  0  0  0
    2.9158   -2.9849    2.2193 N   0  0  0  0  0  0  0  0  0  0  0  0
    3.3950   -4.3651    2.2070 C   0  0  0  0  0  0  0  0  0  0  0  0
    4.6872   -4.3450    1.3926 C   0  0  1  0  0  0  0  0  0  0  0  0
    5.0454   -5.6906    0.7218 C   0  0  0  0  0  0  0  0  0  0  0  0
    4.5156   -3.1473    0.4492 C   0  0  1  0  0  0  0  0  0  0  0  0
    3.8628   -3.5553   -0.7884 N   0  0  0  0  0  0  0  0  0  0  0  0
    3.7856   -2.7326   -1.9199 C   0  0  0  0  0  0  0  0  0  0  0  0
    3.9258   -1.3304   -1.9107 C   0  0  0  0  0  0  0  0  0  0  0  0
    3.7236   -0.6294   -3.1083 C   0  0  0  0  0  0  0  0  0  0  0  0
    3.4327   -1.3813   -4.2499 C   0  0  0  0  0  0  0  0  0  0  0  0
    3.3642   -2.7319   -4.2542 N   0  0  0  0  0  0  0  0  0  0  0  0
    3.5179   -3.3700   -3.0847 N   0  0  0  0  0  0  0  0  0  0  0  0
    3.6428   -2.1686    1.2541 C   0  0  0  0  0  0  0  0  0  0  0  0
    3.6368   -4.5346   -0.8965 H   0  0  0  0  0  0  0  0  0  0  0  0
    1.2254   -0.8232    1.7447 H   0  0  0  0  0  0  0  0  0  0  0  0
    2.1628   -0.4361    3.1935 H   0  0  0  0  0  0  0  0  0  0  0  0
    0.4757   -0.9348    3.3186 H   0  0  0  0  0  0  0  0  0  0  0  0
    3.5604   -4.7326    3.2196 H   0  0  0  0  0  0  0  0  0  0  0  0
    2.6509   -4.9979    1.7254 H   0  0  0  0  0  0  0  0  0  0  0  0
    5.4900   -4.0878    2.0871 H   0  0  0  0  0  0  0  0  0  0  0  0
    4.3005   -6.0038   -0.0098 H   0  0  0  0  0  0  0  0  0  0  0  0
    5.1108   -6.4965    1.4506 H   0  0  0  0  0  0  0  0  0  0  0  0
    6.0036   -5.6307    0.2041 H   0  0  0  0  0  0  0  0  0  0  0  0
    5.4876   -2.7006    0.2174 H   0  0  0  0  0  0  0  0  0  0  0  0
    4.1415   -0.7820   -1.0122 H   0  0  0  0  0  0  0  0  0  0  0  0
    3.7593    0.4494   -3.1293 H   0  0  0  0  0  0  0  0  0  0  0  0
    3.2526   -0.8726   -5.1860 H   0  0  0  0  0  0  0  0  0  0  0  0
    2.9512   -1.5965    0.6333 H   0  0  0  0  0  0  0  0  0  0  0  0
    4.2700   -1.4632    1.8067 H   0  0  0  0  0  0  0  0  0  0  0  0
    3.3997   -4.3879   -3.0702 H   0  0  0  0  0  0  0  0  0  0  0  0
  1  2  1  0
  1 18  1  0
  1 19  1  0
  1 20  1  0
  2  3  2  0
  2  4  1  0
  4 16  1  0
  4  5  1  0
  5  6  1  0
  5 21  1  0
  5 22  1  0
  6  7  1  0
  6  8  1  0
  6 23  1  1
  7 24  1  0
  7 25  1  0
  7 26  1  0
  8 16  1  0
  8 27  1  6
  8  9  1  0
  9 10  1  0
  9 17  1  0
 10 15  1  0
 10 11  2  0
 11 12  1  0
 11 28  1  0
 12 13  2  0
 12 29  1  0
 13 14  1  0
 13 30  1  0
 14 15  2  0
 15 33  1  0
 16 31  1  0
 16 32  1  0
M  CHG  1  15   1
M  END
>  <i_m_ct_stereo_status>  (195) 
1

>  <s_m_source_file>  (195) 
/var/tmp/pbs.5076255.sched01/tmp68k5m_u8/43t0xmz28c.sdf

>  <i_m_source_file_index>  (195) 
42

>  <i_lp_mmshare_version>  (195) 
48012

>  <i_f3d_flags>  (195) 
0

>  <s_epik_input>  (195) 
W0NIM11DKD1PKU4xW0NIMl1bQ0BASF0oW0NIM10pW0NASF0oW0NIMl0xKS9OPWMyXFtjSF1bY0hdW2NIXW5bbkhdMg==

>  <s_epik_cmdline>  (195) 
J2VwaWtfcHl0aG9uJywgJy1waHQnLCAnMi4wJywgJy1waCcsICc3LjAnLCAnLXRuJywgJzgnLCAnLW1hJywgJzIwMCcsICctaW1hZScsICc8aW5maWxlLm1hZT4nLCAnLW9tYWUnLCAnPG91dGZpbGUubWFlPic=

>  <r_lp_tautomer_probability>  (195) 
0.966961

>  <r_epik_Ionization_Penalty>  (195) 
2.21377

>  <r_epik_Ionization_Penalty_Charging>  (195) 
2.21376

>  <r_epik_Ionization_Penalty_Neutral>  (195) 
8.95552e-06

>  <r_epik_State_Penalty>  (195) 
1.68818

>  <r_epik_Charging_Adjusted_Penalty>  (195) 
3.90195

>  <i_epik_Tot_Q>  (195) 
1

>  <i_epik_Tot_abs_Q>  (195) 
1

>  <s_lp_Force_Field>  (195) 
OPLS3e

>  <r_lp_Energy>  (195) 
24.7782

>  <b_lp_Chiralities_Consistent>  (195) 
1

>  <s_lp_Variant>  (195) 
57:0-2

>  <s_i_glide_gridfile>  (195) 
pfpi4k_grid

>  <i_i_glide_lignum>  (195) 
42

>  <i_i_glide_rotatable_bonds>  (195) 
3

>  <r_i_docking_score>  (195) 
-4.28313

>  <r_i_glide_ligand_efficiency>  (195) 
-0.267696

>  <r_i_glide_ligand_efficiency_sa>  (195) 
-0.67455

>  <r_i_glide_ligand_efficiency_ln>  (195) 
-1.13533

>  <r_i_glide_gscore>  (195) 
-4.28313

>  <r_i_glide_lipo>  (195) 
-0.267094

>  <r_i_glide_hbond>  (195) 
-0.269685

>  <r_i_glide_metal>  (195) 
-0

>  <r_i_glide_rewards>  (195) 
-2.43037

>  <r_i_glide_evdw>  (195) 
-19.4639

>  <r_i_glide_ecoul>  (195) 
-5.47539

>  <r_i_glide_erotb>  (195) 
0.482472

>  <r_i_glide_esite>  (195) 
-0.00394925

>  <r_i_glide_emodel>  (195) 
-33.652

>  <r_i_glide_energy>  (195) 
-24.9393

>  <r_i_glide_einternal>  (195) 
1.05685

>  <r_i_glide_intrahb_reward>  (195) 
-0

>  <i_i_glide_confnum>  (195) 
1

>  <i_i_glide_posenum>  (195) 
9

>  <r_i_glide_eff_state_penalty>  (195) 
0

>  <ligand_id>  (195) 
57

>  <original_smiles>  (195) 
CC(=O)N1CC(C)C(N=c2cccn[nH]2)C1

>  <smiles>  (195) 
[H]c1n[n+]([H])c(N([H])C2([H])C([H])([H])N(C(=O)C([H])([H])[H])C([H])([H])C2([H])C([H])([H])[H])c([H])c1[H]

$$$$
57:1:2
     RDKit          3D

 33 34  0  0  1  0  0  0  0  0999 V2000
   -2.9743    2.7531    7.4532 C   0  0  0  0  0  0  0  0  0  0  0  0
   -1.9879    1.8791    6.6833 C   0  0  0  0  0  0  0  0  0  0  0  0
   -1.5558    0.8589    7.2232 O   0  0  0  0  0  0  0  0  0  0  0  0
   -1.6170    2.2410    5.4411 N   0  0  0  0  0  0  0  0  0  0  0  0
   -2.1533    3.3705    4.6925 C   0  0  0  0  0  0  0  0  0  0  0  0
   -1.2344    3.5322    3.4769 C   0  0  1  0  0  0  0  0  0  0  0  0
   -0.1193    4.5613    3.7745 C   0  0  0  0  0  0  0  0  0  0  0  0
   -0.6929    2.1098    3.2362 C   0  0  1  0  0  0  0  0  0  0  0  0
    0.5676    2.1139    2.4925 N   0  0  0  0  0  0  0  0  0  0  0  0
    1.3503    0.9641    2.2843 C   0  0  0  0  0  0  0  0  0  0  0  0
    0.9328   -0.3542    2.5821 C   0  0  0  0  0  0  0  0  0  0  0  0
    1.8098   -1.4200    2.3350 C   0  0  0  0  0  0  0  0  0  0  0  0
    3.0535   -1.1129    1.7653 C   0  0  0  0  0  0  0  0  0  0  0  0
    3.4440    0.1506    1.4866 N   0  0  0  0  0  0  0  0  0  0  0  0
    2.5864    1.1477    1.7646 N   0  0  0  0  0  0  0  0  0  0  0  0
   -0.6203    1.5244    4.6593 C   0  0  0  0  0  0  0  0  0  0  0  0
    0.8664    3.0069    2.1090 H   0  0  0  0  0  0  0  0  0  0  0  0
   -3.8692    2.9430    6.8657 H   0  0  0  0  0  0  0  0  0  0  0  0
   -2.5139    3.7037    7.7156 H   0  0  0  0  0  0  0  0  0  0  0  0
   -3.2737    2.2647    8.3804 H   0  0  0  0  0  0  0  0  0  0  0  0
   -3.1764    3.1447    4.3855 H   0  0  0  0  0  0  0  0  0  0  0  0
   -2.1725    4.2750    5.2961 H   0  0  0  0  0  0  0  0  0  0  0  0
   -1.8062    3.8638    2.6077 H   0  0  0  0  0  0  0  0  0  0  0  0
    0.5315    4.2191    4.5787 H   0  0  0  0  0  0  0  0  0  0  0  0
   -0.5218    5.5278    4.0661 H   0  0  0  0  0  0  0  0  0  0  0  0
    0.5081    4.7475    2.9032 H   0  0  0  0  0  0  0  0  0  0  0  0
   -1.4343    1.5500    2.6545 H   0  0  0  0  0  0  0  0  0  0  0  0
   -0.0422   -0.5566    2.9781 H   0  0  0  0  0  0  0  0  0  0  0  0
    1.5186   -2.4345    2.5524 H   0  0  0  0  0  0  0  0  0  0  0  0
    3.7481   -1.9036    1.5246 H   0  0  0  0  0  0  0  0  0  0  0  0
    0.3547    1.7052    5.1105 H   0  0  0  0  0  0  0  0  0  0  0  0
   -0.8344    0.4550    4.7035 H   0  0  0  0  0  0  0  0  0  0  0  0
    2.8905    2.1022    1.5675 H   0  0  0  0  0  0  0  0  0  0  0  0
  1  2  1  0
  1 18  1  0
  1 19  1  0
  1 20  1  0
  2  3  2  0
  2  4  1  0
  4 16  1  0
  4  5  1  0
  5  6  1  0
  5 21  1  0
  5 22  1  0
  6  7  1  0
  6  8  1  0
  6 23  1  6
  7 24  1  0
  7 25  1  0
  7 26  1  0
  8 16  1  0
  8 27  1  6
  8  9  1  0
  9 10  1  0
  9 17  1  0
 10 15  1  0
 10 11  2  0
 11 12  1  0
 11 28  1  0
 12 13  2  0
 12 29  1  0
 13 14  1  0
 13 30  1  0
 14 15  2  0
 15 33  1  0
 16 31  1  0
 16 32  1  0
M  CHG  1  15   1
M  END
>  <i_m_ct_stereo_status>  (196) 
1

>  <s_m_source_file>  (196) 
/var/tmp/pbs.5076255.sched01/tmp68k5m_u8/43t0xmz28c.sdf

>  <i_m_source_file_index>  (196) 
42

>  <i_lp_mmshare_version>  (196) 
48012

>  <i_f3d_flags>  (196) 
0

>  <s_epik_input>  (196) 
W0NIM11DKD1PKU4xW0NIMl1bQ0BASF0oW0NIM10pW0NASF0oW0NIMl0xKS9OPWMyXFtjSF1bY0hdW2NIXW5bbkhdMg==

>  <s_epik_cmdline>  (196) 
J2VwaWtfcHl0aG9uJywgJy1waHQnLCAnMi4wJywgJy1waCcsICc3LjAnLCAnLXRuJywgJzgnLCAnLW1hJywgJzIwMCcsICctaW1hZScsICc8aW5maWxlLm1hZT4nLCAnLW9tYWUnLCAnPG91dGZpbGUubWFlPic=

>  <r_lp_tautomer_probability>  (196) 
0.966961

>  <r_epik_Ionization_Penalty>  (196) 
2.21377

>  <r_epik_Ionization_Penalty_Charging>  (196) 
2.21376

>  <r_epik_Ionization_Penalty_Neutral>  (196) 
8.95552e-06

>  <r_epik_State_Penalty>  (196) 
1.68818

>  <r_epik_Charging_Adjusted_Penalty>  (196) 
3.90195

>  <i_epik_Tot_Q>  (196) 
1

>  <i_epik_Tot_abs_Q>  (196) 
1

>  <s_lp_Force_Field>  (196) 
OPLS3e

>  <r_lp_Energy>  (196) 
24.7782

>  <b_lp_Chiralities_Consistent>  (196) 
1

>  <s_lp_Variant>  (196) 
57:0-2

>  <s_i_glide_gridfile>  (196) 
pfpi4k_grid

>  <i_i_glide_lignum>  (196) 
42

>  <i_i_glide_rotatable_bonds>  (196) 
3

>  <r_i_docking_score>  (196) 
-3.86459

>  <r_i_glide_ligand_efficiency>  (196) 
-0.241537

>  <r_i_glide_ligand_efficiency_sa>  (196) 
-0.608635

>  <r_i_glide_ligand_efficiency_ln>  (196) 
-1.02439

>  <r_i_glide_gscore>  (196) 
-3.86459

>  <r_i_glide_lipo>  (196) 
-0.18342

>  <r_i_glide_hbond>  (196) 
-0.295879

>  <r_i_glide_metal>  (196) 
-0

>  <r_i_glide_rewards>  (196) 
-1.90037

>  <r_i_glide_evdw>  (196) 
-18.3166

>  <r_i_glide_ecoul>  (196) 
-7.63687

>  <r_i_glide_erotb>  (196) 
0.689245

>  <r_i_glide_esite>  (196) 
-0.112804

>  <r_i_glide_emodel>  (196) 
-33.9565

>  <r_i_glide_energy>  (196) 
-25.9535

>  <r_i_glide_einternal>  (196) 
0.880397

>  <r_i_glide_intrahb_reward>  (196) 
-0

>  <i_i_glide_confnum>  (196) 
3

>  <i_i_glide_posenum>  (196) 
31

>  <r_i_glide_eff_state_penalty>  (196) 
0

>  <ligand_id>  (196) 
57

>  <original_smiles>  (196) 
CC(=O)N1CC(C)C(N=c2cccn[nH]2)C1

>  <smiles>  (196) 
[H]c1n[n+]([H])c(N([H])C2([H])C([H])([H])N(C(=O)C([H])([H])[H])C([H])([H])C2([H])C([H])([H])[H])c([H])c1[H]

$$$$
58:0:0
     RDKit          3D

 46 49  0  0  1  0  0  0  0  0999 V2000
    5.4412   -3.6759   -0.7132 C   0  0  0  0  0  0  0  0  0  0  0  0
    4.6265   -2.3719   -0.6117 C   0  0  2  0  0  0  0  0  0  0  0  0
    3.4420   -2.5332    0.3586 C   0  0  0  0  0  0  0  0  0  0  0  0
    2.6861   -3.4935    0.2107 O   0  0  0  0  0  0  0  0  0  0  0  0
    3.3087   -1.6631    1.3892 N   0  0  0  0  0  0  0  0  0  0  0  0
    2.3288   -1.8062    2.4615 C   0  0  0  0  0  0  0  0  0  0  0  0
    1.4035   -0.6070    2.2369 C   0  0  1  0  0  0  0  0  0  0  0  0
    0.8719    0.1132    3.4731 C   0  0  0  0  0  0  0  0  0  0  0  0
    0.9513    1.5560    3.1439 N   0  0  1  0  0  0  0  0  0  0  0  0
    0.9294    2.4693    4.3157 C   0  0  0  0  0  0  0  0  0  0  0  0
   -0.3427    2.3641    5.1577 C   0  0  0  0  0  0  0  0  0  0  0  0
   -1.3659    3.3361    5.0883 C   0  0  0  0  0  0  0  0  0  0  0  0
   -2.4649    3.2680    5.8673 N   0  0  0  0  0  0  0  0  0  0  0  0
   -2.5481    2.2330    6.7022 C   0  0  0  0  0  0  0  0  0  0  0  0
   -1.6634    1.2464    6.8537 N   0  0  0  0  0  0  0  0  0  0  0  0
   -0.5451    1.3295    6.1009 C   0  0  0  0  0  0  0  0  0  0  0  0
    2.1602    1.7115    2.3056 C   0  0  0  0  0  0  0  0  0  0  0  0
    2.2548    0.4166    1.4901 C   0  0  1  0  0  0  0  0  0  0  0  0
    3.6389   -0.2404    1.3574 C   0  0  0  0  0  0  0  0  0  0  0  0
    4.1544   -1.9419   -1.9190 N   0  0  0  0  0  0  0  0  0  0  0  0
    3.4587   -2.5854   -2.8603 C   0  0  0  0  0  0  0  0  0  0  0  0
    3.1910   -1.8428   -3.9239 N   0  0  0  0  0  0  0  0  0  0  0  0
    3.7461   -0.6585   -3.5279 C   0  0  0  0  0  0  0  0  0  0  0  0
    4.3678   -0.6730   -2.3464 N   0  0  0  0  0  0  0  0  0  0  0  0
    5.8380   -3.9600    0.2619 H   0  0  0  0  0  0  0  0  0  0  0  0
    6.2923   -3.5598   -1.3853 H   0  0  0  0  0  0  0  0  0  0  0  0
    4.8440   -4.5130   -1.0794 H   0  0  0  0  0  0  0  0  0  0  0  0
    5.3193   -1.6206   -0.2322 H   0  0  0  0  0  0  0  0  0  0  0  0
    1.7901   -2.7534    2.4434 H   0  0  0  0  0  0  0  0  0  0  0  0
    2.8482   -1.7474    3.4215 H   0  0  0  0  0  0  0  0  0  0  0  0
    0.5790   -0.9109    1.5957 H   0  0  0  0  0  0  0  0  0  0  0  0
   -0.1456   -0.1993    3.7146 H   0  0  0  0  0  0  0  0  0  0  0  0
    1.5171   -0.0974    4.3262 H   0  0  0  0  0  0  0  0  0  0  0  0
    1.7888    2.2892    4.9605 H   0  0  0  0  0  0  0  0  0  0  0  0
    1.0247    3.4942    3.9559 H   0  0  0  0  0  0  0  0  0  0  0  0
   -1.2960    4.1886    4.4247 H   0  0  0  0  0  0  0  0  0  0  0  0
   -3.4493    2.1579    7.2865 H   0  0  0  0  0  0  0  0  0  0  0  0
    0.1945    0.5540    6.2513 H   0  0  0  0  0  0  0  0  0  0  0  0
    2.0978    2.6007    1.6771 H   0  0  0  0  0  0  0  0  0  0  0  0
    3.0398    1.8052    2.9422 H   0  0  0  0  0  0  0  0  0  0  0  0
    1.8129    0.5436    0.5001 H   0  0  0  0  0  0  0  0  0  0  0  0
    4.2846   -0.0023    2.2076 H   0  0  0  0  0  0  0  0  0  0  0  0
    4.1422    0.1007    0.4524 H   0  0  0  0  0  0  0  0  0  0  0  0
    3.1489   -3.6199   -2.7697 H   0  0  0  0  0  0  0  0  0  0  0  0
    3.7094    0.2279   -4.1376 H   0  0  0  0  0  0  0  0  0  0  0  0
    0.1682    1.7785    2.5400 H   0  0  0  0  0  0  0  0  0  0  0  0
  1  2  1  0
  1 25  1  0
  1 26  1  0
  1 27  1  0
  2  3  1  0
  2 20  1  0
  2 28  1  1
  3  4  2  0
  3  5  1  0
  5 19  1  0
  5  6  1  0
  6  7  1  0
  6 29  1  0
  6 30  1  0
  7 18  1  0
  7  8  1  0
  7 31  1  6
  8  9  1  0
  8 32  1  0
  8 33  1  0
  9 10  1  0
  9 17  1  0
  9 46  1  6
 10 11  1  0
 10 34  1  0
 10 35  1  0
 11 16  1  0
 11 12  2  0
 12 13  1  0
 12 36  1  0
 13 14  2  0
 14 15  1  0
 14 37  1  0
 15 16  2  0
 16 38  1  0
 17 18  1  0
 17 39  1  0
 17 40  1  0
 18 19  1  0
 18 41  1  6
 19 42  1  0
 19 43  1  0
 20 24  1  0
 20 21  1  0
 21 22  2  0
 21 44  1  0
 22 23  1  0
 23 24  2  0
 23 45  1  0
M  CHG  1   9   1
M  END
>  <i_m_ct_stereo_status>  (197) 
1

>  <s_m_source_file>  (197) 
/var/tmp/pbs.5076255.sched01/tmp68k5m_u8/43t0xmz28c.sdf

>  <i_m_source_file_index>  (197) 
43

>  <i_lp_mmshare_version>  (197) 
48012

>  <i_f3d_flags>  (197) 
0

>  <s_epik_input>  (197) 
bjFbY0hdbltjSF1uMVtDQEhdKFtDSDNdKUMoPU8pTihbQ0gyXTIpW0NIMl1bQ0BASF0oW0NAQEhdMjMpW0NIMl1OKFtDSDJdMylbQ0gyXWM0W2NIXW5bY0hdbltjSF00

>  <s_epik_cmdline>  (197) 
J2VwaWtfcHl0aG9uJywgJy1waHQnLCAnMi4wJywgJy1waCcsICc3LjAnLCAnLXRuJywgJzgnLCAnLW1hJywgJzIwMCcsICctaW1hZScsICc8aW5maWxlLm1hZT4nLCAnLW9tYWUnLCAnPG91dGZpbGUubWFlPic=

>  <r_lp_tautomer_probability>  (197) 
1

>  <r_epik_Ionization_Penalty>  (197) 
0.028183

>  <r_epik_Ionization_Penalty_Charging>  (197) 
0.0281688

>  <r_epik_Ionization_Penalty_Neutral>  (197) 
1.41949e-05

>  <r_epik_State_Penalty>  (197) 
0.023099

>  <r_epik_Charging_Adjusted_Penalty>  (197) 
0.0512678

>  <i_epik_Tot_Q>  (197) 
1

>  <i_epik_Tot_abs_Q>  (197) 
1

>  <s_epik_Chemistry_Notes>  (197) 
This compound contains an electron-poor aromatic ring that is susceptible to covalent hydrolysis at low pH, typically resulting in measured values for nitrogen ring protonation that are around two units higher than predicted values.

>  <s_lp_Force_Field>  (197) 
OPLS3e

>  <r_lp_Energy>  (197) 
33.4972

>  <b_lp_Chiralities_Consistent>  (197) 
1

>  <s_lp_Variant>  (197) 
58:0-1

>  <s_i_glide_gridfile>  (197) 
pfpi4k_grid

>  <i_i_glide_lignum>  (197) 
43

>  <i_i_glide_rotatable_bonds>  (197) 
5

>  <r_i_docking_score>  (197) 
-3.59147

>  <r_i_glide_ligand_efficiency>  (197) 
-0.149645

>  <r_i_glide_ligand_efficiency_sa>  (197) 
-0.431649

>  <r_i_glide_ligand_efficiency_ln>  (197) 
-0.859603

>  <r_i_glide_gscore>  (197) 
-3.59147

>  <r_i_glide_lipo>  (197) 
-0.130868

>  <r_i_glide_hbond>  (197) 
-0.0566182

>  <r_i_glide_metal>  (197) 
-0

>  <r_i_glide_rewards>  (197) 
-1.57583

>  <r_i_glide_evdw>  (197) 
-30.9554

>  <r_i_glide_ecoul>  (197) 
-6.94768

>  <r_i_glide_erotb>  (197) 
0.870767

>  <r_i_glide_esite>  (197) 
-0.109

>  <r_i_glide_emodel>  (197) 
-46.6264

>  <r_i_glide_energy>  (197) 
-37.9031

>  <r_i_glide_einternal>  (197) 
0.693237

>  <r_i_glide_intrahb_reward>  (197) 
-0

>  <i_i_glide_confnum>  (197) 
1

>  <i_i_glide_posenum>  (197) 
23

>  <r_i_glide_eff_state_penalty>  (197) 
0

>  <ligand_id>  (197) 
58

>  <original_smiles>  (197) 
CC(C(=O)N1CC2CN(Cc3cncnc3)CC2C1)n1cncn1

>  <smiles>  (197) 
[H]c1nc([H])c(C([H])([H])[N+]2([H])C([H])([H])C3([H])C([H])([H])N(C(=O)C([H])(n4nc([H])nc4[H])C([H])([H])[H])C([H])([H])C3([H])C2([H])[H])c([H])n1

$$$$
58:0:1
     RDKit          3D

 46 49  0  0  1  0  0  0  0  0999 V2000
    5.6690   -3.2173   -0.5659 C   0  0  0  0  0  0  0  0  0  0  0  0
    4.5850   -2.1237   -0.5855 C   0  0  2  0  0  0  0  0  0  0  0  0
    3.5338   -2.3676    0.5205 C   0  0  0  0  0  0  0  0  0  0  0  0
    2.9299   -3.4411    0.5413 O   0  0  0  0  0  0  0  0  0  0  0  0
    3.3453   -1.4357    1.4836 N   0  0  0  0  0  0  0  0  0  0  0  0
    2.4131   -1.5926    2.5970 C   0  0  0  0  0  0  0  0  0  0  0  0
    1.3829   -0.4961    2.3132 C   0  0  1  0  0  0  0  0  0  0  0  0
    0.8321    0.2637    3.5113 C   0  0  0  0  0  0  0  0  0  0  0  0
    0.7811    1.6863    3.0928 N   0  0  1  0  0  0  0  0  0  0  0  0
    0.7158    2.6721    4.2063 C   0  0  0  0  0  0  0  0  0  0  0  0
   -0.4728    2.4700    5.1514 C   0  0  0  0  0  0  0  0  0  0  0  0
   -1.5388    3.3943    5.2139 C   0  0  0  0  0  0  0  0  0  0  0  0
   -2.5644    3.2429    6.0763 N   0  0  0  0  0  0  0  0  0  0  0  0
   -2.5368    2.1668    6.8604 C   0  0  0  0  0  0  0  0  0  0  0  0
   -1.6015    1.2182    6.8906 N   0  0  0  0  0  0  0  0  0  0  0  0
   -0.5502    1.3903    6.0634 C   0  0  0  0  0  0  0  0  0  0  0  0
    1.9490    1.8829    2.2057 C   0  0  0  0  0  0  0  0  0  0  0  0
    2.1286    0.5441    1.4832 C   0  0  1  0  0  0  0  0  0  0  0  0
    3.5564    0.0043    1.3629 C   0  0  0  0  0  0  0  0  0  0  0  0
    3.9721   -2.0197   -1.9081 N   0  0  0  0  0  0  0  0  0  0  0  0
    3.9744   -1.0275   -2.7971 C   0  0  0  0  0  0  0  0  0  0  0  0
    3.3596   -1.3172   -3.9364 N   0  0  0  0  0  0  0  0  0  0  0  0
    2.9305   -2.5833   -3.6456 C   0  0  0  0  0  0  0  0  0  0  0  0
    3.3015   -3.0584   -2.4568 N   0  0  0  0  0  0  0  0  0  0  0  0
    6.1779   -3.2414    0.3989 H   0  0  0  0  0  0  0  0  0  0  0  0
    6.4253   -3.0247   -1.3292 H   0  0  0  0  0  0  0  0  0  0  0  0
    5.2513   -4.2072   -0.7546 H   0  0  0  0  0  0  0  0  0  0  0  0
    5.1290   -1.2024   -0.4091 H   0  0  0  0  0  0  0  0  0  0  0  0
    1.9508   -2.5785    2.6667 H   0  0  0  0  0  0  0  0  0  0  0  0
    2.9503   -1.4255    3.5342 H   0  0  0  0  0  0  0  0  0  0  0  0
    0.5776   -0.9097    1.7077 H   0  0  0  0  0  0  0  0  0  0  0  0
   -0.1484   -0.1182    3.8023 H   0  0  0  0  0  0  0  0  0  0  0  0
    1.5259    0.1645    4.3469 H   0  0  0  0  0  0  0  0  0  0  0  0
    1.6323    2.6524    4.7941 H   0  0  0  0  0  0  0  0  0  0  0  0
    0.6550    3.6695    3.7664 H   0  0  0  0  0  0  0  0  0  0  0  0
   -1.5594    4.2830    4.5941 H   0  0  0  0  0  0  0  0  0  0  0  0
   -3.3755    2.0275    7.5225 H   0  0  0  0  0  0  0  0  0  0  0  0
    0.2296    0.6451    6.1303 H   0  0  0  0  0  0  0  0  0  0  0  0
    1.8066    2.7152    1.5134 H   0  0  0  0  0  0  0  0  0  0  0  0
    2.8362    2.0905    2.8053 H   0  0  0  0  0  0  0  0  0  0  0  0
    1.6664    0.5546    0.4964 H   0  0  0  0  0  0  0  0  0  0  0  0
    4.1984    0.3385    2.1836 H   0  0  0  0  0  0  0  0  0  0  0  0
    3.9974    0.3522    0.4312 H   0  0  0  0  0  0  0  0  0  0  0  0
    4.4525   -0.0751   -2.6086 H   0  0  0  0  0  0  0  0  0  0  0  0
    2.3555   -3.1786   -4.3365 H   0  0  0  0  0  0  0  0  0  0  0  0
   -0.0359    1.8043    2.5020 H   0  0  0  0  0  0  0  0  0  0  0  0
  1  2  1  0
  1 25  1  0
  1 26  1  0
  1 27  1  0
  2  3  1  0
  2 20  1  0
  2 28  1  1
  3  4  2  0
  3  5  1  0
  5 19  1  0
  5  6  1  0
  6  7  1  0
  6 29  1  0
  6 30  1  0
  7 18  1  0
  7  8  1  0
  7 31  1  6
  8  9  1  0
  8 32  1  0
  8 33  1  0
  9 10  1  0
  9 17  1  0
  9 46  1  6
 10 11  1  0
 10 34  1  0
 10 35  1  0
 11 16  1  0
 11 12  2  0
 12 13  1  0
 12 36  1  0
 13 14  2  0
 14 15  1  0
 14 37  1  0
 15 16  2  0
 16 38  1  0
 17 18  1  0
 17 39  1  0
 17 40  1  0
 18 19  1  0
 18 41  1  6
 19 42  1  0
 19 43  1  0
 20 24  1  0
 20 21  1  0
 21 22  2  0
 21 44  1  0
 22 23  1  0
 23 24  2  0
 23 45  1  0
M  CHG  1   9   1
M  END
>  <i_m_ct_stereo_status>  (198) 
1

>  <s_m_source_file>  (198) 
/var/tmp/pbs.5076255.sched01/tmp68k5m_u8/43t0xmz28c.sdf

>  <i_m_source_file_index>  (198) 
43

>  <i_lp_mmshare_version>  (198) 
48012

>  <i_f3d_flags>  (198) 
0

>  <s_epik_input>  (198) 
bjFbY0hdbltjSF1uMVtDQEhdKFtDSDNdKUMoPU8pTihbQ0gyXTIpW0NIMl1bQ0BASF0oW0NAQEhdMjMpW0NIMl1OKFtDSDJdMylbQ0gyXWM0W2NIXW5bY0hdbltjSF00

>  <s_epik_cmdline>  (198) 
J2VwaWtfcHl0aG9uJywgJy1waHQnLCAnMi4wJywgJy1waCcsICc3LjAnLCAnLXRuJywgJzgnLCAnLW1hJywgJzIwMCcsICctaW1hZScsICc8aW5maWxlLm1hZT4nLCAnLW9tYWUnLCAnPG91dGZpbGUubWFlPic=

>  <r_lp_tautomer_probability>  (198) 
1

>  <r_epik_Ionization_Penalty>  (198) 
0.028183

>  <r_epik_Ionization_Penalty_Charging>  (198) 
0.0281688

>  <r_epik_Ionization_Penalty_Neutral>  (198) 
1.41949e-05

>  <r_epik_State_Penalty>  (198) 
0.023099

>  <r_epik_Charging_Adjusted_Penalty>  (198) 
0.0512678

>  <i_epik_Tot_Q>  (198) 
1

>  <i_epik_Tot_abs_Q>  (198) 
1

>  <s_epik_Chemistry_Notes>  (198) 
This compound contains an electron-poor aromatic ring that is susceptible to covalent hydrolysis at low pH, typically resulting in measured values for nitrogen ring protonation that are around two units higher than predicted values.

>  <s_lp_Force_Field>  (198) 
OPLS3e

>  <r_lp_Energy>  (198) 
33.4972

>  <b_lp_Chiralities_Consistent>  (198) 
1

>  <s_lp_Variant>  (198) 
58:0-1

>  <s_i_glide_gridfile>  (198) 
pfpi4k_grid

>  <i_i_glide_lignum>  (198) 
43

>  <i_i_glide_rotatable_bonds>  (198) 
5

>  <r_i_docking_score>  (198) 
-3.28728

>  <r_i_glide_ligand_efficiency>  (198) 
-0.13697

>  <r_i_glide_ligand_efficiency_sa>  (198) 
-0.39509

>  <r_i_glide_ligand_efficiency_ln>  (198) 
-0.786798

>  <r_i_glide_gscore>  (198) 
-3.28728

>  <r_i_glide_lipo>  (198) 
-0.0736175

>  <r_i_glide_hbond>  (198) 
-0.0615022

>  <r_i_glide_metal>  (198) 
-0

>  <r_i_glide_rewards>  (198) 
-1.55949

>  <r_i_glide_evdw>  (198) 
-31.4642

>  <r_i_glide_ecoul>  (198) 
-5.13827

>  <r_i_glide_erotb>  (198) 
0.870767

>  <r_i_glide_esite>  (198) 
-0.11949

>  <r_i_glide_emodel>  (198) 
-43.5467

>  <r_i_glide_energy>  (198) 
-36.6025

>  <r_i_glide_einternal>  (198) 
1.19961

>  <r_i_glide_intrahb_reward>  (198) 
-0

>  <i_i_glide_confnum>  (198) 
3

>  <i_i_glide_posenum>  (198) 
27

>  <r_i_glide_eff_state_penalty>  (198) 
0

>  <ligand_id>  (198) 
58

>  <original_smiles>  (198) 
CC(C(=O)N1CC2CN(Cc3cncnc3)CC2C1)n1cncn1

>  <smiles>  (198) 
[H]c1nc([H])c(C([H])([H])[N+]2([H])C([H])([H])C3([H])C([H])([H])N(C(=O)C([H])(n4nc([H])nc4[H])C([H])([H])[H])C([H])([H])C3([H])C2([H])[H])c([H])n1

$$$$
58:0:2
     RDKit          3D

 46 49  0  0  1  0  0  0  0  0999 V2000
    6.1788   -2.4908   -0.1923 C   0  0  0  0  0  0  0  0  0  0  0  0
    4.8044   -1.9101   -0.6008 C   0  0  2  0  0  0  0  0  0  0  0  0
    3.7552   -2.1919    0.4965 C   0  0  0  0  0  0  0  0  0  0  0  0
    3.1798   -3.2788    0.5026 O   0  0  0  0  0  0  0  0  0  0  0  0
    3.5316   -1.2715    1.4666 N   0  0  0  0  0  0  0  0  0  0  0  0
    2.6198   -1.4658    2.5938 C   0  0  0  0  0  0  0  0  0  0  0  0
    1.5325   -0.4180    2.3237 C   0  0  1  0  0  0  0  0  0  0  0  0
    0.9634    0.3265    3.5256 C   0  0  0  0  0  0  0  0  0  0  0  0
    0.8442    1.7433    3.0977 N   0  0  1  0  0  0  0  0  0  0  0  0
    0.7457    2.7316    4.2054 C   0  0  0  0  0  0  0  0  0  0  0  0
   -0.4493    2.5064    5.1355 C   0  0  0  0  0  0  0  0  0  0  0  0
   -1.5430    3.3992    5.1701 C   0  0  0  0  0  0  0  0  0  0  0  0
   -2.5754    3.2304    6.0210 N   0  0  0  0  0  0  0  0  0  0  0  0
   -2.5245    2.1690    6.8241 C   0  0  0  0  0  0  0  0  0  0  0  0
   -1.5622    1.2486    6.8812 N   0  0  0  0  0  0  0  0  0  0  0  0
   -0.5070    1.4376    6.0608 C   0  0  0  0  0  0  0  0  0  0  0  0
    1.9939    1.9853    2.1981 C   0  0  0  0  0  0  0  0  0  0  0  0
    2.2247    0.6496    1.4831 C   0  0  1  0  0  0  0  0  0  0  0  0
    3.6776    0.1762    1.3574 C   0  0  0  0  0  0  0  0  0  0  0  0
    4.3524   -2.3958   -1.9037 N   0  0  0  0  0  0  0  0  0  0  0  0
    3.3335   -1.9977   -2.6716 C   0  0  0  0  0  0  0  0  0  0  0  0
    3.2655   -2.6214   -3.8416 N   0  0  0  0  0  0  0  0  0  0  0  0
    4.3173   -3.4812   -3.7032 C   0  0  0  0  0  0  0  0  0  0  0  0
    5.0219   -3.3649   -2.5771 N   0  0  0  0  0  0  0  0  0  0  0  0
    6.5374   -2.0630    0.7440 H   0  0  0  0  0  0  0  0  0  0  0  0
    6.9280   -2.2672   -0.9527 H   0  0  0  0  0  0  0  0  0  0  0  0
    6.1452   -3.5747   -0.0748 H   0  0  0  0  0  0  0  0  0  0  0  0
    4.9616   -0.8486   -0.7481 H   0  0  0  0  0  0  0  0  0  0  0  0
    2.2075   -2.4720    2.6773 H   0  0  0  0  0  0  0  0  0  0  0  0
    3.1575   -1.2642    3.5251 H   0  0  0  0  0  0  0  0  0  0  0  0
    0.7307   -0.8666    1.7340 H   0  0  0  0  0  0  0  0  0  0  0  0
    0.0038   -0.0954    3.8290 H   0  0  0  0  0  0  0  0  0  0  0  0
    1.6664    0.2647    4.3567 H   0  0  0  0  0  0  0  0  0  0  0  0
    1.6561    2.7334    4.8023 H   0  0  0  0  0  0  0  0  0  0  0  0
    0.6673    3.7253    3.7623 H   0  0  0  0  0  0  0  0  0  0  0  0
   -1.5813    4.2749    4.5350 H   0  0  0  0  0  0  0  0  0  0  0  0
   -3.3715    2.0116    7.4704 H   0  0  0  0  0  0  0  0  0  0  0  0
    0.2949    0.7156    6.1443 H   0  0  0  0  0  0  0  0  0  0  0  0
    1.8112    2.8068    1.5026 H   0  0  0  0  0  0  0  0  0  0  0  0
    2.8755    2.2387    2.7874 H   0  0  0  0  0  0  0  0  0  0  0  0
    1.7503    0.6316    0.5022 H   0  0  0  0  0  0  0  0  0  0  0  0
    4.2993    0.5281    2.1855 H   0  0  0  0  0  0  0  0  0  0  0  0
    4.1087    0.5669    0.4397 H   0  0  0  0  0  0  0  0  0  0  0  0
    2.6382   -1.2240   -2.3695 H   0  0  0  0  0  0  0  0  0  0  0  0
    4.5954   -4.1881   -4.4661 H   0  0  0  0  0  0  0  0  0  0  0  0
    0.0189    1.8216    2.5131 H   0  0  0  0  0  0  0  0  0  0  0  0
  1  2  1  0
  1 25  1  0
  1 26  1  0
  1 27  1  0
  2  3  1  0
  2 20  1  0
  2 28  1  6
  3  4  2  0
  3  5  1  0
  5 19  1  0
  5  6  1  0
  6  7  1  0
  6 29  1  0
  6 30  1  0
  7 18  1  0
  7  8  1  0
  7 31  1  6
  8  9  1  0
  8 32  1  0
  8 33  1  0
  9 10  1  0
  9 17  1  0
  9 46  1  6
 10 11  1  0
 10 34  1  0
 10 35  1  0
 11 16  1  0
 11 12  2  0
 12 13  1  0
 12 36  1  0
 13 14  2  0
 14 15  1  0
 14 37  1  0
 15 16  2  0
 16 38  1  0
 17 18  1  0
 17 39  1  0
 17 40  1  0
 18 19  1  0
 18 41  1  6
 19 42  1  0
 19 43  1  0
 20 24  1  0
 20 21  1  0
 21 22  2  0
 21 44  1  0
 22 23  1  0
 23 24  2  0
 23 45  1  0
M  CHG  1   9   1
M  END
>  <i_m_ct_stereo_status>  (199) 
1

>  <s_m_source_file>  (199) 
/var/tmp/pbs.5076255.sched01/tmp68k5m_u8/43t0xmz28c.sdf

>  <i_m_source_file_index>  (199) 
43

>  <i_lp_mmshare_version>  (199) 
48012

>  <i_f3d_flags>  (199) 
0

>  <s_epik_input>  (199) 
bjFbY0hdbltjSF1uMVtDQEhdKFtDSDNdKUMoPU8pTihbQ0gyXTIpW0NIMl1bQ0BASF0oW0NAQEhdMjMpW0NIMl1OKFtDSDJdMylbQ0gyXWM0W2NIXW5bY0hdbltjSF00

>  <s_epik_cmdline>  (199) 
J2VwaWtfcHl0aG9uJywgJy1waHQnLCAnMi4wJywgJy1waCcsICc3LjAnLCAnLXRuJywgJzgnLCAnLW1hJywgJzIwMCcsICctaW1hZScsICc8aW5maWxlLm1hZT4nLCAnLW9tYWUnLCAnPG91dGZpbGUubWFlPic=

>  <r_lp_tautomer_probability>  (199) 
1

>  <r_epik_Ionization_Penalty>  (199) 
0.028183

>  <r_epik_Ionization_Penalty_Charging>  (199) 
0.0281688

>  <r_epik_Ionization_Penalty_Neutral>  (199) 
1.41949e-05

>  <r_epik_State_Penalty>  (199) 
0.023099

>  <r_epik_Charging_Adjusted_Penalty>  (199) 
0.0512678

>  <i_epik_Tot_Q>  (199) 
1

>  <i_epik_Tot_abs_Q>  (199) 
1

>  <s_epik_Chemistry_Notes>  (199) 
This compound contains an electron-poor aromatic ring that is susceptible to covalent hydrolysis at low pH, typically resulting in measured values for nitrogen ring protonation that are around two units higher than predicted values.

>  <s_lp_Force_Field>  (199) 
OPLS3e

>  <r_lp_Energy>  (199) 
33.4972

>  <b_lp_Chiralities_Consistent>  (199) 
1

>  <s_lp_Variant>  (199) 
58:0-1

>  <s_i_glide_gridfile>  (199) 
pfpi4k_grid

>  <i_i_glide_lignum>  (199) 
43

>  <i_i_glide_rotatable_bonds>  (199) 
5

>  <r_i_docking_score>  (199) 
-3.09812

>  <r_i_glide_ligand_efficiency>  (199) 
-0.129088

>  <r_i_glide_ligand_efficiency_sa>  (199) 
-0.372355

>  <r_i_glide_ligand_efficiency_ln>  (199) 
-0.741521

>  <r_i_glide_gscore>  (199) 
-3.09812

>  <r_i_glide_lipo>  (199) 
-0.0367208

>  <r_i_glide_hbond>  (199) 
-0.0433754

>  <r_i_glide_metal>  (199) 
-0

>  <r_i_glide_rewards>  (199) 
-1.41462

>  <r_i_glide_evdw>  (199) 
-31.1907

>  <r_i_glide_ecoul>  (199) 
-5.27469

>  <r_i_glide_erotb>  (199) 
0.870767

>  <r_i_glide_esite>  (199) 
-0.12343

>  <r_i_glide_emodel>  (199) 
-42.3473

>  <r_i_glide_energy>  (199) 
-36.4654

>  <r_i_glide_einternal>  (199) 
2.70456

>  <r_i_glide_intrahb_reward>  (199) 
-0

>  <i_i_glide_confnum>  (199) 
1

>  <i_i_glide_posenum>  (199) 
1

>  <r_i_glide_eff_state_penalty>  (199) 
0

>  <ligand_id>  (199) 
58

>  <original_smiles>  (199) 
CC(C(=O)N1CC2CN(Cc3cncnc3)CC2C1)n1cncn1

>  <smiles>  (199) 
[H]c1nc([H])c(C([H])([H])[N+]2([H])C([H])([H])C3([H])C([H])([H])N(C(=O)C([H])(n4nc([H])nc4[H])C([H])([H])[H])C([H])([H])C3([H])C2([H])[H])c([H])n1

$$$$
58:1:0
     RDKit          3D

 46 49  0  0  1  0  0  0  0  0999 V2000
    1.1945   -5.2548    3.4442 C   0  0  0  0  0  0  0  0  0  0  0  0
    1.5513   -6.7379    3.2171 C   0  0  2  0  0  0  0  0  0  0  0  0
    2.5042   -6.8799    2.0178 C   0  0  0  0  0  0  0  0  0  0  0  0
    2.0789   -6.6177    0.8915 O   0  0  0  0  0  0  0  0  0  0  0  0
    3.7701   -7.3055    2.2293 N   0  0  0  0  0  0  0  0  0  0  0  0
    4.6768   -7.7131    1.1603 C   0  0  0  0  0  0  0  0  0  0  0  0
    5.7315   -6.6032    1.0968 C   0  0  1  0  0  0  0  0  0  0  0  0
    5.3744   -5.4720    0.1150 C   0  0  0  0  0  0  0  0  0  0  0  0
    4.7130   -4.4306    0.9252 N   0  0  2  0  0  0  0  0  0  0  0  0
    4.6497   -3.0709    0.3223 C   0  0  0  0  0  0  0  0  0  0  0  0
    4.1423   -3.0680   -1.1149 C   0  0  0  0  0  0  0  0  0  0  0  0
    5.0205   -3.0444   -2.2206 C   0  0  0  0  0  0  0  0  0  0  0  0
    4.5737   -3.0318   -3.4916 N   0  0  0  0  0  0  0  0  0  0  0  0
    3.2507   -3.0529   -3.6544 C   0  0  0  0  0  0  0  0  0  0  0  0
    2.3276   -3.0518   -2.6990 N   0  0  0  0  0  0  0  0  0  0  0  0
    2.7656   -3.0597   -1.4271 C   0  0  0  0  0  0  0  0  0  0  0  0
    5.3713   -4.4852    2.2476 C   0  0  0  0  0  0  0  0  0  0  0  0
    5.7087   -5.9670    2.4944 C   0  0  1  0  0  0  0  0  0  0  0  0
    4.6290   -6.7472    3.2694 C   0  0  0  0  0  0  0  0  0  0  0  0
    0.3646   -7.5664    3.0100 N   0  0  0  0  0  0  0  0  0  0  0  0
    0.1946   -8.8811    3.1842 C   0  0  0  0  0  0  0  0  0  0  0  0
   -1.0110   -9.3159    2.8641 N   0  0  0  0  0  0  0  0  0  0  0  0
   -1.5859   -8.1412    2.4803 C   0  0  0  0  0  0  0  0  0  0  0  0
   -0.8022   -7.0608    2.5217 N   0  0  0  0  0  0  0  0  0  0  0  0
    2.0803   -4.6536    3.6479 H   0  0  0  0  0  0  0  0  0  0  0  0
    0.5142   -5.1461    4.2885 H   0  0  0  0  0  0  0  0  0  0  0  0
    0.7058   -4.8259    2.5715 H   0  0  0  0  0  0  0  0  0  0  0  0
    2.0368   -7.1179    4.1171 H   0  0  0  0  0  0  0  0  0  0  0  0
    5.1452   -8.6580    1.4490 H   0  0  0  0  0  0  0  0  0  0  0  0
    4.1955   -7.8882    0.1997 H   0  0  0  0  0  0  0  0  0  0  0  0
    6.7102   -7.0198    0.8622 H   0  0  0  0  0  0  0  0  0  0  0  0
    6.2907   -5.0547   -0.2994 H   0  0  0  0  0  0  0  0  0  0  0  0
    4.7453   -5.8006   -0.7154 H   0  0  0  0  0  0  0  0  0  0  0  0
    3.9923   -2.4457    0.9278 H   0  0  0  0  0  0  0  0  0  0  0  0
    5.6296   -2.5955    0.3447 H   0  0  0  0  0  0  0  0  0  0  0  0
    6.0931   -3.0259   -2.0872 H   0  0  0  0  0  0  0  0  0  0  0  0
    2.8965   -3.0593   -4.6724 H   0  0  0  0  0  0  0  0  0  0  0  0
    2.0101   -3.0638   -0.6543 H   0  0  0  0  0  0  0  0  0  0  0  0
    6.3070   -3.9268    2.1930 H   0  0  0  0  0  0  0  0  0  0  0  0
    4.7675   -4.0386    3.0395 H   0  0  0  0  0  0  0  0  0  0  0  0
    6.6733   -6.0531    2.9957 H   0  0  0  0  0  0  0  0  0  0  0  0
    4.1117   -6.1101    3.9853 H   0  0  0  0  0  0  0  0  0  0  0  0
    5.0871   -7.5659    3.8314 H   0  0  0  0  0  0  0  0  0  0  0  0
    0.9662   -9.5375    3.5646 H   0  0  0  0  0  0  0  0  0  0  0  0
   -2.5993   -8.0871    2.1242 H   0  0  0  0  0  0  0  0  0  0  0  0
    3.7650   -4.7566    1.0601 H   0  0  0  0  0  0  0  0  0  0  0  0
  1  2  1  0
  1 25  1  0
  1 26  1  0
  1 27  1  0
  2  3  1  0
  2 20  1  0
  2 28  1  1
  3  4  2  0
  3  5  1  0
  5 19  1  0
  5  6  1  0
  6  7  1  0
  6 29  1  0
  6 30  1  0
  7 18  1  0
  7  8  1  0
  7 31  1  6
  8  9  1  0
  8 32  1  0
  8 33  1  0
  9 10  1  0
  9 17  1  0
  9 46  1  1
 10 11  1  0
 10 34  1  0
 10 35  1  0
 11 16  1  0
 11 12  2  0
 12 13  1  0
 12 36  1  0
 13 14  2  0
 14 15  1  0
 14 37  1  0
 15 16  2  0
 16 38  1  0
 17 18  1  0
 17 39  1  0
 17 40  1  0
 18 19  1  0
 18 41  1  1
 19 42  1  0
 19 43  1  0
 20 24  1  0
 20 21  1  0
 21 22  2  0
 21 44  1  0
 22 23  1  0
 23 24  2  0
 23 45  1  0
M  CHG  1   9   1
M  END
>  <i_m_ct_stereo_status>  (200) 
1

>  <s_m_source_file>  (200) 
/var/tmp/pbs.5076255.sched01/tmp4185l44a/86vs10_z9v.sdf

>  <i_m_source_file_index>  (200) 
1

>  <i_lp_mmshare_version>  (200) 
48012

>  <i_f3d_flags>  (200) 
0

>  <s_epik_input>  (200) 
bjFbY0hdbltjSF1uMVtDQEhdKFtDSDNdKUMoPU8pTihbQ0gyXTIpW0NIMl1bQ0BASF0oW0NAQEhdMjMpW0NIMl1OKFtDSDJdMylbQ0gyXWM0W2NIXW5bY0hdbltjSF00

>  <s_epik_cmdline>  (200) 
J2VwaWtfcHl0aG9uJywgJy1waHQnLCAnMi4wJywgJy1waCcsICc3LjAnLCAnLXRuJywgJzgnLCAnLW1hJywgJzIwMCcsICctaW1hZScsICc8aW5maWxlLm1hZT4nLCAnLW9tYWUnLCAnPG91dGZpbGUubWFlPic=

>  <r_lp_tautomer_probability>  (200) 
1

>  <r_epik_Ionization_Penalty>  (200) 
0.028183

>  <r_epik_Ionization_Penalty_Charging>  (200) 
0.0281688

>  <r_epik_Ionization_Penalty_Neutral>  (200) 
1.41949e-05

>  <r_epik_State_Penalty>  (200) 
0.023099

>  <r_epik_Charging_Adjusted_Penalty>  (200) 
0.0512678

>  <i_epik_Tot_Q>  (200) 
1

>  <i_epik_Tot_abs_Q>  (200) 
1

>  <s_epik_Chemistry_Notes>  (200) 
This compound contains an electron-poor aromatic ring that is susceptible to covalent hydrolysis at low pH, typically resulting in measured values for nitrogen ring protonation that are around two units higher than predicted values.

>  <s_lp_Force_Field>  (200) 
OPLS3e

>  <r_lp_Energy>  (200) 
26.3996

>  <b_lp_Chiralities_Consistent>  (200) 
1

>  <s_lp_Variant>  (200) 
58:0-2

>  <s_i_glide_gridfile>  (200) 
pfpi4k_grid

>  <i_i_glide_lignum>  (200) 
1

>  <i_i_glide_rotatable_bonds>  (200) 
5

>  <r_i_docking_score>  (200) 
-3.35793

>  <r_i_glide_ligand_efficiency>  (200) 
-0.139914

>  <r_i_glide_ligand_efficiency_sa>  (200) 
-0.403582

>  <r_i_glide_ligand_efficiency_ln>  (200) 
-0.803708

>  <r_i_glide_gscore>  (200) 
-3.35793

>  <r_i_glide_lipo>  (200) 
-0.383185

>  <r_i_glide_hbond>  (200) 
-0.16

>  <r_i_glide_metal>  (200) 
-0

>  <r_i_glide_rewards>  (200) 
-1.48624

>  <r_i_glide_evdw>  (200) 
-30.8621

>  <r_i_glide_ecoul>  (200) 
-3.85222

>  <r_i_glide_erotb>  (200) 
0.870767

>  <r_i_glide_esite>  (200) 
-0.0783398

>  <r_i_glide_emodel>  (200) 
-41.8228

>  <r_i_glide_energy>  (200) 
-34.7143

>  <r_i_glide_einternal>  (200) 
2.12798

>  <r_i_glide_intrahb_reward>  (200) 
-0

>  <i_i_glide_confnum>  (200) 
2

>  <i_i_glide_posenum>  (200) 
11

>  <r_i_glide_eff_state_penalty>  (200) 
0

>  <ligand_id>  (200) 
58

>  <original_smiles>  (200) 
CC(C(=O)N1CC2CN(Cc3cncnc3)CC2C1)n1cncn1

>  <smiles>  (200) 
[H]c1nc([H])c(C([H])([H])[N+]2([H])C([H])([H])C3([H])C([H])([H])N(C(=O)C([H])(n4nc([H])nc4[H])C([H])([H])[H])C([H])([H])C3([H])C2([H])[H])c([H])n1

$$$$
58:1:1
     RDKit          3D

 46 49  0  0  1  0  0  0  0  0999 V2000
    1.2183   -4.9847    3.3766 C   0  0  0  0  0  0  0  0  0  0  0  0
    1.5005   -6.4930    3.2805 C   0  0  2  0  0  0  0  0  0  0  0  0
    2.4084   -6.7843    2.0704 C   0  0  0  0  0  0  0  0  0  0  0  0
    1.9878   -6.5403    0.9384 O   0  0  0  0  0  0  0  0  0  0  0  0
    3.6394   -7.2977    2.2779 N   0  0  0  0  0  0  0  0  0  0  0  0
    4.4953   -7.7780    1.1998 C   0  0  0  0  0  0  0  0  0  0  0  0
    5.6171   -6.7380    1.1081 C   0  0  1  0  0  0  0  0  0  0  0  0
    5.3217   -5.5963    0.1158 C   0  0  0  0  0  0  0  0  0  0  0  0
    4.7417   -4.5035    0.9245 N   0  0  2  0  0  0  0  0  0  0  0  0
    4.7636   -3.1471    0.3089 C   0  0  0  0  0  0  0  0  0  0  0  0
    4.2206   -3.1181   -1.1142 C   0  0  0  0  0  0  0  0  0  0  0  0
    5.0703   -3.1098   -2.2423 C   0  0  0  0  0  0  0  0  0  0  0  0
    4.5911   -3.0705   -3.5021 N   0  0  0  0  0  0  0  0  0  0  0  0
    3.2641   -3.0554   -3.6311 C   0  0  0  0  0  0  0  0  0  0  0  0
    2.3659   -3.0521   -2.6513 N   0  0  0  0  0  0  0  0  0  0  0  0
    2.8378   -3.0679   -1.3906 C   0  0  0  0  0  0  0  0  0  0  0  0
    5.4147   -4.5896    2.2396 C   0  0  0  0  0  0  0  0  0  0  0  0
    5.6580   -6.0871    2.4972 C   0  0  1  0  0  0  0  0  0  0  0  0
    4.5449   -6.7856    3.2985 C   0  0  0  0  0  0  0  0  0  0  0  0
    0.2417   -7.2330    3.1913 N   0  0  0  0  0  0  0  0  0  0  0  0
   -0.5672   -7.5156    2.1601 C   0  0  0  0  0  0  0  0  0  0  0  0
   -1.6778   -8.1447    2.5014 N   0  0  0  0  0  0  0  0  0  0  0  0
   -1.4659   -8.2648    3.8444 C   0  0  0  0  0  0  0  0  0  0  0  0
   -0.3595   -7.6876    4.3163 N   0  0  0  0  0  0  0  0  0  0  0  0
    2.1377   -4.4058    3.4758 H   0  0  0  0  0  0  0  0  0  0  0  0
    0.5848   -4.7525    4.2333 H   0  0  0  0  0  0  0  0  0  0  0  0
    0.7043   -4.6354    2.4845 H   0  0  0  0  0  0  0  0  0  0  0  0
    1.9926   -6.8130    4.2008 H   0  0  0  0  0  0  0  0  0  0  0  0
    4.9012   -8.7505    1.4904 H   0  0  0  0  0  0  0  0  0  0  0  0
    3.9859   -7.9289    0.2509 H   0  0  0  0  0  0  0  0  0  0  0  0
    6.5647   -7.2232    0.8787 H   0  0  0  0  0  0  0  0  0  0  0  0
    6.2565   -5.2422   -0.3137 H   0  0  0  0  0  0  0  0  0  0  0  0
    4.6608   -5.8879   -0.7034 H   0  0  0  0  0  0  0  0  0  0  0  0
    4.1683   -2.4713    0.9242 H   0  0  0  0  0  0  0  0  0  0  0  0
    5.7769   -2.7462    0.3034 H   0  0  0  0  0  0  0  0  0  0  0  0
    6.1467   -3.1275   -2.1378 H   0  0  0  0  0  0  0  0  0  0  0  0
    2.8833   -3.0558   -4.6377 H   0  0  0  0  0  0  0  0  0  0  0  0
    2.1018   -3.0567   -0.5988 H   0  0  0  0  0  0  0  0  0  0  0  0
    6.3846   -4.0959    2.1671 H   0  0  0  0  0  0  0  0  0  0  0  0
    4.8506   -4.0968    3.0332 H   0  0  0  0  0  0  0  0  0  0  0  0
    6.6215   -6.2334    2.9881 H   0  0  0  0  0  0  0  0  0  0  0  0
    4.0885   -6.1029    4.0124 H   0  0  0  0  0  0  0  0  0  0  0  0
    4.9491   -7.6313    3.8617 H   0  0  0  0  0  0  0  0  0  0  0  0
   -0.3646   -7.2358    1.1344 H   0  0  0  0  0  0  0  0  0  0  0  0
   -2.1728   -8.7513    4.4959 H   0  0  0  0  0  0  0  0  0  0  0  0
    3.7777   -4.7628    1.0753 H   0  0  0  0  0  0  0  0  0  0  0  0
  1  2  1  0
  1 25  1  0
  1 26  1  0
  1 27  1  0
  2  3  1  0
  2 20  1  0
  2 28  1  1
  3  4  2  0
  3  5  1  0
  5 19  1  0
  5  6  1  0
  6  7  1  0
  6 29  1  0
  6 30  1  0
  7 18  1  0
  7  8  1  0
  7 31  1  6
  8  9  1  0
  8 32  1  0
  8 33  1  0
  9 10  1  0
  9 17  1  0
  9 46  1  1
 10 11  1  0
 10 34  1  0
 10 35  1  0
 11 16  1  0
 11 12  2  0
 12 13  1  0
 12 36  1  0
 13 14  2  0
 14 15  1  0
 14 37  1  0
 15 16  2  0
 16 38  1  0
 17 18  1  0
 17 39  1  0
 17 40  1  0
 18 19  1  0
 18 41  1  1
 19 42  1  0
 19 43  1  0
 20 24  1  0
 20 21  1  0
 21 22  2  0
 21 44  1  0
 22 23  1  0
 23 24  2  0
 23 45  1  0
M  CHG  1   9   1
M  END
>  <i_m_ct_stereo_status>  (201) 
1

>  <s_m_source_file>  (201) 
/var/tmp/pbs.5076255.sched01/tmp4185l44a/86vs10_z9v.sdf

>  <i_m_source_file_index>  (201) 
1

>  <i_lp_mmshare_version>  (201) 
48012

>  <i_f3d_flags>  (201) 
0

>  <s_epik_input>  (201) 
bjFbY0hdbltjSF1uMVtDQEhdKFtDSDNdKUMoPU8pTihbQ0gyXTIpW0NIMl1bQ0BASF0oW0NAQEhdMjMpW0NIMl1OKFtDSDJdMylbQ0gyXWM0W2NIXW5bY0hdbltjSF00

>  <s_epik_cmdline>  (201) 
J2VwaWtfcHl0aG9uJywgJy1waHQnLCAnMi4wJywgJy1waCcsICc3LjAnLCAnLXRuJywgJzgnLCAnLW1hJywgJzIwMCcsICctaW1hZScsICc8aW5maWxlLm1hZT4nLCAnLW9tYWUnLCAnPG91dGZpbGUubWFlPic=

>  <r_lp_tautomer_probability>  (201) 
1

>  <r_epik_Ionization_Penalty>  (201) 
0.028183

>  <r_epik_Ionization_Penalty_Charging>  (201) 
0.0281688

>  <r_epik_Ionization_Penalty_Neutral>  (201) 
1.41949e-05

>  <r_epik_State_Penalty>  (201) 
0.023099

>  <r_epik_Charging_Adjusted_Penalty>  (201) 
0.0512678

>  <i_epik_Tot_Q>  (201) 
1

>  <i_epik_Tot_abs_Q>  (201) 
1

>  <s_epik_Chemistry_Notes>  (201) 
This compound contains an electron-poor aromatic ring that is susceptible to covalent hydrolysis at low pH, typically resulting in measured values for nitrogen ring protonation that are around two units higher than predicted values.

>  <s_lp_Force_Field>  (201) 
OPLS3e

>  <r_lp_Energy>  (201) 
26.3996

>  <b_lp_Chiralities_Consistent>  (201) 
1

>  <s_lp_Variant>  (201) 
58:0-2

>  <s_i_glide_gridfile>  (201) 
pfpi4k_grid

>  <i_i_glide_lignum>  (201) 
1

>  <i_i_glide_rotatable_bonds>  (201) 
5

>  <r_i_docking_score>  (201) 
-3.18247

>  <r_i_glide_ligand_efficiency>  (201) 
-0.132603

>  <r_i_glide_ligand_efficiency_sa>  (201) 
-0.382493

>  <r_i_glide_ligand_efficiency_ln>  (201) 
-0.76171

>  <r_i_glide_gscore>  (201) 
-3.18247

>  <r_i_glide_lipo>  (201) 
-0.397887

>  <r_i_glide_hbond>  (201) 
0

>  <r_i_glide_metal>  (201) 
-0

>  <r_i_glide_rewards>  (201) 
-1.49512

>  <r_i_glide_evdw>  (201) 
-31.0545

>  <r_i_glide_ecoul>  (201) 
-2.58966

>  <r_i_glide_erotb>  (201) 
0.870767

>  <r_i_glide_esite>  (201) 
-0.219053

>  <r_i_glide_emodel>  (201) 
-40.1525

>  <r_i_glide_energy>  (201) 
-33.6441

>  <r_i_glide_einternal>  (201) 
2.65819

>  <r_i_glide_intrahb_reward>  (201) 
-0

>  <i_i_glide_confnum>  (201) 
2

>  <i_i_glide_posenum>  (201) 
33

>  <r_i_glide_eff_state_penalty>  (201) 
0

>  <ligand_id>  (201) 
58

>  <original_smiles>  (201) 
CC(C(=O)N1CC2CN(Cc3cncnc3)CC2C1)n1cncn1

>  <smiles>  (201) 
[H]c1nc([H])c(C([H])([H])[N+]2([H])C([H])([H])C3([H])C([H])([H])N(C(=O)C([H])(n4nc([H])nc4[H])C([H])([H])[H])C([H])([H])C3([H])C2([H])[H])c([H])n1

$$$$
58:1:2
     RDKit          3D

 46 49  0  0  1  0  0  0  0  0999 V2000
    4.4572   -0.4932    2.5208 C   0  0  0  0  0  0  0  0  0  0  0  0
    3.1748   -1.2091    3.0308 C   0  0  2  0  0  0  0  0  0  0  0  0
    2.9494   -2.5575    2.3086 C   0  0  0  0  0  0  0  0  0  0  0  0
    2.2266   -2.5986    1.3174 O   0  0  0  0  0  0  0  0  0  0  0  0
    3.5227   -3.6859    2.7889 N   0  0  0  0  0  0  0  0  0  0  0  0
    3.3323   -4.9990    2.1769 C   0  0  0  0  0  0  0  0  0  0  0  0
    4.7012   -5.3232    1.5621 C   0  0  1  0  0  0  0  0  0  0  0  0
    4.8499   -4.8420    0.1055 C   0  0  0  0  0  0  0  0  0  0  0  0
    5.4876   -3.5165    0.1845 N   0  0  2  0  0  0  0  0  0  0  0  0
    6.1307   -3.0379   -1.0632 C   0  0  0  0  0  0  0  0  0  0  0  0
    5.1200   -2.4929   -2.0657 C   0  0  0  0  0  0  0  0  0  0  0  0
    4.6757   -3.2568   -3.1675 C   0  0  0  0  0  0  0  0  0  0  0  0
    3.8257   -2.7509   -4.0862 N   0  0  0  0  0  0  0  0  0  0  0  0
    3.4138   -1.4996   -3.9027 C   0  0  0  0  0  0  0  0  0  0  0  0
    3.7972   -0.6747   -2.9336 N   0  0  0  0  0  0  0  0  0  0  0  0
    4.6216   -1.1728   -1.9951 C   0  0  0  0  0  0  0  0  0  0  0  0
    6.3869   -3.5801    1.3517 C   0  0  0  0  0  0  0  0  0  0  0  0
    5.6974   -4.4863    2.3915 C   0  0  1  0  0  0  0  0  0  0  0  0
    4.8227   -3.7653    3.4434 C   0  0  0  0  0  0  0  0  0  0  0  0
    2.0086   -0.3405    2.8703 N   0  0  0  0  0  0  0  0  0  0  0  0
    0.8435   -0.2961    3.5493 C   0  0  0  0  0  0  0  0  0  0  0  0
   -0.0066    0.6154    3.1030 N   0  0  0  0  0  0  0  0  0  0  0  0
    0.7167    1.1372    2.0669 C   0  0  0  0  0  0  0  0  0  0  0  0
    1.9351    0.5991    1.8974 N   0  0  0  0  0  0  0  0  0  0  0  0
    5.3854   -1.0353    2.6609 H   0  0  0  0  0  0  0  0  0  0  0  0
    4.5855    0.4457    3.0594 H   0  0  0  0  0  0  0  0  0  0  0  0
    4.3864   -0.2807    1.4526 H   0  0  0  0  0  0  0  0  0  0  0  0
    3.2609   -1.4274    4.0946 H   0  0  0  0  0  0  0  0  0  0  0  0
    3.0904   -5.7137    2.9698 H   0  0  0  0  0  0  0  0  0  0  0  0
    2.5274   -5.0563    1.4427 H   0  0  0  0  0  0  0  0  0  0  0  0
    4.9073   -6.3920    1.6260 H   0  0  0  0  0  0  0  0  0  0  0  0
    5.5212   -5.5297   -0.4059 H   0  0  0  0  0  0  0  0  0  0  0  0
    3.9100   -4.8184   -0.4507 H   0  0  0  0  0  0  0  0  0  0  0  0
    6.8246   -2.2303   -0.8379 H   0  0  0  0  0  0  0  0  0  0  0  0
    6.7303   -3.8182   -1.5264 H   0  0  0  0  0  0  0  0  0  0  0  0
    5.0339   -4.2606   -3.3489 H   0  0  0  0  0  0  0  0  0  0  0  0
    2.7183   -1.1060   -4.6254 H   0  0  0  0  0  0  0  0  0  0  0  0
    4.9251   -0.4864   -1.2184 H   0  0  0  0  0  0  0  0  0  0  0  0
    7.3166   -4.0602    1.0471 H   0  0  0  0  0  0  0  0  0  0  0  0
    6.6477   -2.5927    1.7261 H   0  0  0  0  0  0  0  0  0  0  0  0
    6.4432   -5.0954    2.8991 H   0  0  0  0  0  0  0  0  0  0  0  0
    5.2581   -2.8275    3.7763 H   0  0  0  0  0  0  0  0  0  0  0  0
    4.7168   -4.3703    4.3520 H   0  0  0  0  0  0  0  0  0  0  0  0
    0.6315   -0.9377    4.3839 H   0  0  0  0  0  0  0  0  0  0  0  0
    0.3617    1.9231    1.4217 H   0  0  0  0  0  0  0  0  0  0  0  0
    4.7531   -2.8637    0.4303 H   0  0  0  0  0  0  0  0  0  0  0  0
  1  2  1  0
  1 25  1  0
  1 26  1  0
  1 27  1  0
  2  3  1  0
  2 20  1  0
  2 28  1  1
  3  4  2  0
  3  5  1  0
  5 19  1  0
  5  6  1  0
  6  7  1  0
  6 29  1  0
  6 30  1  0
  7 18  1  0
  7  8  1  0
  7 31  1  6
  8  9  1  0
  8 32  1  0
  8 33  1  0
  9 10  1  0
  9 17  1  0
  9 46  1  1
 10 11  1  0
 10 34  1  0
 10 35  1  0
 11 16  1  0
 11 12  2  0
 12 13  1  0
 12 36  1  0
 13 14  2  0
 14 15  1  0
 14 37  1  0
 15 16  2  0
 16 38  1  0
 17 18  1  0
 17 39  1  0
 17 40  1  0
 18 19  1  0
 18 41  1  1
 19 42  1  0
 19 43  1  0
 20 24  1  0
 20 21  1  0
 21 22  2  0
 21 44  1  0
 22 23  1  0
 23 24  2  0
 23 45  1  0
M  CHG  1   9   1
M  END
>  <i_m_ct_stereo_status>  (202) 
1

>  <s_m_source_file>  (202) 
/var/tmp/pbs.5076255.sched01/tmp4185l44a/86vs10_z9v.sdf

>  <i_m_source_file_index>  (202) 
1

>  <i_lp_mmshare_version>  (202) 
48012

>  <i_f3d_flags>  (202) 
0

>  <s_epik_input>  (202) 
bjFbY0hdbltjSF1uMVtDQEhdKFtDSDNdKUMoPU8pTihbQ0gyXTIpW0NIMl1bQ0BASF0oW0NAQEhdMjMpW0NIMl1OKFtDSDJdMylbQ0gyXWM0W2NIXW5bY0hdbltjSF00

>  <s_epik_cmdline>  (202) 
J2VwaWtfcHl0aG9uJywgJy1waHQnLCAnMi4wJywgJy1waCcsICc3LjAnLCAnLXRuJywgJzgnLCAnLW1hJywgJzIwMCcsICctaW1hZScsICc8aW5maWxlLm1hZT4nLCAnLW9tYWUnLCAnPG91dGZpbGUubWFlPic=

>  <r_lp_tautomer_probability>  (202) 
1

>  <r_epik_Ionization_Penalty>  (202) 
0.028183

>  <r_epik_Ionization_Penalty_Charging>  (202) 
0.0281688

>  <r_epik_Ionization_Penalty_Neutral>  (202) 
1.41949e-05

>  <r_epik_State_Penalty>  (202) 
0.023099

>  <r_epik_Charging_Adjusted_Penalty>  (202) 
0.0512678

>  <i_epik_Tot_Q>  (202) 
1

>  <i_epik_Tot_abs_Q>  (202) 
1

>  <s_epik_Chemistry_Notes>  (202) 
This compound contains an electron-poor aromatic ring that is susceptible to covalent hydrolysis at low pH, typically resulting in measured values for nitrogen ring protonation that are around two units higher than predicted values.

>  <s_lp_Force_Field>  (202) 
OPLS3e

>  <r_lp_Energy>  (202) 
26.3996

>  <b_lp_Chiralities_Consistent>  (202) 
1

>  <s_lp_Variant>  (202) 
58:0-2

>  <s_i_glide_gridfile>  (202) 
pfpi4k_grid

>  <i_i_glide_lignum>  (202) 
1

>  <i_i_glide_rotatable_bonds>  (202) 
5

>  <r_i_docking_score>  (202) 
-3.02943

>  <r_i_glide_ligand_efficiency>  (202) 
-0.126226

>  <r_i_glide_ligand_efficiency_sa>  (202) 
-0.364099

>  <r_i_glide_ligand_efficiency_ln>  (202) 
-0.725082

>  <r_i_glide_gscore>  (202) 
-3.02943

>  <r_i_glide_lipo>  (202) 
-0.543359

>  <r_i_glide_hbond>  (202) 
-0.246137

>  <r_i_glide_metal>  (202) 
-0

>  <r_i_glide_rewards>  (202) 
-1.31773

>  <r_i_glide_evdw>  (202) 
-29.6885

>  <r_i_glide_ecoul>  (202) 
-1.44423

>  <r_i_glide_erotb>  (202) 
0.870767

>  <r_i_glide_esite>  (202) 
-0.0919071

>  <r_i_glide_emodel>  (202) 
-37.5485

>  <r_i_glide_energy>  (202) 
-31.1327

>  <r_i_glide_einternal>  (202) 
1.87371

>  <r_i_glide_intrahb_reward>  (202) 
-0

>  <i_i_glide_confnum>  (202) 
1

>  <i_i_glide_posenum>  (202) 
6

>  <r_i_glide_eff_state_penalty>  (202) 
0

>  <ligand_id>  (202) 
58

>  <original_smiles>  (202) 
CC(C(=O)N1CC2CN(Cc3cncnc3)CC2C1)n1cncn1

>  <smiles>  (202) 
[H]c1nc([H])c(C([H])([H])[N+]2([H])C([H])([H])C3([H])C([H])([H])N(C(=O)C([H])(n4nc([H])nc4[H])C([H])([H])[H])C([H])([H])C3([H])C2([H])[H])c([H])n1

$$$$
58:2:0
     RDKit          3D

 45 48  0  0  1  0  0  0  0  0999 V2000
    9.2117   -3.1102    0.6971 C   0  0  0  0  0  0  0  0  0  0  0  0
    7.8141   -3.7291    0.8596 C   0  0  2  0  0  0  0  0  0  0  0  0
    7.8682   -5.2634    0.8481 C   0  0  0  0  0  0  0  0  0  0  0  0
    8.7075   -5.8051    0.1281 O   0  0  0  0  0  0  0  0  0  0  0  0
    7.0244   -5.9664    1.6399 N   0  0  0  0  0  0  0  0  0  0  0  0
    6.8673   -7.4221    1.6159 C   0  0  0  0  0  0  0  0  0  0  0  0
    5.3893   -7.5796    1.2251 C   0  0  1  0  0  0  0  0  0  0  0  0
    4.6026   -8.7059    1.8860 C   0  0  0  0  0  0  0  0  0  0  0  0
    3.3020   -8.0833    2.1188 N   0  0  0  0  0  0  0  0  0  0  0  0
    2.5190   -8.8504    3.0750 C   0  0  0  0  0  0  0  0  0  0  0  0
    1.1451   -8.2538    3.3398 C   0  0  0  0  0  0  0  0  0  0  0  0
    0.5577   -8.3161    4.6177 C   0  0  0  0  0  0  0  0  0  0  0  0
   -0.6445   -7.7608    4.8584 N   0  0  0  0  0  0  0  0  0  0  0  0
   -1.2677   -7.1975    3.8298 C   0  0  0  0  0  0  0  0  0  0  0  0
   -0.8087   -7.0579    2.5862 N   0  0  0  0  0  0  0  0  0  0  0  0
    0.3864   -7.6307    2.3275 C   0  0  0  0  0  0  0  0  0  0  0  0
    3.5959   -6.7346    2.5989 C   0  0  0  0  0  0  0  0  0  0  0  0
    4.7291   -6.2962    1.6919 C   0  0  1  0  0  0  0  0  0  0  0  0
    5.8415   -5.4819    2.3447 C   0  0  0  0  0  0  0  0  0  0  0  0
    6.9159   -3.2100   -0.1590 N   0  0  0  0  0  0  0  0  0  0  0  0
    7.0620   -3.0628   -1.4680 C   0  0  0  0  0  0  0  0  0  0  0  0
    6.0241   -2.5028   -2.0725 N   0  0  0  0  0  0  0  0  0  0  0  0
    5.1735   -2.3862   -1.0053 C   0  0  0  0  0  0  0  0  0  0  0  0
    5.6620   -2.7942    0.1662 N   0  0  0  0  0  0  0  0  0  0  0  0
    9.8884   -3.4571    1.4780 H   0  0  0  0  0  0  0  0  0  0  0  0
    9.1665   -2.0217    0.7573 H   0  0  0  0  0  0  0  0  0  0  0  0
    9.6523   -3.3571   -0.2695 H   0  0  0  0  0  0  0  0  0  0  0  0
    7.4274   -3.4036    1.8124 H   0  0  0  0  0  0  0  0  0  0  0  0
    7.5358   -7.9346    0.9281 H   0  0  0  0  0  0  0  0  0  0  0  0
    7.0612   -7.8220    2.6172 H   0  0  0  0  0  0  0  0  0  0  0  0
    5.2685   -7.6281    0.1441 H   0  0  0  0  0  0  0  0  0  0  0  0
    4.5330   -9.5877    1.2465 H   0  0  0  0  0  0  0  0  0  0  0  0
    5.0779   -8.9827    2.8264 H   0  0  0  0  0  0  0  0  0  0  0  0
    2.3802   -9.8572    2.6799 H   0  0  0  0  0  0  0  0  0  0  0  0
    3.0607   -8.9402    4.0187 H   0  0  0  0  0  0  0  0  0  0  0  0
    1.0532   -8.7717    5.4674 H   0  0  0  0  0  0  0  0  0  0  0  0
   -2.2192   -6.7495    4.0313 H   0  0  0  0  0  0  0  0  0  0  0  0
    0.7612   -7.5318    1.3146 H   0  0  0  0  0  0  0  0  0  0  0  0
    2.7423   -6.0622    2.5121 H   0  0  0  0  0  0  0  0  0  0  0  0
    3.9356   -6.7548    3.6338 H   0  0  0  0  0  0  0  0  0  0  0  0
    4.3477   -5.7630    0.8184 H   0  0  0  0  0  0  0  0  0  0  0  0
    5.9318   -5.7013    3.4133 H   0  0  0  0  0  0  0  0  0  0  0  0
    5.6018   -4.4262    2.2601 H   0  0  0  0  0  0  0  0  0  0  0  0
    7.9805   -3.3021   -1.9924 H   0  0  0  0  0  0  0  0  0  0  0  0
    4.1742   -1.9647   -1.0890 H   0  0  0  0  0  0  0  0  0  0  0  0
  1  2  1  0
  1 25  1  0
  1 26  1  0
  1 27  1  0
  2  3  1  0
  2 20  1  0
  2 28  1  1
  3  4  2  0
  3  5  1  0
  5 19  1  0
  5  6  1  0
  6  7  1  0
  6 29  1  0
  6 30  1  0
  7 18  1  0
  7  8  1  0
  7 31  1  6
  8  9  1  0
  8 32  1  0
  8 33  1  0
  9 10  1  0
  9 17  1  0
 10 11  1  0
 10 34  1  0
 10 35  1  0
 11 16  1  0
 11 12  2  0
 12 13  1  0
 12 36  1  0
 13 14  2  0
 14 15  1  0
 14 37  1  0
 15 16  2  0
 16 38  1  0
 17 18  1  0
 17 39  1  0
 17 40  1  0
 18 19  1  0
 18 41  1  6
 19 42  1  0
 19 43  1  0
 20 24  1  0
 20 21  1  0
 21 22  2  0
 21 44  1  0
 22 23  1  0
 23 24  2  0
 23 45  1  0
M  END
>  <i_m_ct_stereo_status>  (203) 
1

>  <s_m_source_file>  (203) 
/var/tmp/pbs.5076255.sched01/tmp4185l44a/86vs10_z9v.sdf

>  <i_m_source_file_index>  (203) 
2

>  <i_lp_mmshare_version>  (203) 
48012

>  <i_f3d_flags>  (203) 
0

>  <s_epik_input>  (203) 
bjFbY0hdbltjSF1uMVtDQEhdKFtDSDNdKUMoPU8pTihbQ0gyXTIpW0NIMl1bQ0BASF0oW0NAQEhdMjMpW0NIMl1OKFtDSDJdMylbQ0gyXWM0W2NIXW5bY0hdbltjSF00

>  <s_epik_cmdline>  (203) 
J2VwaWtfcHl0aG9uJywgJy1waHQnLCAnMi4wJywgJy1waCcsICc3LjAnLCAnLXRuJywgJzgnLCAnLW1hJywgJzIwMCcsICctaW1hZScsICc8aW5maWxlLm1hZT4nLCAnLW9tYWUnLCAnPG91dGZpbGUubWFlPic=

>  <r_lp_tautomer_probability>  (203) 
1

>  <r_epik_Ionization_Penalty>  (203) 
1.81882

>  <r_epik_Ionization_Penalty_Charging>  (203) 
0

>  <r_epik_Ionization_Penalty_Neutral>  (203) 
1.81882

>  <r_epik_State_Penalty>  (203) 
1.93385

>  <r_epik_Charging_Adjusted_Penalty>  (203) 
1.93385

>  <i_epik_Tot_Q>  (203) 
0

>  <i_epik_Tot_abs_Q>  (203) 
0

>  <s_epik_Chemistry_Notes>  (203) 
This compound contains an electron-poor aromatic ring that is susceptible to covalent hydrolysis at low pH, typically resulting in measured values for nitrogen ring protonation that are around two units higher than predicted values.

>  <s_lp_Force_Field>  (203) 
OPLS3e

>  <r_lp_Energy>  (203) 
24.2592

>  <b_lp_Chiralities_Consistent>  (203) 
1

>  <s_lp_Variant>  (203) 
58:0-3

>  <s_i_glide_gridfile>  (203) 
pfpi4k_grid

>  <i_i_glide_lignum>  (203) 
2

>  <i_i_glide_rotatable_bonds>  (203) 
5

>  <r_i_docking_score>  (203) 
-3.40226

>  <r_i_glide_ligand_efficiency>  (203) 
-0.141761

>  <r_i_glide_ligand_efficiency_sa>  (203) 
-0.408909

>  <r_i_glide_ligand_efficiency_ln>  (203) 
-0.814317

>  <r_i_glide_gscore>  (203) 
-3.40226

>  <r_i_glide_lipo>  (203) 
-0.384062

>  <r_i_glide_hbond>  (203) 
-0.16

>  <r_i_glide_metal>  (203) 
-0

>  <r_i_glide_rewards>  (203) 
-1.64907

>  <r_i_glide_evdw>  (203) 
-27.1751

>  <r_i_glide_ecoul>  (203) 
-4.29105

>  <r_i_glide_erotb>  (203) 
0.875507

>  <r_i_glide_esite>  (203) 
-0.082225

>  <r_i_glide_emodel>  (203) 
-37.0043

>  <r_i_glide_energy>  (203) 
-31.4661

>  <r_i_glide_einternal>  (203) 
2.27853

>  <r_i_glide_intrahb_reward>  (203) 
-0

>  <i_i_glide_confnum>  (203) 
6

>  <i_i_glide_posenum>  (203) 
1

>  <r_i_glide_eff_state_penalty>  (203) 
0

>  <ligand_id>  (203) 
58

>  <original_smiles>  (203) 
CC(C(=O)N1CC2CN(Cc3cncnc3)CC2C1)n1cncn1

>  <smiles>  (203) 
[H]c1nc([H])c(C([H])([H])N2C([H])([H])C3([H])C([H])([H])N(C(=O)C([H])(n4nc([H])nc4[H])C([H])([H])[H])C([H])([H])C3([H])C2([H])[H])c([H])n1

$$$$
58:2:1
     RDKit          3D

 45 48  0  0  1  0  0  0  0  0999 V2000
    7.1717   -2.6765   -1.2208 C   0  0  0  0  0  0  0  0  0  0  0  0
    5.8902   -1.8857   -0.8997 C   0  0  2  0  0  0  0  0  0  0  0  0
    5.1780   -2.4522    0.3381 C   0  0  0  0  0  0  0  0  0  0  0  0
    5.0767   -3.6731    0.4430 O   0  0  0  0  0  0  0  0  0  0  0  0
    4.7519   -1.6058    1.3051 N   0  0  0  0  0  0  0  0  0  0  0  0
    4.1502   -2.0261    2.5679 C   0  0  0  0  0  0  0  0  0  0  0  0
    2.7271   -1.4756    2.4647 C   0  0  1  0  0  0  0  0  0  0  0  0
    2.1295   -0.9005    3.7447 C   0  0  0  0  0  0  0  0  0  0  0  0
    1.3859    0.2581    3.2665 N   0  0  0  0  0  0  0  0  0  0  0  0
    1.0364    1.1694    4.3446 C   0  0  0  0  0  0  0  0  0  0  0  0
   -0.0511    2.1516    3.9507 C   0  0  0  0  0  0  0  0  0  0  0  0
   -1.1724    1.7451    3.2000 C   0  0  0  0  0  0  0  0  0  0  0  0
   -2.1620    2.6028    2.8841 N   0  0  0  0  0  0  0  0  0  0  0  0
   -2.0202    3.8569    3.3005 C   0  0  0  0  0  0  0  0  0  0  0  0
   -1.0287    4.3560    4.0448 N   0  0  0  0  0  0  0  0  0  0  0  0
   -0.0241    3.5029    4.3465 C   0  0  0  0  0  0  0  0  0  0  0  0
    2.2528    0.8909    2.2723 C   0  0  0  0  0  0  0  0  0  0  0  0
    2.8281   -0.2985    1.5083 C   0  0  1  0  0  0  0  0  0  0  0  0
    4.3057   -0.2296    1.1062 C   0  0  0  0  0  0  0  0  0  0  0  0
    5.0062   -1.8797   -2.0597 N   0  0  0  0  0  0  0  0  0  0  0  0
    4.5615   -2.8723   -2.8375 C   0  0  0  0  0  0  0  0  0  0  0  0
    3.8099   -2.4665   -3.8496 N   0  0  0  0  0  0  0  0  0  0  0  0
    3.7846   -1.1251   -3.5937 C   0  0  0  0  0  0  0  0  0  0  0  0
    4.5037   -0.7179   -2.5458 N   0  0  0  0  0  0  0  0  0  0  0  0
    7.8675   -2.6779   -0.3827 H   0  0  0  0  0  0  0  0  0  0  0  0
    7.6916   -2.2642   -2.0866 H   0  0  0  0  0  0  0  0  0  0  0  0
    6.9428   -3.7166   -1.4535 H   0  0  0  0  0  0  0  0  0  0  0  0
    6.2075   -0.8668   -0.6894 H   0  0  0  0  0  0  0  0  0  0  0  0
    4.1703   -3.1018    2.7400 H   0  0  0  0  0  0  0  0  0  0  0  0
    4.7006   -1.5509    3.3866 H   0  0  0  0  0  0  0  0  0  0  0  0
    2.0717   -2.2307    2.0300 H   0  0  0  0  0  0  0  0  0  0  0  0
    1.4758   -1.6155    4.2430 H   0  0  0  0  0  0  0  0  0  0  0  0
    2.9158   -0.5998    4.4358 H   0  0  0  0  0  0  0  0  0  0  0  0
    0.6576    0.5922    5.1858 H   0  0  0  0  0  0  0  0  0  0  0  0
    1.9209    1.7021    4.6969 H   0  0  0  0  0  0  0  0  0  0  0  0
   -1.3063    0.7199    2.8825 H   0  0  0  0  0  0  0  0  0  0  0  0
   -2.8078    4.5427    3.0308 H   0  0  0  0  0  0  0  0  0  0  0  0
    0.7859    3.9107    4.9414 H   0  0  0  0  0  0  0  0  0  0  0  0
    1.7059    1.5746    1.6220 H   0  0  0  0  0  0  0  0  0  0  0  0
    3.0589    1.4423    2.7543 H   0  0  0  0  0  0  0  0  0  0  0  0
    2.2220   -0.5027    0.6280 H   0  0  0  0  0  0  0  0  0  0  0  0
    4.8651    0.4277    1.7765 H   0  0  0  0  0  0  0  0  0  0  0  0
    4.4070    0.1488    0.0907 H   0  0  0  0  0  0  0  0  0  0  0  0
    4.8048   -3.9129   -2.6630 H   0  0  0  0  0  0  0  0  0  0  0  0
    3.2501   -0.4244   -4.2160 H   0  0  0  0  0  0  0  0  0  0  0  0
  1  2  1  0
  1 25  1  0
  1 26  1  0
  1 27  1  0
  2  3  1  0
  2 20  1  0
  2 28  1  1
  3  4  2  0
  3  5  1  0
  5 19  1  0
  5  6  1  0
  6  7  1  0
  6 29  1  0
  6 30  1  0
  7 18  1  0
  7  8  1  0
  7 31  1  6
  8  9  1  0
  8 32  1  0
  8 33  1  0
  9 10  1  0
  9 17  1  0
 10 11  1  0
 10 34  1  0
 10 35  1  0
 11 16  1  0
 11 12  2  0
 12 13  1  0
 12 36  1  0
 13 14  2  0
 14 15  1  0
 14 37  1  0
 15 16  2  0
 16 38  1  0
 17 18  1  0
 17 39  1  0
 17 40  1  0
 18 19  1  0
 18 41  1  6
 19 42  1  0
 19 43  1  0
 20 24  1  0
 20 21  1  0
 21 22  2  0
 21 44  1  0
 22 23  1  0
 23 24  2  0
 23 45  1  0
M  END
>  <i_m_ct_stereo_status>  (204) 
1

>  <s_m_source_file>  (204) 
/var/tmp/pbs.5076255.sched01/tmp4185l44a/86vs10_z9v.sdf

>  <i_m_source_file_index>  (204) 
2

>  <i_lp_mmshare_version>  (204) 
48012

>  <i_f3d_flags>  (204) 
0

>  <s_epik_input>  (204) 
bjFbY0hdbltjSF1uMVtDQEhdKFtDSDNdKUMoPU8pTihbQ0gyXTIpW0NIMl1bQ0BASF0oW0NAQEhdMjMpW0NIMl1OKFtDSDJdMylbQ0gyXWM0W2NIXW5bY0hdbltjSF00

>  <s_epik_cmdline>  (204) 
J2VwaWtfcHl0aG9uJywgJy1waHQnLCAnMi4wJywgJy1waCcsICc3LjAnLCAnLXRuJywgJzgnLCAnLW1hJywgJzIwMCcsICctaW1hZScsICc8aW5maWxlLm1hZT4nLCAnLW9tYWUnLCAnPG91dGZpbGUubWFlPic=

>  <r_lp_tautomer_probability>  (204) 
1

>  <r_epik_Ionization_Penalty>  (204) 
1.81882

>  <r_epik_Ionization_Penalty_Charging>  (204) 
0

>  <r_epik_Ionization_Penalty_Neutral>  (204) 
1.81882

>  <r_epik_State_Penalty>  (204) 
1.93385

>  <r_epik_Charging_Adjusted_Penalty>  (204) 
1.93385

>  <i_epik_Tot_Q>  (204) 
0

>  <i_epik_Tot_abs_Q>  (204) 
0

>  <s_epik_Chemistry_Notes>  (204) 
This compound contains an electron-poor aromatic ring that is susceptible to covalent hydrolysis at low pH, typically resulting in measured values for nitrogen ring protonation that are around two units higher than predicted values.

>  <s_lp_Force_Field>  (204) 
OPLS3e

>  <r_lp_Energy>  (204) 
24.2592

>  <b_lp_Chiralities_Consistent>  (204) 
1

>  <s_lp_Variant>  (204) 
58:0-3

>  <s_i_glide_gridfile>  (204) 
pfpi4k_grid

>  <i_i_glide_lignum>  (204) 
2

>  <i_i_glide_rotatable_bonds>  (204) 
5

>  <r_i_docking_score>  (204) 
-2.92958

>  <r_i_glide_ligand_efficiency>  (204) 
-0.122066

>  <r_i_glide_ligand_efficiency_sa>  (204) 
-0.352098

>  <r_i_glide_ligand_efficiency_ln>  (204) 
-0.701182

>  <r_i_glide_gscore>  (204) 
-2.92958

>  <r_i_glide_lipo>  (204) 
-0.114497

>  <r_i_glide_hbond>  (204) 
-0.0901291

>  <r_i_glide_metal>  (204) 
-0

>  <r_i_glide_rewards>  (204) 
-1.71808

>  <r_i_glide_evdw>  (204) 
-32.5105

>  <r_i_glide_ecoul>  (204) 
-1.01569

>  <r_i_glide_erotb>  (204) 
0.875507

>  <r_i_glide_esite>  (204) 
-0.104496

>  <r_i_glide_emodel>  (204) 
-38.2332

>  <r_i_glide_energy>  (204) 
-33.5262

>  <r_i_glide_einternal>  (204) 
1.80312

>  <r_i_glide_intrahb_reward>  (204) 
-0

>  <i_i_glide_confnum>  (204) 
4

>  <i_i_glide_posenum>  (204) 
17

>  <r_i_glide_eff_state_penalty>  (204) 
0

>  <ligand_id>  (204) 
58

>  <original_smiles>  (204) 
CC(C(=O)N1CC2CN(Cc3cncnc3)CC2C1)n1cncn1

>  <smiles>  (204) 
[H]c1nc([H])c(C([H])([H])N2C([H])([H])C3([H])C([H])([H])N(C(=O)C([H])(n4nc([H])nc4[H])C([H])([H])[H])C([H])([H])C3([H])C2([H])[H])c([H])n1

$$$$
58:2:2
     RDKit          3D

 45 48  0  0  1  0  0  0  0  0999 V2000
    6.6598   -3.1477   -1.4108 C   0  0  0  0  0  0  0  0  0  0  0  0
    5.6450   -2.0836   -0.9513 C   0  0  2  0  0  0  0  0  0  0  0  0
    5.2304   -2.2957    0.5186 C   0  0  0  0  0  0  0  0  0  0  0  0
    5.3129   -3.4276    0.9957 O   0  0  0  0  0  0  0  0  0  0  0  0
    4.8775   -1.2281    1.2720 N   0  0  0  0  0  0  0  0  0  0  0  0
    4.6224   -1.2846    2.7091 C   0  0  0  0  0  0  0  0  0  0  0  0
    3.1240   -0.9918    2.8090 C   0  0  1  0  0  0  0  0  0  0  0  0
    2.6904   -0.1014    3.9703 C   0  0  0  0  0  0  0  0  0  0  0  0
    1.6519    0.7290    3.3760 N   0  0  0  0  0  0  0  0  0  0  0  0
    1.3417    1.8956    4.1897 C   0  0  0  0  0  0  0  0  0  0  0  0
    0.0433    2.5786    3.7848 C   0  0  0  0  0  0  0  0  0  0  0  0
   -1.0247    1.8655    3.2041 C   0  0  0  0  0  0  0  0  0  0  0  0
   -2.1851    2.4679    2.8830 N   0  0  0  0  0  0  0  0  0  0  0  0
   -2.2796    3.7679    3.1314 C   0  0  0  0  0  0  0  0  0  0  0  0
   -1.3596    4.5480    3.7020 N   0  0  0  0  0  0  0  0  0  0  0  0
   -0.1814    3.9542    4.0039 C   0  0  0  0  0  0  0  0  0  0  0  0
    2.1548    1.0933    2.0519 C   0  0  0  0  0  0  0  0  0  0  0  0
    2.7949   -0.2014    1.5522 C   0  0  1  0  0  0  0  0  0  0  0  0
    4.1241   -0.0726    0.7969 C   0  0  0  0  0  0  0  0  0  0  0  0
    4.5022   -2.0901   -1.8545 N   0  0  0  0  0  0  0  0  0  0  0  0
    3.6051   -3.0395   -2.1308 C   0  0  0  0  0  0  0  0  0  0  0  0
    2.7035   -2.6791   -3.0306 N   0  0  0  0  0  0  0  0  0  0  0  0
    3.1260   -1.4077   -3.2862 C   0  0  0  0  0  0  0  0  0  0  0  0
    4.2329   -1.0225   -2.6490 N   0  0  0  0  0  0  0  0  0  0  0  0
    7.5473   -3.1662   -0.7778 H   0  0  0  0  0  0  0  0  0  0  0  0
    6.9835   -2.9860   -2.4405 H   0  0  0  0  0  0  0  0  0  0  0  0
    6.2104   -4.1420   -1.3692 H   0  0  0  0  0  0  0  0  0  0  0  0
    6.1314   -1.1110   -1.0107 H   0  0  0  0  0  0  0  0  0  0  0  0
    4.8946   -2.2313    3.1758 H   0  0  0  0  0  0  0  0  0  0  0  0
    5.2116   -0.4981    3.1893 H   0  0  0  0  0  0  0  0  0  0  0  0
    2.5609   -1.9267    2.7985 H   0  0  0  0  0  0  0  0  0  0  0  0
    2.3047   -0.6849    4.8054 H   0  0  0  0  0  0  0  0  0  0  0  0
    3.5229    0.5084    4.3188 H   0  0  0  0  0  0  0  0  0  0  0  0
    1.2350    1.5821    5.2269 H   0  0  0  0  0  0  0  0  0  0  0  0
    2.1653    2.6110    4.1583 H   0  0  0  0  0  0  0  0  0  0  0  0
   -0.9743    0.8007    3.0250 H   0  0  0  0  0  0  0  0  0  0  0  0
   -3.2123    4.2334    2.8596 H   0  0  0  0  0  0  0  0  0  0  0  0
    0.5709    4.5876    4.4612 H   0  0  0  0  0  0  0  0  0  0  0  0
    1.3630    1.4458    1.3904 H   0  0  0  0  0  0  0  0  0  0  0  0
    2.9118    1.8727    2.1299 H   0  0  0  0  0  0  0  0  0  0  0  0
    2.0896   -0.7764    0.9538 H   0  0  0  0  0  0  0  0  0  0  0  0
    4.6313    0.8541    1.0612 H   0  0  0  0  0  0  0  0  0  0  0  0
    3.9717   -0.0545   -0.2754 H   0  0  0  0  0  0  0  0  0  0  0  0
    3.6185   -4.0131   -1.6578 H   0  0  0  0  0  0  0  0  0  0  0  0
    2.6144   -0.7529   -3.9762 H   0  0  0  0  0  0  0  0  0  0  0  0
  1  2  1  0
  1 25  1  0
  1 26  1  0
  1 27  1  0
  2  3  1  0
  2 20  1  0
  2 28  1  1
  3  4  2  0
  3  5  1  0
  5 19  1  0
  5  6  1  0
  6  7  1  0
  6 29  1  0
  6 30  1  0
  7 18  1  0
  7  8  1  0
  7 31  1  6
  8  9  1  0
  8 32  1  0
  8 33  1  0
  9 10  1  0
  9 17  1  0
 10 11  1  0
 10 34  1  0
 10 35  1  0
 11 16  1  0
 11 12  2  0
 12 13  1  0
 12 36  1  0
 13 14  2  0
 14 15  1  0
 14 37  1  0
 15 16  2  0
 16 38  1  0
 17 18  1  0
 17 39  1  0
 17 40  1  0
 18 19  1  0
 18 41  1  6
 19 42  1  0
 19 43  1  0
 20 24  1  0
 20 21  1  0
 21 22  2  0
 21 44  1  0
 22 23  1  0
 23 24  2  0
 23 45  1  0
M  END
>  <i_m_ct_stereo_status>  (205) 
1

>  <s_m_source_file>  (205) 
/var/tmp/pbs.5076255.sched01/tmp4185l44a/86vs10_z9v.sdf

>  <i_m_source_file_index>  (205) 
2

>  <i_lp_mmshare_version>  (205) 
48012

>  <i_f3d_flags>  (205) 
0

>  <s_epik_input>  (205) 
bjFbY0hdbltjSF1uMVtDQEhdKFtDSDNdKUMoPU8pTihbQ0gyXTIpW0NIMl1bQ0BASF0oW0NAQEhdMjMpW0NIMl1OKFtDSDJdMylbQ0gyXWM0W2NIXW5bY0hdbltjSF00

>  <s_epik_cmdline>  (205) 
J2VwaWtfcHl0aG9uJywgJy1waHQnLCAnMi4wJywgJy1waCcsICc3LjAnLCAnLXRuJywgJzgnLCAnLW1hJywgJzIwMCcsICctaW1hZScsICc8aW5maWxlLm1hZT4nLCAnLW9tYWUnLCAnPG91dGZpbGUubWFlPic=

>  <r_lp_tautomer_probability>  (205) 
1

>  <r_epik_Ionization_Penalty>  (205) 
1.81882

>  <r_epik_Ionization_Penalty_Charging>  (205) 
0

>  <r_epik_Ionization_Penalty_Neutral>  (205) 
1.81882

>  <r_epik_State_Penalty>  (205) 
1.93385

>  <r_epik_Charging_Adjusted_Penalty>  (205) 
1.93385

>  <i_epik_Tot_Q>  (205) 
0

>  <i_epik_Tot_abs_Q>  (205) 
0

>  <s_epik_Chemistry_Notes>  (205) 
This compound contains an electron-poor aromatic ring that is susceptible to covalent hydrolysis at low pH, typically resulting in measured values for nitrogen ring protonation that are around two units higher than predicted values.

>  <s_lp_Force_Field>  (205) 
OPLS3e

>  <r_lp_Energy>  (205) 
24.2592

>  <b_lp_Chiralities_Consistent>  (205) 
1

>  <s_lp_Variant>  (205) 
58:0-3

>  <s_i_glide_gridfile>  (205) 
pfpi4k_grid

>  <i_i_glide_lignum>  (205) 
2

>  <i_i_glide_rotatable_bonds>  (205) 
5

>  <r_i_docking_score>  (205) 
-2.75221

>  <r_i_glide_ligand_efficiency>  (205) 
-0.114676

>  <r_i_glide_ligand_efficiency_sa>  (205) 
-0.330782

>  <r_i_glide_ligand_efficiency_ln>  (205) 
-0.658731

>  <r_i_glide_gscore>  (205) 
-2.75221

>  <r_i_glide_lipo>  (205) 
-0.220355

>  <r_i_glide_hbond>  (205) 
-0.135525

>  <r_i_glide_metal>  (205) 
-0

>  <r_i_glide_rewards>  (205) 
-1.43486

>  <r_i_glide_evdw>  (205) 
-30.6929

>  <r_i_glide_ecoul>  (205) 
-1.2353

>  <r_i_glide_erotb>  (205) 
0.875507

>  <r_i_glide_esite>  (205) 
-0.117042

>  <r_i_glide_emodel>  (205) 
-36.1491

>  <r_i_glide_energy>  (205) 
-31.9282

>  <r_i_glide_einternal>  (205) 
2.07631

>  <r_i_glide_intrahb_reward>  (205) 
-0

>  <i_i_glide_confnum>  (205) 
4

>  <i_i_glide_posenum>  (205) 
30

>  <r_i_glide_eff_state_penalty>  (205) 
0

>  <ligand_id>  (205) 
58

>  <original_smiles>  (205) 
CC(C(=O)N1CC2CN(Cc3cncnc3)CC2C1)n1cncn1

>  <smiles>  (205) 
[H]c1nc([H])c(C([H])([H])N2C([H])([H])C3([H])C([H])([H])N(C(=O)C([H])(n4nc([H])nc4[H])C([H])([H])[H])C([H])([H])C3([H])C2([H])[H])c([H])n1

$$$$
59:0:0
     RDKit          3D

 48 52  0  0  1  0  0  0  0  0999 V2000
    3.4191    0.2795   -5.1319 C   0  0  0  0  0  0  0  0  0  0  0  0
    3.4562   -0.7425   -4.2656 C   0  0  0  0  0  0  0  0  0  0  0  0
    3.9382   -0.5946   -2.8469 C   0  0  0  0  0  0  0  0  0  0  0  0
    4.9247   -1.5786   -2.5019 O   0  0  0  0  0  0  0  0  0  0  0  0
    4.6983   -2.4887   -1.4935 C   0  0  0  0  0  0  0  0  0  0  0  0
    3.4631   -2.5835   -0.8119 C   0  0  0  0  0  0  0  0  0  0  0  0
    3.2626   -3.5010    0.2101 C   0  0  0  0  0  0  0  0  0  0  0  0
    4.2964   -4.3756    0.5659 C   0  0  0  0  0  0  0  0  0  0  0  0
    5.5657   -4.3298   -0.0674 C   0  0  0  0  0  0  0  0  0  0  0  0
    5.7563   -3.3768   -1.1050 C   0  0  0  0  0  0  0  0  0  0  0  0
    6.4357   -5.2738    0.4815 N   0  0  0  0  0  0  0  0  0  0  0  0
    5.6427   -5.8658    1.3813 C   0  0  0  0  0  0  0  0  0  0  0  0
    4.3894   -5.3976    1.5024 N   0  0  0  0  0  0  0  0  0  0  0  0
    3.3901   -5.8119    2.4036 C   0  0  0  0  0  0  0  0  0  0  0  0
    3.1826   -7.1357    2.6466 C   0  0  0  0  0  0  0  0  0  0  0  0
    2.1671   -7.1933    3.5857 N   0  0  0  0  0  0  0  0  0  0  0  0
    1.5564   -8.2428    4.1960 C   0  0  0  0  0  0  0  0  0  0  0  0
    0.5687   -7.9431    5.0995 C   0  0  0  0  0  0  0  0  0  0  0  0
   -0.1632   -9.0485    5.8282 C   0  0  0  0  0  0  0  0  0  0  0  0
    0.1782   -6.6613    5.4127 N   0  0  0  0  0  0  0  0  0  0  0  0
    0.7666   -5.6494    4.8301 C   0  0  0  0  0  0  0  0  0  0  0  0
    0.3158   -4.2979    5.2188 C   0  0  0  0  0  0  0  0  0  0  0  0
   -0.4884   -3.9757    6.3460 C   0  0  0  0  0  0  0  0  0  0  0  0
   -0.7449   -2.6768    6.4104 N   0  0  0  0  0  0  0  0  0  0  0  0
   -0.0922   -2.1396    5.3537 N   0  0  0  0  0  0  0  0  0  0  0  0
   -0.1553   -0.7044    5.1342 C   0  0  0  0  0  0  0  0  0  0  0  0
    0.5690   -3.0979    4.6058 C   0  0  0  0  0  0  0  0  0  0  0  0
    1.8017   -5.8491    3.8574 C   0  0  0  0  0  0  0  0  0  0  0  0
    2.5250   -5.0123    3.1226 N   0  0  0  0  0  0  0  0  0  0  0  0
    3.7633    1.2621   -4.8320 H   0  0  0  0  0  0  0  0  0  0  0  0
    3.0428    0.1435   -6.1388 H   0  0  0  0  0  0  0  0  0  0  0  0
    3.0891   -1.7155   -4.5616 H   0  0  0  0  0  0  0  0  0  0  0  0
    4.3267    0.3996   -2.6367 H   0  0  0  0  0  0  0  0  0  0  0  0
    2.9865   -0.6171   -2.3234 H   0  0  0  0  0  0  0  0  0  0  0  0
    2.5946   -1.9871   -1.0072 H   0  0  0  0  0  0  0  0  0  0  0  0
    2.3026   -3.5178    0.6997 H   0  0  0  0  0  0  0  0  0  0  0  0
    6.7176   -3.3553   -1.6004 H   0  0  0  0  0  0  0  0  0  0  0  0
    5.9936   -6.6550    2.0339 H   0  0  0  0  0  0  0  0  0  0  0  0
    3.6467   -8.0322    2.2539 H   0  0  0  0  0  0  0  0  0  0  0  0
    1.8779   -9.2494    3.9366 H   0  0  0  0  0  0  0  0  0  0  0  0
    0.1963  -10.0373    5.5511 H   0  0  0  0  0  0  0  0  0  0  0  0
   -1.2252   -9.0212    5.6066 H   0  0  0  0  0  0  0  0  0  0  0  0
   -0.0445   -8.9477    6.9028 H   0  0  0  0  0  0  0  0  0  0  0  0
   -0.9050   -4.6462    7.0899 H   0  0  0  0  0  0  0  0  0  0  0  0
    0.4770   -0.4180    4.2964 H   0  0  0  0  0  0  0  0  0  0  0  0
    0.1870   -0.1784    6.0251 H   0  0  0  0  0  0  0  0  0  0  0  0
   -1.1808   -0.4067    4.9191 H   0  0  0  0  0  0  0  0  0  0  0  0
    1.1348   -2.8365    3.7170 H   0  0  0  0  0  0  0  0  0  0  0  0
  1  2  2  0
  1 30  1  0
  1 31  1  0
  2  3  1  0
  2 32  1  0
  3  4  1  0
  3 33  1  0
  3 34  1  0
  4  5  1  0
  5 10  2  0
  5  6  1  0
  6  7  2  0
  6 35  1  0
  7  8  1  0
  7 36  1  0
  8 13  1  0
  8  9  2  0
  9 10  1  0
  9 11  1  0
 10 37  1  0
 11 12  2  0
 12 13  1  0
 12 38  1  0
 13 14  1  0
 14 29  1  0
 14 15  2  0
 15 16  1  0
 15 39  1  0
 16 28  1  0
 16 17  1  0
 17 18  2  0
 17 40  1  0
 18 19  1  0
 18 20  1  0
 19 41  1  0
 19 42  1  0
 19 43  1  0
 20 21  2  0
 21 22  1  0
 21 28  1  0
 22 27  2  0
 22 23  1  0
 23 24  2  0
 23 44  1  0
 24 25  1  0
 25 26  1  0
 25 27  1  0
 26 45  1  0
 26 46  1  0
 26 47  1  0
 27 48  1  0
 28 29  2  0
M  END
>  <i_m_ct_stereo_status>  (206) 
1

>  <s_m_source_file>  (206) 
/var/tmp/pbs.5076255.sched01/tmp4185l44a/86vs10_z9v.sdf

>  <i_m_source_file_index>  (206) 
3

>  <i_lp_mmshare_version>  (206) 
48012

>  <i_f3d_flags>  (206) 
0

>  <s_epik_input>  (206) 
W0NIMl09W0NIXVtDSDJdT2MoW2NIXVtjSF0xKVtjSF1jKGMxMiluW2NIXW4yLWMoW2NIXTMpbmMobjM0KWMobmMoW2NIXTQpW0NIM10pLWM1W2NIXW5uKFtDSDNdKVtjSF01

>  <s_epik_cmdline>  (206) 
J2VwaWtfcHl0aG9uJywgJy1waHQnLCAnMi4wJywgJy1waCcsICc3LjAnLCAnLXRuJywgJzgnLCAnLW1hJywgJzIwMCcsICctaW1hZScsICc8aW5maWxlLm1hZT4nLCAnLW9tYWUnLCAnPG91dGZpbGUubWFlPic=

>  <r_lp_tautomer_probability>  (206) 
1

>  <r_epik_Ionization_Penalty>  (206) 
0.0223215

>  <r_epik_Ionization_Penalty_Charging>  (206) 
8.15328e-09

>  <r_epik_Ionization_Penalty_Neutral>  (206) 
0.0223215

>  <r_epik_State_Penalty>  (206) 
0.017891

>  <r_epik_Charging_Adjusted_Penalty>  (206) 
0.017891

>  <i_epik_Tot_Q>  (206) 
0

>  <i_epik_Tot_abs_Q>  (206) 
0

>  <s_lp_Force_Field>  (206) 
OPLS3e

>  <r_lp_Energy>  (206) 
26.1782

>  <b_lp_Chiralities_Consistent>  (206) 
1

>  <s_lp_Variant>  (206) 
59:0-1

>  <s_i_glide_gridfile>  (206) 
pfpi4k_grid

>  <i_i_glide_lignum>  (206) 
3

>  <i_i_glide_rotatable_bonds>  (206) 
5

>  <r_i_docking_score>  (206) 
-3.34243

>  <r_i_glide_ligand_efficiency>  (206) 
-0.115256

>  <r_i_glide_ligand_efficiency_sa>  (206) 
-0.354104

>  <r_i_glide_ligand_efficiency_ln>  (206) 
-0.765332

>  <r_i_glide_gscore>  (206) 
-3.34243

>  <r_i_glide_lipo>  (206) 
-0.640883

>  <r_i_glide_hbond>  (206) 
0

>  <r_i_glide_metal>  (206) 
-0

>  <r_i_glide_rewards>  (206) 
-0.927368

>  <r_i_glide_evdw>  (206) 
-33.2385

>  <r_i_glide_ecoul>  (206) 
-4.96757

>  <r_i_glide_erotb>  (206) 
0.654757

>  <r_i_glide_esite>  (206) 
-0.0218744

>  <r_i_glide_emodel>  (206) 
-43.3521

>  <r_i_glide_energy>  (206) 
-38.2061

>  <r_i_glide_einternal>  (206) 
6.11945

>  <r_i_glide_intrahb_reward>  (206) 
-0

>  <i_i_glide_confnum>  (206) 
3

>  <i_i_glide_posenum>  (206) 
8

>  <r_i_glide_eff_state_penalty>  (206) 
0

>  <ligand_id>  (206) 
59

>  <original_smiles>  (206) 
C=CCOc1ccc2c(c1)ncn2-c1cn2cc(C)nc(-c3cnn(C)c3)c2n1

>  <smiles>  (206) 
[H]C([H])=C([H])C([H])([H])Oc1c([H])c([H])c2c(nc([H])n2-c2nc3c(-c4c([H])nn(C([H])([H])[H])c4[H])nc(C([H])([H])[H])c([H])n3c2[H])c1[H]

$$$$
59:0:1
     RDKit          3D

 48 52  0  0  1  0  0  0  0  0999 V2000
    3.4381   -1.1086   -3.8255 C   0  0  0  0  0  0  0  0  0  0  0  0
    3.3846   -1.8857   -2.7372 C   0  0  0  0  0  0  0  0  0  0  0  0
    4.0208   -1.5435   -1.4130 C   0  0  0  0  0  0  0  0  0  0  0  0
    4.9626   -2.5566   -1.0586 O   0  0  0  0  0  0  0  0  0  0  0  0
    4.5507   -3.5029   -0.1496 C   0  0  0  0  0  0  0  0  0  0  0  0
    3.8457   -3.1595    1.0253 C   0  0  0  0  0  0  0  0  0  0  0  0
    3.4080   -4.1624    1.9042 C   0  0  0  0  0  0  0  0  0  0  0  0
    3.7101   -5.5135    1.6381 C   0  0  0  0  0  0  0  0  0  0  0  0
    4.4478   -5.8813    0.4813 C   0  0  0  0  0  0  0  0  0  0  0  0
    4.8716   -4.8569   -0.3957 C   0  0  0  0  0  0  0  0  0  0  0  0
    4.6128   -7.2572    0.4093 N   0  0  0  0  0  0  0  0  0  0  0  0
    4.0085   -7.6739    1.5106 C   0  0  0  0  0  0  0  0  0  0  0  0
    3.4484   -6.7245    2.2804 N   0  0  0  0  0  0  0  0  0  0  0  0
    2.7259   -6.9120    3.4682 C   0  0  0  0  0  0  0  0  0  0  0  0
    2.7723   -8.0923    4.1562 C   0  0  0  0  0  0  0  0  0  0  0  0
    1.9426   -7.9305    5.2523 N   0  0  0  0  0  0  0  0  0  0  0  0
    1.6072   -8.7684    6.2681 C   0  0  0  0  0  0  0  0  0  0  0  0
    0.7470   -8.2774    7.2160 C   0  0  0  0  0  0  0  0  0  0  0  0
    0.3177   -9.1345    8.3834 C   0  0  0  0  0  0  0  0  0  0  0  0
    0.2194   -7.0078    7.1870 N   0  0  0  0  0  0  0  0  0  0  0  0
    0.5451   -6.2062    6.2076 C   0  0  0  0  0  0  0  0  0  0  0  0
   -0.0475   -4.8536    6.2361 C   0  0  0  0  0  0  0  0  0  0  0  0
   -1.0684   -4.4044    7.1124 C   0  0  0  0  0  0  0  0  0  0  0  0
   -1.3809   -3.1430    6.8731 N   0  0  0  0  0  0  0  0  0  0  0  0
   -0.5807   -2.7497    5.8593 N   0  0  0  0  0  0  0  0  0  0  0  0
   -0.6910   -1.3896    5.3656 C   0  0  0  0  0  0  0  0  0  0  0  0
    0.2391   -3.7731    5.4395 C   0  0  0  0  0  0  0  0  0  0  0  0
    1.4283   -6.6163    5.1696 C   0  0  0  0  0  0  0  0  0  0  0  0
    1.8942   -6.0008    4.0854 N   0  0  0  0  0  0  0  0  0  0  0  0
    3.9596   -0.1621   -3.8226 H   0  0  0  0  0  0  0  0  0  0  0  0
    2.9489   -1.4275   -4.7282 H   0  0  0  0  0  0  0  0  0  0  0  0
    2.8515   -2.8264   -2.7685 H   0  0  0  0  0  0  0  0  0  0  0  0
    4.5183   -0.5725   -1.4527 H   0  0  0  0  0  0  0  0  0  0  0  0
    3.1955   -1.4145   -0.7152 H   0  0  0  0  0  0  0  0  0  0  0  0
    3.6248   -2.1306    1.2671 H   0  0  0  0  0  0  0  0  0  0  0  0
    2.8528   -3.8937    2.7831 H   0  0  0  0  0  0  0  0  0  0  0  0
    5.4027   -5.1275   -1.2991 H   0  0  0  0  0  0  0  0  0  0  0  0
    3.9617   -8.7254    1.7558 H   0  0  0  0  0  0  0  0  0  0  0  0
    3.2902   -9.0276    3.9963 H   0  0  0  0  0  0  0  0  0  0  0  0
    2.0247   -9.7742    6.2800 H   0  0  0  0  0  0  0  0  0  0  0  0
    0.7752  -10.1240    8.3504 H   0  0  0  0  0  0  0  0  0  0  0  0
   -0.7618   -9.2474    8.3519 H   0  0  0  0  0  0  0  0  0  0  0  0
    0.5934   -8.6599    9.3228 H   0  0  0  0  0  0  0  0  0  0  0  0
   -1.5791   -4.9534    7.8917 H   0  0  0  0  0  0  0  0  0  0  0  0
    0.0621   -1.2022    4.6019 H   0  0  0  0  0  0  0  0  0  0  0  0
   -0.5428   -0.6819    6.1810 H   0  0  0  0  0  0  0  0  0  0  0  0
   -1.6779   -1.2255    4.9327 H   0  0  0  0  0  0  0  0  0  0  0  0
    0.9358   -3.6328    4.6256 H   0  0  0  0  0  0  0  0  0  0  0  0
  1  2  2  0
  1 30  1  0
  1 31  1  0
  2  3  1  0
  2 32  1  0
  3  4  1  0
  3 33  1  0
  3 34  1  0
  4  5  1  0
  5 10  2  0
  5  6  1  0
  6  7  2  0
  6 35  1  0
  7  8  1  0
  7 36  1  0
  8 13  1  0
  8  9  2  0
  9 10  1  0
  9 11  1  0
 10 37  1  0
 11 12  2  0
 12 13  1  0
 12 38  1  0
 13 14  1  0
 14 29  1  0
 14 15  2  0
 15 16  1  0
 15 39  1  0
 16 28  1  0
 16 17  1  0
 17 18  2  0
 17 40  1  0
 18 19  1  0
 18 20  1  0
 19 41  1  0
 19 42  1  0
 19 43  1  0
 20 21  2  0
 21 22  1  0
 21 28  1  0
 22 27  2  0
 22 23  1  0
 23 24  2  0
 23 44  1  0
 24 25  1  0
 25 26  1  0
 25 27  1  0
 26 45  1  0
 26 46  1  0
 26 47  1  0
 27 48  1  0
 28 29  2  0
M  END
>  <i_m_ct_stereo_status>  (207) 
1

>  <s_m_source_file>  (207) 
/var/tmp/pbs.5076255.sched01/tmp4185l44a/86vs10_z9v.sdf

>  <i_m_source_file_index>  (207) 
3

>  <i_lp_mmshare_version>  (207) 
48012

>  <i_f3d_flags>  (207) 
0

>  <s_epik_input>  (207) 
W0NIMl09W0NIXVtDSDJdT2MoW2NIXVtjSF0xKVtjSF1jKGMxMiluW2NIXW4yLWMoW2NIXTMpbmMobjM0KWMobmMoW2NIXTQpW0NIM10pLWM1W2NIXW5uKFtDSDNdKVtjSF01

>  <s_epik_cmdline>  (207) 
J2VwaWtfcHl0aG9uJywgJy1waHQnLCAnMi4wJywgJy1waCcsICc3LjAnLCAnLXRuJywgJzgnLCAnLW1hJywgJzIwMCcsICctaW1hZScsICc8aW5maWxlLm1hZT4nLCAnLW9tYWUnLCAnPG91dGZpbGUubWFlPic=

>  <r_lp_tautomer_probability>  (207) 
1

>  <r_epik_Ionization_Penalty>  (207) 
0.0223215

>  <r_epik_Ionization_Penalty_Charging>  (207) 
8.15328e-09

>  <r_epik_Ionization_Penalty_Neutral>  (207) 
0.0223215

>  <r_epik_State_Penalty>  (207) 
0.017891

>  <r_epik_Charging_Adjusted_Penalty>  (207) 
0.017891

>  <i_epik_Tot_Q>  (207) 
0

>  <i_epik_Tot_abs_Q>  (207) 
0

>  <s_lp_Force_Field>  (207) 
OPLS3e

>  <r_lp_Energy>  (207) 
26.1782

>  <b_lp_Chiralities_Consistent>  (207) 
1

>  <s_lp_Variant>  (207) 
59:0-1

>  <s_i_glide_gridfile>  (207) 
pfpi4k_grid

>  <i_i_glide_lignum>  (207) 
3

>  <i_i_glide_rotatable_bonds>  (207) 
5

>  <r_i_docking_score>  (207) 
-2.75593

>  <r_i_glide_ligand_efficiency>  (207) 
-0.0950321

>  <r_i_glide_ligand_efficiency_sa>  (207) 
-0.291969

>  <r_i_glide_ligand_efficiency_ln>  (207) 
-0.631038

>  <r_i_glide_gscore>  (207) 
-2.75593

>  <r_i_glide_lipo>  (207) 
-0.337148

>  <r_i_glide_hbond>  (207) 
0

>  <r_i_glide_metal>  (207) 
-0

>  <r_i_glide_rewards>  (207) 
-0.835183

>  <r_i_glide_evdw>  (207) 
-27.6904

>  <r_i_glide_ecoul>  (207) 
-5.45385

>  <r_i_glide_erotb>  (207) 
0.654757

>  <r_i_glide_esite>  (207) 
-0.0357581

>  <r_i_glide_emodel>  (207) 
-37.5707

>  <r_i_glide_energy>  (207) 
-33.1443

>  <r_i_glide_einternal>  (207) 
5.36416

>  <r_i_glide_intrahb_reward>  (207) 
-0

>  <i_i_glide_confnum>  (207) 
3

>  <i_i_glide_posenum>  (207) 
1

>  <r_i_glide_eff_state_penalty>  (207) 
0

>  <ligand_id>  (207) 
59

>  <original_smiles>  (207) 
C=CCOc1ccc2c(c1)ncn2-c1cn2cc(C)nc(-c3cnn(C)c3)c2n1

>  <smiles>  (207) 
[H]C([H])=C([H])C([H])([H])Oc1c([H])c([H])c2c(nc([H])n2-c2nc3c(-c4c([H])nn(C([H])([H])[H])c4[H])nc(C([H])([H])[H])c([H])n3c2[H])c1[H]

$$$$
59:0:2
     RDKit          3D

 48 52  0  0  1  0  0  0  0  0999 V2000
    0.1344    1.6990    2.2812 C   0  0  0  0  0  0  0  0  0  0  0  0
    1.1342    0.8171    2.1628 C   0  0  0  0  0  0  0  0  0  0  0  0
    2.6262    1.1287    2.3081 C   0  0  0  0  0  0  0  0  0  0  0  0
    3.4077    0.5139    1.2846 O   0  0  0  0  0  0  0  0  0  0  0  0
    3.5173   -0.8599    1.2675 C   0  0  0  0  0  0  0  0  0  0  0  0
    2.9468   -1.6732    2.2763 C   0  0  0  0  0  0  0  0  0  0  0  0
    3.0036   -3.0634    2.1926 C   0  0  0  0  0  0  0  0  0  0  0  0
    3.6816   -3.6648    1.1304 C   0  0  0  0  0  0  0  0  0  0  0  0
    4.3040   -2.8901    0.1140 C   0  0  0  0  0  0  0  0  0  0  0  0
    4.2057   -1.4813    0.1904 C   0  0  0  0  0  0  0  0  0  0  0  0
    4.9331   -3.7026   -0.8163 N   0  0  0  0  0  0  0  0  0  0  0  0
    4.6604   -4.9239   -0.3433 C   0  0  0  0  0  0  0  0  0  0  0  0
    3.9331   -4.9819    0.7899 N   0  0  0  0  0  0  0  0  0  0  0  0
    3.5087   -6.1309    1.5071 C   0  0  0  0  0  0  0  0  0  0  0  0
    3.8437   -7.3936    1.1044 C   0  0  0  0  0  0  0  0  0  0  0  0
    3.2673   -8.2586    2.0035 N   0  0  0  0  0  0  0  0  0  0  0  0
    3.2689   -9.6161    2.0779 C   0  0  0  0  0  0  0  0  0  0  0  0
    2.5964  -10.1884    3.1208 C   0  0  0  0  0  0  0  0  0  0  0  0
    2.5434  -11.6910    3.2815 C   0  0  0  0  0  0  0  0  0  0  0  0
    1.9289   -9.4663    4.0842 N   0  0  0  0  0  0  0  0  0  0  0  0
    1.9244   -8.1548    3.9972 C   0  0  0  0  0  0  0  0  0  0  0  0
    1.1903   -7.4393    5.0754 C   0  0  0  0  0  0  0  0  0  0  0  0
    0.8507   -7.9453    6.3591 C   0  0  0  0  0  0  0  0  0  0  0  0
    0.2249   -7.0391    7.0846 N   0  0  0  0  0  0  0  0  0  0  0  0
    0.1414   -5.9486    6.2992 N   0  0  0  0  0  0  0  0  0  0  0  0
   -0.5261   -4.7658    6.8100 C   0  0  0  0  0  0  0  0  0  0  0  0
    0.7304   -6.1486    5.0712 C   0  0  0  0  0  0  0  0  0  0  0  0
    2.5973   -7.4583    2.9402 C   0  0  0  0  0  0  0  0  0  0  0  0
    2.7430   -6.1614    2.6350 N   0  0  0  0  0  0  0  0  0  0  0  0
    0.3183    2.7435    2.4789 H   0  0  0  0  0  0  0  0  0  0  0  0
   -0.8862    1.3686    2.1678 H   0  0  0  0  0  0  0  0  0  0  0  0
    0.8566   -0.2052    1.9471 H   0  0  0  0  0  0  0  0  0  0  0  0
    2.7779    2.2167    2.3011 H   0  0  0  0  0  0  0  0  0  0  0  0
    2.9953    0.8048    3.2753 H   0  0  0  0  0  0  0  0  0  0  0  0
    2.4158   -1.2616    3.1355 H   0  0  0  0  0  0  0  0  0  0  0  0
    2.5260   -3.6480    2.9608 H   0  0  0  0  0  0  0  0  0  0  0  0
    4.6469   -0.8723   -0.5902 H   0  0  0  0  0  0  0  0  0  0  0  0
    5.0124   -5.8150   -0.8543 H   0  0  0  0  0  0  0  0  0  0  0  0
    4.4194   -7.7662    0.2593 H   0  0  0  0  0  0  0  0  0  0  0  0
    3.7956  -10.1827    1.3065 H   0  0  0  0  0  0  0  0  0  0  0  0
    3.0974  -12.1937    2.4870 H   0  0  0  0  0  0  0  0  0  0  0  0
    1.5095  -12.0268    3.2458 H   0  0  0  0  0  0  0  0  0  0  0  0
    2.9736  -11.9743    4.2410 H   0  0  0  0  0  0  0  0  0  0  0  0
    1.0588   -8.9241    6.7598 H   0  0  0  0  0  0  0  0  0  0  0  0
   -0.4411   -3.9372    6.1009 H   0  0  0  0  0  0  0  0  0  0  0  0
   -0.0753   -4.4634    7.7570 H   0  0  0  0  0  0  0  0  0  0  0  0
   -1.5838   -4.9794    6.9772 H   0  0  0  0  0  0  0  0  0  0  0  0
    0.7740   -5.3700    4.3168 H   0  0  0  0  0  0  0  0  0  0  0  0
  1  2  2  0
  1 30  1  0
  1 31  1  0
  2  3  1  0
  2 32  1  0
  3  4  1  0
  3 33  1  0
  3 34  1  0
  4  5  1  0
  5 10  2  0
  5  6  1  0
  6  7  2  0
  6 35  1  0
  7  8  1  0
  7 36  1  0
  8 13  1  0
  8  9  2  0
  9 10  1  0
  9 11  1  0
 10 37  1  0
 11 12  2  0
 12 13  1  0
 12 38  1  0
 13 14  1  0
 14 29  1  0
 14 15  2  0
 15 16  1  0
 15 39  1  0
 16 28  1  0
 16 17  1  0
 17 18  2  0
 17 40  1  0
 18 19  1  0
 18 20  1  0
 19 41  1  0
 19 42  1  0
 19 43  1  0
 20 21  2  0
 21 22  1  0
 21 28  1  0
 22 27  2  0
 22 23  1  0
 23 24  2  0
 23 44  1  0
 24 25  1  0
 25 26  1  0
 25 27  1  0
 26 45  1  0
 26 46  1  0
 26 47  1  0
 27 48  1  0
 28 29  2  0
M  END
>  <i_m_ct_stereo_status>  (208) 
1

>  <s_m_source_file>  (208) 
/var/tmp/pbs.5076255.sched01/tmp4185l44a/86vs10_z9v.sdf

>  <i_m_source_file_index>  (208) 
3

>  <i_lp_mmshare_version>  (208) 
48012

>  <i_f3d_flags>  (208) 
0

>  <s_epik_input>  (208) 
W0NIMl09W0NIXVtDSDJdT2MoW2NIXVtjSF0xKVtjSF1jKGMxMiluW2NIXW4yLWMoW2NIXTMpbmMobjM0KWMobmMoW2NIXTQpW0NIM10pLWM1W2NIXW5uKFtDSDNdKVtjSF01

>  <s_epik_cmdline>  (208) 
J2VwaWtfcHl0aG9uJywgJy1waHQnLCAnMi4wJywgJy1waCcsICc3LjAnLCAnLXRuJywgJzgnLCAnLW1hJywgJzIwMCcsICctaW1hZScsICc8aW5maWxlLm1hZT4nLCAnLW9tYWUnLCAnPG91dGZpbGUubWFlPic=

>  <r_lp_tautomer_probability>  (208) 
1

>  <r_epik_Ionization_Penalty>  (208) 
0.0223215

>  <r_epik_Ionization_Penalty_Charging>  (208) 
8.15328e-09

>  <r_epik_Ionization_Penalty_Neutral>  (208) 
0.0223215

>  <r_epik_State_Penalty>  (208) 
0.017891

>  <r_epik_Charging_Adjusted_Penalty>  (208) 
0.017891

>  <i_epik_Tot_Q>  (208) 
0

>  <i_epik_Tot_abs_Q>  (208) 
0

>  <s_lp_Force_Field>  (208) 
OPLS3e

>  <r_lp_Energy>  (208) 
26.1782

>  <b_lp_Chiralities_Consistent>  (208) 
1

>  <s_lp_Variant>  (208) 
59:0-1

>  <s_i_glide_gridfile>  (208) 
pfpi4k_grid

>  <i_i_glide_lignum>  (208) 
3

>  <i_i_glide_rotatable_bonds>  (208) 
5

>  <r_i_docking_score>  (208) 
-2.3236

>  <r_i_glide_ligand_efficiency>  (208) 
-0.0801242

>  <r_i_glide_ligand_efficiency_sa>  (208) 
-0.246167

>  <r_i_glide_ligand_efficiency_ln>  (208) 
-0.532046

>  <r_i_glide_gscore>  (208) 
-2.3236

>  <r_i_glide_lipo>  (208) 
-0.120888

>  <r_i_glide_hbond>  (208) 
0

>  <r_i_glide_metal>  (208) 
-0

>  <r_i_glide_rewards>  (208) 
-0.863873

>  <r_i_glide_evdw>  (208) 
-30.726

>  <r_i_glide_ecoul>  (208) 
-2.82509

>  <r_i_glide_erotb>  (208) 
0.654757

>  <r_i_glide_esite>  (208) 
-0.0335329

>  <r_i_glide_emodel>  (208) 
-37.0726

>  <r_i_glide_energy>  (208) 
-33.5511

>  <r_i_glide_einternal>  (208) 
4.30422

>  <r_i_glide_intrahb_reward>  (208) 
-0

>  <i_i_glide_confnum>  (208) 
3

>  <i_i_glide_posenum>  (208) 
11

>  <r_i_glide_eff_state_penalty>  (208) 
0

>  <ligand_id>  (208) 
59

>  <original_smiles>  (208) 
C=CCOc1ccc2c(c1)ncn2-c1cn2cc(C)nc(-c3cnn(C)c3)c2n1

>  <smiles>  (208) 
[H]C([H])=C([H])C([H])([H])Oc1c([H])c([H])c2c(nc([H])n2-c2nc3c(-c4c([H])nn(C([H])([H])[H])c4[H])nc(C([H])([H])[H])c([H])n3c2[H])c1[H]

$$$$
59:1:0
     RDKit          3D

 49 53  0  0  1  0  0  0  0  0999 V2000
    4.8923   -3.0045   -0.8008 C   0  0  0  0  0  0  0  0  0  0  0  0
    4.3702   -1.9656   -0.1385 C   0  0  0  0  0  0  0  0  0  0  0  0
    5.1595   -0.8249    0.5059 C   0  0  0  0  0  0  0  0  0  0  0  0
    4.9529   -0.7202    1.9134 O   0  0  0  0  0  0  0  0  0  0  0  0
    3.7427   -0.2552    2.3912 C   0  0  0  0  0  0  0  0  0  0  0  0
    3.6661   -0.0431    3.7873 C   0  0  0  0  0  0  0  0  0  0  0  0
    2.4781    0.4099    4.4083 C   0  0  0  0  0  0  0  0  0  0  0  0
    1.3620    0.6179    3.5953 C   0  0  0  0  0  0  0  0  0  0  0  0
    1.4393    0.4037    2.2074 C   0  0  0  0  0  0  0  0  0  0  0  0
    2.6068    0.0056    1.5813 C   0  0  0  0  0  0  0  0  0  0  0  0
    0.1870    0.6609    1.6810 N   0  0  0  0  0  0  0  0  0  0  0  0
   -0.6464    1.0743    2.6591 C   0  0  0  0  0  0  0  0  0  0  0  0
    0.0474    1.0546    3.8469 N   0  0  0  0  0  0  0  0  0  0  0  0
   -0.4732    1.4091    5.0976 C   0  0  0  0  0  0  0  0  0  0  0  0
   -1.6548    2.0908    5.2076 C   0  0  0  0  0  0  0  0  0  0  0  0
   -1.8512    2.2883    6.5630 N   0  0  0  0  0  0  0  0  0  0  0  0
   -2.8502    2.8940    7.2492 C   0  0  0  0  0  0  0  0  0  0  0  0
   -2.7402    2.9148    8.6152 C   0  0  0  0  0  0  0  0  0  0  0  0
   -3.7931    3.5739    9.4717 C   0  0  0  0  0  0  0  0  0  0  0  0
   -1.6878    2.3450    9.2959 N   0  0  0  0  0  0  0  0  0  0  0  0
   -0.7297    1.7721    8.6406 C   0  0  0  0  0  0  0  0  0  0  0  0
    0.3673    1.1789    9.4404 C   0  0  0  0  0  0  0  0  0  0  0  0
    0.3673    0.9825   10.8508 C   0  0  0  0  0  0  0  0  0  0  0  0
    1.4997    0.4254   11.2604 N   0  0  0  0  0  0  0  0  0  0  0  0
    2.2375    0.2550   10.1402 N   0  0  0  0  0  0  0  0  0  0  0  0
    3.5624   -0.3325   10.2496 C   0  0  0  0  0  0  0  0  0  0  0  0
    1.5704    0.6991    9.0129 C   0  0  0  0  0  0  0  0  0  0  0  0
   -0.7400    1.6938    7.2145 C   0  0  0  0  0  0  0  0  0  0  0  0
    0.0802    1.1514    6.3313 N   0  0  0  0  0  0  0  0  0  0  0  0
    5.9587   -3.1428   -0.9342 H   0  0  0  0  0  0  0  0  0  0  0  0
    4.2095   -3.7339   -1.2183 H   0  0  0  0  0  0  0  0  0  0  0  0
    3.2892   -1.9561   -0.0775 H   0  0  0  0  0  0  0  0  0  0  0  0
    6.2284   -0.9775    0.3415 H   0  0  0  0  0  0  0  0  0  0  0  0
    4.9312    0.1278    0.0325 H   0  0  0  0  0  0  0  0  0  0  0  0
    4.5485   -0.2110    4.3906 H   0  0  0  0  0  0  0  0  0  0  0  0
    2.4460    0.5906    5.4718 H   0  0  0  0  0  0  0  0  0  0  0  0
    2.5749   -0.1036    0.5018 H   0  0  0  0  0  0  0  0  0  0  0  0
   -1.6839    1.3475    2.5219 H   0  0  0  0  0  0  0  0  0  0  0  0
   -2.3697    2.4654    4.4860 H   0  0  0  0  0  0  0  0  0  0  0  0
   -3.6719    3.3324    6.6862 H   0  0  0  0  0  0  0  0  0  0  0  0
   -4.6034    3.9850    8.8739 H   0  0  0  0  0  0  0  0  0  0  0  0
   -3.3587    4.3809   10.0573 H   0  0  0  0  0  0  0  0  0  0  0  0
   -4.2235    2.8594   10.1677 H   0  0  0  0  0  0  0  0  0  0  0  0
   -0.4058    1.2217   11.5717 H   0  0  0  0  0  0  0  0  0  0  0  0
    4.0096   -0.4576    9.2646 H   0  0  0  0  0  0  0  0  0  0  0  0
    3.4971   -1.3067   10.7334 H   0  0  0  0  0  0  0  0  0  0  0  0
    4.2045    0.3131   10.8484 H   0  0  0  0  0  0  0  0  0  0  0  0
    2.0243    0.6304    8.0296 H   0  0  0  0  0  0  0  0  0  0  0  0
   -0.0802    0.5609    0.7000 H   0  0  0  0  0  0  0  0  0  0  0  0
  1  2  2  0
  1 30  1  0
  1 31  1  0
  2  3  1  0
  2 32  1  0
  3  4  1  0
  3 33  1  0
  3 34  1  0
  4  5  1  0
  5 10  2  0
  5  6  1  0
  6  7  2  0
  6 35  1  0
  7  8  1  0
  7 36  1  0
  8 13  1  0
  8  9  2  0
  9 10  1  0
  9 11  1  0
 10 37  1  0
 11 12  2  0
 11 49  1  0
 12 13  1  0
 12 38  1  0
 13 14  1  0
 14 29  1  0
 14 15  2  0
 15 16  1  0
 15 39  1  0
 16 28  1  0
 16 17  1  0
 17 18  2  0
 17 40  1  0
 18 19  1  0
 18 20  1  0
 19 41  1  0
 19 42  1  0
 19 43  1  0
 20 21  2  0
 21 22  1  0
 21 28  1  0
 22 27  2  0
 22 23  1  0
 23 24  2  0
 23 44  1  0
 24 25  1  0
 25 26  1  0
 25 27  1  0
 26 45  1  0
 26 46  1  0
 26 47  1  0
 27 48  1  0
 28 29  2  0
M  CHG  1  11   1
M  END
>  <i_m_ct_stereo_status>  (209) 
1

>  <s_m_source_file>  (209) 
/var/tmp/pbs.5076255.sched01/tmp4185l44a/86vs10_z9v.sdf

>  <i_m_source_file_index>  (209) 
4

>  <i_lp_mmshare_version>  (209) 
48012

>  <i_f3d_flags>  (209) 
0

>  <s_epik_input>  (209) 
W0NIMl09W0NIXVtDSDJdT2MoW2NIXVtjSF0xKVtjSF1jKGMxMiluW2NIXW4yLWMoW2NIXTMpbmMobjM0KWMobmMoW2NIXTQpW0NIM10pLWM1W2NIXW5uKFtDSDNdKVtjSF01

>  <s_epik_cmdline>  (209) 
J2VwaWtfcHl0aG9uJywgJy1waHQnLCAnMi4wJywgJy1waCcsICc3LjAnLCAnLXRuJywgJzgnLCAnLW1hJywgJzIwMCcsICctaW1hZScsICc8aW5maWxlLm1hZT4nLCAnLW9tYWUnLCAnPG91dGZpbGUubWFlPic=

>  <r_lp_tautomer_probability>  (209) 
1

>  <r_epik_Ionization_Penalty>  (209) 
1.95727

>  <r_epik_Ionization_Penalty_Charging>  (209) 
1.95714

>  <r_epik_Ionization_Penalty_Neutral>  (209) 
0.000129287

>  <r_epik_State_Penalty>  (209) 
2.08264

>  <r_epik_Charging_Adjusted_Penalty>  (209) 
4.03979

>  <i_epik_Tot_Q>  (209) 
1

>  <i_epik_Tot_abs_Q>  (209) 
1

>  <s_lp_Force_Field>  (209) 
OPLS3e

>  <r_lp_Energy>  (209) 
34.1099

>  <b_lp_Chiralities_Consistent>  (209) 
1

>  <s_lp_Variant>  (209) 
59:0-2

>  <s_i_glide_gridfile>  (209) 
pfpi4k_grid

>  <i_i_glide_lignum>  (209) 
4

>  <i_i_glide_rotatable_bonds>  (209) 
5

>  <r_i_docking_score>  (209) 
-3.2555

>  <r_i_glide_ligand_efficiency>  (209) 
-0.112258

>  <r_i_glide_ligand_efficiency_sa>  (209) 
-0.344894

>  <r_i_glide_ligand_efficiency_ln>  (209) 
-0.745426

>  <r_i_glide_gscore>  (209) 
-3.2555

>  <r_i_glide_lipo>  (209) 
-0.578858

>  <r_i_glide_hbond>  (209) 
-0.259462

>  <r_i_glide_metal>  (209) 
-0

>  <r_i_glide_rewards>  (209) 
-0.780048

>  <r_i_glide_evdw>  (209) 
-27.5947

>  <r_i_glide_ecoul>  (209) 
-4.73073

>  <r_i_glide_erotb>  (209) 
0.651696

>  <r_i_glide_esite>  (209) 
-0.19948

>  <r_i_glide_emodel>  (209) 
-40.5648

>  <r_i_glide_energy>  (209) 
-32.3254

>  <r_i_glide_einternal>  (209) 
0.381052

>  <r_i_glide_intrahb_reward>  (209) 
-0

>  <i_i_glide_confnum>  (209) 
3

>  <i_i_glide_posenum>  (209) 
40

>  <r_i_glide_eff_state_penalty>  (209) 
0

>  <ligand_id>  (209) 
59

>  <original_smiles>  (209) 
C=CCOc1ccc2c(c1)ncn2-c1cn2cc(C)nc(-c3cnn(C)c3)c2n1

>  <smiles>  (209) 
[H]C([H])=C([H])C([H])([H])Oc1c([H])c([H])c2c(c1[H])[n+]([H])c([H])n2-c1nc2c(-c3c([H])nn(C([H])([H])[H])c3[H])nc(C([H])([H])[H])c([H])n2c1[H]

$$$$
59:1:1
     RDKit          3D

 49 53  0  0  1  0  0  0  0  0999 V2000
    0.7666   -7.7598    7.6751 C   0  0  0  0  0  0  0  0  0  0  0  0
    0.7729   -9.0874    7.4525 C   0  0  0  0  0  0  0  0  0  0  0  0
   -0.1237   -9.8375    6.4711 C   0  0  0  0  0  0  0  0  0  0  0  0
    0.6328  -10.5004    5.4458 O   0  0  0  0  0  0  0  0  0  0  0  0
    1.2624   -9.7494    4.4726 C   0  0  0  0  0  0  0  0  0  0  0  0
    1.1462   -8.3386    4.4404 C   0  0  0  0  0  0  0  0  0  0  0  0
    1.8184   -7.5350    3.5219 C   0  0  0  0  0  0  0  0  0  0  0  0
    2.5971   -8.1728    2.5795 C   0  0  0  0  0  0  0  0  0  0  0  0
    2.7147   -9.5855    2.5555 C   0  0  0  0  0  0  0  0  0  0  0  0
    2.0558  -10.4040    3.4880 C   0  0  0  0  0  0  0  0  0  0  0  0
    3.5416   -9.8590    1.4845 N   0  0  0  0  0  0  0  0  0  0  0  0
    3.9399   -8.7211    0.8888 C   0  0  0  0  0  0  0  0  0  0  0  0
    3.3658   -7.6535    1.5338 N   0  0  0  0  0  0  0  0  0  0  0  0
    3.5063   -6.2868    1.2074 C   0  0  0  0  0  0  0  0  0  0  0  0
    4.3452   -5.8836    0.2057 C   0  0  0  0  0  0  0  0  0  0  0  0
    4.2641   -4.5077    0.1639 N   0  0  0  0  0  0  0  0  0  0  0  0
    4.8835   -3.5921   -0.6235 C   0  0  0  0  0  0  0  0  0  0  0  0
    4.5827   -2.2732   -0.3968 C   0  0  0  0  0  0  0  0  0  0  0  0
    5.2091   -1.1799   -1.2142 C   0  0  0  0  0  0  0  0  0  0  0  0
    3.7124   -1.8438    0.5791 N   0  0  0  0  0  0  0  0  0  0  0  0
    3.1179   -2.7306    1.3306 C   0  0  0  0  0  0  0  0  0  0  0  0
    2.1891   -2.2144    2.3658 C   0  0  0  0  0  0  0  0  0  0  0  0
    1.6668   -2.9133    3.4926 C   0  0  0  0  0  0  0  0  0  0  0  0
    0.8369   -2.1636    4.1938 N   0  0  0  0  0  0  0  0  0  0  0  0
    0.8183   -0.9783    3.5499 N   0  0  0  0  0  0  0  0  0  0  0  0
    0.0010    0.1022    4.0722 C   0  0  0  0  0  0  0  0  0  0  0  0
    1.6202   -0.9795    2.4229 C   0  0  0  0  0  0  0  0  0  0  0  0
    3.3489   -4.1378    1.1743 C   0  0  0  0  0  0  0  0  0  0  0  0
    2.8769   -5.2176    1.7876 N   0  0  0  0  0  0  0  0  0  0  0  0
    0.0856   -7.0955    7.1704 H   0  0  0  0  0  0  0  0  0  0  0  0
    1.4520   -7.3035    8.3750 H   0  0  0  0  0  0  0  0  0  0  0  0
    1.4688   -9.7058    8.0046 H   0  0  0  0  0  0  0  0  0  0  0  0
   -0.7101  -10.5728    7.0317 H   0  0  0  0  0  0  0  0  0  0  0  0
   -0.8840   -9.1961    6.0263 H   0  0  0  0  0  0  0  0  0  0  0  0
    0.5510   -7.7634    5.1256 H   0  0  0  0  0  0  0  0  0  0  0  0
    1.7134   -6.4656    3.5871 H   0  0  0  0  0  0  0  0  0  0  0  0
    2.1525  -11.4932    3.4759 H   0  0  0  0  0  0  0  0  0  0  0  0
    4.5708   -8.6674    0.0023 H   0  0  0  0  0  0  0  0  0  0  0  0
    4.9866   -6.4109   -0.4888 H   0  0  0  0  0  0  0  0  0  0  0  0
    5.5681   -3.9563   -1.3888 H   0  0  0  0  0  0  0  0  0  0  0  0
    5.8810   -1.5841   -1.9716 H   0  0  0  0  0  0  0  0  0  0  0  0
    5.7711   -0.5145   -0.5652 H   0  0  0  0  0  0  0  0  0  0  0  0
    4.4393   -0.5985   -1.7132 H   0  0  0  0  0  0  0  0  0  0  0  0
    1.8428   -3.9334    3.8299 H   0  0  0  0  0  0  0  0  0  0  0  0
    0.1326    0.9926    3.4608 H   0  0  0  0  0  0  0  0  0  0  0  0
    0.2993    0.3312    5.0953 H   0  0  0  0  0  0  0  0  0  0  0  0
   -1.0504   -0.1835    4.0584 H   0  0  0  0  0  0  0  0  0  0  0  0
    1.7094   -0.1245    1.7601 H   0  0  0  0  0  0  0  0  0  0  0  0
    3.7825  -10.8014    1.1329 H   0  0  0  0  0  0  0  0  0  0  0  0
  1  2  2  0
  1 30  1  0
  1 31  1  0
  2  3  1  0
  2 32  1  0
  3  4  1  0
  3 33  1  0
  3 34  1  0
  4  5  1  0
  5 10  2  0
  5  6  1  0
  6  7  2  0
  6 35  1  0
  7  8  1  0
  7 36  1  0
  8 13  1  0
  8  9  2  0
  9 10  1  0
  9 11  1  0
 10 37  1  0
 11 12  2  0
 11 49  1  0
 12 13  1  0
 12 38  1  0
 13 14  1  0
 14 29  1  0
 14 15  2  0
 15 16  1  0
 15 39  1  0
 16 28  1  0
 16 17  1  0
 17 18  2  0
 17 40  1  0
 18 19  1  0
 18 20  1  0
 19 41  1  0
 19 42  1  0
 19 43  1  0
 20 21  2  0
 21 22  1  0
 21 28  1  0
 22 27  2  0
 22 23  1  0
 23 24  2  0
 23 44  1  0
 24 25  1  0
 25 26  1  0
 25 27  1  0
 26 45  1  0
 26 46  1  0
 26 47  1  0
 27 48  1  0
 28 29  2  0
M  CHG  1  11   1
M  END
>  <i_m_ct_stereo_status>  (210) 
1

>  <s_m_source_file>  (210) 
/var/tmp/pbs.5076255.sched01/tmp4185l44a/86vs10_z9v.sdf

>  <i_m_source_file_index>  (210) 
4

>  <i_lp_mmshare_version>  (210) 
48012

>  <i_f3d_flags>  (210) 
0

>  <s_epik_input>  (210) 
W0NIMl09W0NIXVtDSDJdT2MoW2NIXVtjSF0xKVtjSF1jKGMxMiluW2NIXW4yLWMoW2NIXTMpbmMobjM0KWMobmMoW2NIXTQpW0NIM10pLWM1W2NIXW5uKFtDSDNdKVtjSF01

>  <s_epik_cmdline>  (210) 
J2VwaWtfcHl0aG9uJywgJy1waHQnLCAnMi4wJywgJy1waCcsICc3LjAnLCAnLXRuJywgJzgnLCAnLW1hJywgJzIwMCcsICctaW1hZScsICc8aW5maWxlLm1hZT4nLCAnLW9tYWUnLCAnPG91dGZpbGUubWFlPic=

>  <r_lp_tautomer_probability>  (210) 
1

>  <r_epik_Ionization_Penalty>  (210) 
1.95727

>  <r_epik_Ionization_Penalty_Charging>  (210) 
1.95714

>  <r_epik_Ionization_Penalty_Neutral>  (210) 
0.000129287

>  <r_epik_State_Penalty>  (210) 
2.08264

>  <r_epik_Charging_Adjusted_Penalty>  (210) 
4.03979

>  <i_epik_Tot_Q>  (210) 
1

>  <i_epik_Tot_abs_Q>  (210) 
1

>  <s_lp_Force_Field>  (210) 
OPLS3e

>  <r_lp_Energy>  (210) 
34.1099

>  <b_lp_Chiralities_Consistent>  (210) 
1

>  <s_lp_Variant>  (210) 
59:0-2

>  <s_i_glide_gridfile>  (210) 
pfpi4k_grid

>  <i_i_glide_lignum>  (210) 
4

>  <i_i_glide_rotatable_bonds>  (210) 
5

>  <r_i_docking_score>  (210) 
-3.0483

>  <r_i_glide_ligand_efficiency>  (210) 
-0.105114

>  <r_i_glide_ligand_efficiency_sa>  (210) 
-0.322943

>  <r_i_glide_ligand_efficiency_ln>  (210) 
-0.697983

>  <r_i_glide_gscore>  (210) 
-3.0483

>  <r_i_glide_lipo>  (210) 
-0.174319

>  <r_i_glide_hbond>  (210) 
-0.2

>  <r_i_glide_metal>  (210) 
-0

>  <r_i_glide_rewards>  (210) 
-0.889611

>  <r_i_glide_evdw>  (210) 
-29.8171

>  <r_i_glide_ecoul>  (210) 
-5.30108

>  <r_i_glide_erotb>  (210) 
0.651696

>  <r_i_glide_esite>  (210) 
-0.150047

>  <r_i_glide_emodel>  (210) 
-40.7435

>  <r_i_glide_energy>  (210) 
-35.1182

>  <r_i_glide_einternal>  (210) 
4.31969

>  <r_i_glide_intrahb_reward>  (210) 
-0

>  <i_i_glide_confnum>  (210) 
4

>  <i_i_glide_posenum>  (210) 
13

>  <r_i_glide_eff_state_penalty>  (210) 
0

>  <ligand_id>  (210) 
59

>  <original_smiles>  (210) 
C=CCOc1ccc2c(c1)ncn2-c1cn2cc(C)nc(-c3cnn(C)c3)c2n1

>  <smiles>  (210) 
[H]C([H])=C([H])C([H])([H])Oc1c([H])c([H])c2c(c1[H])[n+]([H])c([H])n2-c1nc2c(-c3c([H])nn(C([H])([H])[H])c3[H])nc(C([H])([H])[H])c([H])n2c1[H]

$$$$
59:1:2
     RDKit          3D

 49 53  0  0  1  0  0  0  0  0999 V2000
    2.6206   -3.0515   -3.8218 C   0  0  0  0  0  0  0  0  0  0  0  0
    3.8780   -2.5888   -3.8283 C   0  0  0  0  0  0  0  0  0  0  0  0
    5.0507   -3.2720   -3.1555 C   0  0  0  0  0  0  0  0  0  0  0  0
    5.5536   -2.4382   -2.1092 O   0  0  0  0  0  0  0  0  0  0  0  0
    4.8151   -2.3960   -0.9474 C   0  0  0  0  0  0  0  0  0  0  0  0
    4.2825   -3.5692   -0.3647 C   0  0  0  0  0  0  0  0  0  0  0  0
    3.4965   -3.5207    0.7997 C   0  0  0  0  0  0  0  0  0  0  0  0
    3.2764   -2.2716    1.3823 C   0  0  0  0  0  0  0  0  0  0  0  0
    3.8320   -1.1028    0.8231 C   0  0  0  0  0  0  0  0  0  0  0  0
    4.6149   -1.1370   -0.3288 C   0  0  0  0  0  0  0  0  0  0  0  0
    3.4345   -0.0408    1.6322 N   0  0  0  0  0  0  0  0  0  0  0  0
    2.6708   -0.5186    2.6489 C   0  0  0  0  0  0  0  0  0  0  0  0
    2.5662   -1.8762    2.5269 N   0  0  0  0  0  0  0  0  0  0  0  0
    1.8660   -2.7369    3.4056 C   0  0  0  0  0  0  0  0  0  0  0  0
    1.2289   -2.2606    4.5206 C   0  0  0  0  0  0  0  0  0  0  0  0
    0.6723   -3.3647    5.1468 N   0  0  0  0  0  0  0  0  0  0  0  0
   -0.0706   -3.4805    6.2813 C   0  0  0  0  0  0  0  0  0  0  0  0
   -0.4812   -4.7434    6.6228 C   0  0  0  0  0  0  0  0  0  0  0  0
   -1.3002   -4.9812    7.8753 C   0  0  0  0  0  0  0  0  0  0  0  0
   -0.1865   -5.8640    5.8863 N   0  0  0  0  0  0  0  0  0  0  0  0
    0.5431   -5.7520    4.8096 C   0  0  0  0  0  0  0  0  0  0  0  0
    0.8213   -6.9980    4.0667 C   0  0  0  0  0  0  0  0  0  0  0  0
    0.0782   -8.2113    4.1325 C   0  0  0  0  0  0  0  0  0  0  0  0
    0.5784   -9.1324    3.3232 N   0  0  0  0  0  0  0  0  0  0  0  0
    1.6495   -8.5491    2.7369 N   0  0  0  0  0  0  0  0  0  0  0  0
    2.4477   -9.3231    1.8042 C   0  0  0  0  0  0  0  0  0  0  0  0
    1.8172   -7.2435    3.1553 C   0  0  0  0  0  0  0  0  0  0  0  0
    1.0165   -4.4865    4.3599 C   0  0  0  0  0  0  0  0  0  0  0  0
    1.7320   -4.1090    3.3040 N   0  0  0  0  0  0  0  0  0  0  0  0
    2.3428   -3.9690   -3.3295 H   0  0  0  0  0  0  0  0  0  0  0  0
    1.8359   -2.4988   -4.3175 H   0  0  0  0  0  0  0  0  0  0  0  0
    4.1058   -1.6574   -4.3215 H   0  0  0  0  0  0  0  0  0  0  0  0
    4.7818   -4.2784   -2.8418 H   0  0  0  0  0  0  0  0  0  0  0  0
    5.8366   -3.4381   -3.8886 H   0  0  0  0  0  0  0  0  0  0  0  0
    4.4647   -4.5429   -0.7918 H   0  0  0  0  0  0  0  0  0  0  0  0
    3.0939   -4.4313    1.2124 H   0  0  0  0  0  0  0  0  0  0  0  0
    5.0264   -0.2418   -0.7691 H   0  0  0  0  0  0  0  0  0  0  0  0
    2.2283    0.0852    3.4272 H   0  0  0  0  0  0  0  0  0  0  0  0
    1.1062   -1.2768    4.9515 H   0  0  0  0  0  0  0  0  0  0  0  0
   -0.2788   -2.5827    6.8501 H   0  0  0  0  0  0  0  0  0  0  0  0
   -1.5098   -4.0550    8.4081 H   0  0  0  0  0  0  0  0  0  0  0  0
   -0.7683   -5.6499    8.5510 H   0  0  0  0  0  0  0  0  0  0  0  0
   -2.2495   -5.4434    7.6141 H   0  0  0  0  0  0  0  0  0  0  0  0
   -0.7950   -8.4370    4.7260 H   0  0  0  0  0  0  0  0  0  0  0  0
    3.2350   -8.7075    1.3666 H   0  0  0  0  0  0  0  0  0  0  0  0
    1.8172   -9.7070    1.0035 H   0  0  0  0  0  0  0  0  0  0  0  0
    2.9081  -10.1702    2.3156 H   0  0  0  0  0  0  0  0  0  0  0  0
    2.6210   -6.6261    2.7779 H   0  0  0  0  0  0  0  0  0  0  0  0
    3.6539    0.9383    1.5038 H   0  0  0  0  0  0  0  0  0  0  0  0
  1  2  2  0
  1 30  1  0
  1 31  1  0
  2  3  1  0
  2 32  1  0
  3  4  1  0
  3 33  1  0
  3 34  1  0
  4  5  1  0
  5 10  2  0
  5  6  1  0
  6  7  2  0
  6 35  1  0
  7  8  1  0
  7 36  1  0
  8 13  1  0
  8  9  2  0
  9 10  1  0
  9 11  1  0
 10 37  1  0
 11 12  2  0
 11 49  1  0
 12 13  1  0
 12 38  1  0
 13 14  1  0
 14 29  1  0
 14 15  2  0
 15 16  1  0
 15 39  1  0
 16 28  1  0
 16 17  1  0
 17 18  2  0
 17 40  1  0
 18 19  1  0
 18 20  1  0
 19 41  1  0
 19 42  1  0
 19 43  1  0
 20 21  2  0
 21 22  1  0
 21 28  1  0
 22 27  2  0
 22 23  1  0
 23 24  2  0
 23 44  1  0
 24 25  1  0
 25 26  1  0
 25 27  1  0
 26 45  1  0
 26 46  1  0
 26 47  1  0
 27 48  1  0
 28 29  2  0
M  CHG  1  11   1
M  END
>  <i_m_ct_stereo_status>  (211) 
1

>  <s_m_source_file>  (211) 
/var/tmp/pbs.5076255.sched01/tmp4185l44a/86vs10_z9v.sdf

>  <i_m_source_file_index>  (211) 
4

>  <i_lp_mmshare_version>  (211) 
48012

>  <i_f3d_flags>  (211) 
0

>  <s_epik_input>  (211) 
W0NIMl09W0NIXVtDSDJdT2MoW2NIXVtjSF0xKVtjSF1jKGMxMiluW2NIXW4yLWMoW2NIXTMpbmMobjM0KWMobmMoW2NIXTQpW0NIM10pLWM1W2NIXW5uKFtDSDNdKVtjSF01

>  <s_epik_cmdline>  (211) 
J2VwaWtfcHl0aG9uJywgJy1waHQnLCAnMi4wJywgJy1waCcsICc3LjAnLCAnLXRuJywgJzgnLCAnLW1hJywgJzIwMCcsICctaW1hZScsICc8aW5maWxlLm1hZT4nLCAnLW9tYWUnLCAnPG91dGZpbGUubWFlPic=

>  <r_lp_tautomer_probability>  (211) 
1

>  <r_epik_Ionization_Penalty>  (211) 
1.95727

>  <r_epik_Ionization_Penalty_Charging>  (211) 
1.95714

>  <r_epik_Ionization_Penalty_Neutral>  (211) 
0.000129287

>  <r_epik_State_Penalty>  (211) 
2.08264

>  <r_epik_Charging_Adjusted_Penalty>  (211) 
4.03979

>  <i_epik_Tot_Q>  (211) 
1

>  <i_epik_Tot_abs_Q>  (211) 
1

>  <s_lp_Force_Field>  (211) 
OPLS3e

>  <r_lp_Energy>  (211) 
34.1099

>  <b_lp_Chiralities_Consistent>  (211) 
1

>  <s_lp_Variant>  (211) 
59:0-2

>  <s_i_glide_gridfile>  (211) 
pfpi4k_grid

>  <i_i_glide_lignum>  (211) 
4

>  <i_i_glide_rotatable_bonds>  (211) 
5

>  <r_i_docking_score>  (211) 
-2.9032

>  <r_i_glide_ligand_efficiency>  (211) 
-0.10011

>  <r_i_glide_ligand_efficiency_sa>  (211) 
-0.307571

>  <r_i_glide_ligand_efficiency_ln>  (211) 
-0.66476

>  <r_i_glide_gscore>  (211) 
-2.9032

>  <r_i_glide_lipo>  (211) 
-0.577355

>  <r_i_glide_hbond>  (211) 
0

>  <r_i_glide_metal>  (211) 
-0

>  <r_i_glide_rewards>  (211) 
-0.79836

>  <r_i_glide_evdw>  (211) 
-34.4195

>  <r_i_glide_ecoul>  (211) 
-2.8467

>  <r_i_glide_erotb>  (211) 
0.651696

>  <r_i_glide_esite>  (211) 
-0.0312037

>  <r_i_glide_emodel>  (211) 
-42.3616

>  <r_i_glide_energy>  (211) 
-37.2662

>  <r_i_glide_einternal>  (211) 
5.48631

>  <r_i_glide_intrahb_reward>  (211) 
-0

>  <i_i_glide_confnum>  (211) 
4

>  <i_i_glide_posenum>  (211) 
26

>  <r_i_glide_eff_state_penalty>  (211) 
0

>  <ligand_id>  (211) 
59

>  <original_smiles>  (211) 
C=CCOc1ccc2c(c1)ncn2-c1cn2cc(C)nc(-c3cnn(C)c3)c2n1

>  <smiles>  (211) 
[H]C([H])=C([H])C([H])([H])Oc1c([H])c([H])c2c(c1[H])[n+]([H])c([H])n2-c1nc2c(-c3c([H])nn(C([H])([H])[H])c3[H])nc(C([H])([H])[H])c([H])n2c1[H]

$$$$
60:0:0
     RDKit          3D

 38 41  0  0  1  0  0  0  0  0999 V2000
    1.8164    2.9452    2.0837 O   0  0  0  0  0  0  0  0  0  0  0  0
    1.2482    2.0317    2.9960 C   0  0  2  0  0  0  0  0  0  0  0  0
    1.0593    2.7530    4.3534 C   0  0  0  0  0  0  0  0  0  0  0  0
    0.4589    1.7702    5.3820 C   0  0  1  0  0  0  0  0  0  0  0  0
   -0.9060    1.2595    4.8704 C   0  0  0  0  0  0  0  0  0  0  0  0
   -0.7118    0.5462    3.5173 C   0  0  2  0  0  0  0  0  0  0  0  0
    0.2410   -0.6546    3.7037 C   0  0  0  0  0  0  0  0  0  0  0  0
    1.6066   -0.1453    4.2190 C   0  0  2  0  0  0  0  0  0  0  0  0
    1.4213    0.5800    5.5702 C   0  0  0  0  0  0  0  0  0  0  0  0
    2.2195    0.8414    3.1905 C   0  0  1  0  0  0  0  0  0  0  0  0
    2.4724    0.1599    1.9081 N   0  0  0  0  0  0  0  0  0  0  0  0
    3.6026   -0.4988    1.5750 C   0  0  0  0  0  0  0  0  0  0  0  0
    4.9224   -0.6882    2.5893 S   0  0  0  0  0  0  0  0  0  0  0  0
    3.4289   -0.9825    0.3151 N   0  0  0  0  0  0  0  0  0  0  0  0
    4.3474   -1.5941   -0.5928 C   0  0  0  0  0  0  0  0  0  0  0  0
    5.6780   -1.6116   -0.4217 N   0  0  0  0  0  0  0  0  0  0  0  0
    6.3331   -2.2657   -1.4565 N   0  0  0  0  0  0  0  0  0  0  0  0
    5.4781   -2.7210   -2.3808 C   0  0  0  0  0  0  0  0  0  0  0  0
    3.7837   -2.3497   -2.0832 S   0  0  0  0  0  0  0  0  0  0  0  0
   -0.1198    1.5310    2.4841 C   0  0  0  0  0  0  0  0  0  0  0  0
    1.1278    3.4967    1.6888 H   0  0  0  0  0  0  0  0  0  0  0  0
    2.0114    3.1399    4.7188 H   0  0  0  0  0  0  0  0  0  0  0  0
    0.4034    3.6141    4.2322 H   0  0  0  0  0  0  0  0  0  0  0  0
    0.3225    2.2769    6.3357 H   0  0  0  0  0  0  0  0  0  0  0  0
   -1.3519    0.5788    5.5968 H   0  0  0  0  0  0  0  0  0  0  0  0
   -1.6014    2.0918    4.7589 H   0  0  0  0  0  0  0  0  0  0  0  0
   -1.6765    0.1923    3.1581 H   0  0  0  0  0  0  0  0  0  0  0  0
   -0.1829   -1.3865    4.3921 H   0  0  0  0  0  0  0  0  0  0  0  0
    0.3660   -1.1763    2.7552 H   0  0  0  0  0  0  0  0  0  0  0  0
    2.2727   -0.9967    4.3705 H   0  0  0  0  0  0  0  0  0  0  0  0
    2.3859    0.9302    5.9397 H   0  0  0  0  0  0  0  0  0  0  0  0
    1.0343   -0.1082    6.3227 H   0  0  0  0  0  0  0  0  0  0  0  0
    3.1474    1.2461    3.5916 H   0  0  0  0  0  0  0  0  0  0  0  0
    1.7292    0.1962    1.2295 H   0  0  0  0  0  0  0  0  0  0  0  0
    5.8719   -3.2321   -3.2494 H   0  0  0  0  0  0  0  0  0  0  0  0
   -0.7940    2.3742    2.3371 H   0  0  0  0  0  0  0  0  0  0  0  0
   -0.0266    1.0513    1.5086 H   0  0  0  0  0  0  0  0  0  0  0  0
    2.4952   -0.8958   -0.0678 H   0  0  0  0  0  0  0  0  0  0  0  0
  2  1  1  6
  1 21  1  0
  2 10  1  0
  2 20  1  0
  2  3  1  0
  3  4  1  0
  3 22  1  0
  3 23  1  0
  4  9  1  0
  4  5  1  0
  4 24  1  1
  5  6  1  0
  5 25  1  0
  5 26  1  0
  6  7  1  0
  6 20  1  0
  6 27  1  6
  7  8  1  0
  7 28  1  0
  7 29  1  0
  8  9  1  0
  8 10  1  0
  8 30  1  1
  9 31  1  0
  9 32  1  0
 10 11  1  0
 10 33  1  1
 11 12  1  0
 11 34  1  0
 12 13  2  0
 12 14  1  0
 14 15  1  0
 14 38  1  0
 15 19  1  0
 15 16  2  0
 16 17  1  0
 17 18  2  0
 18 19  1  0
 18 35  1  0
 20 36  1  0
 20 37  1  0
M  END
>  <i_m_ct_stereo_status>  (212) 
1

>  <s_m_source_file>  (212) 
/var/tmp/pbs.5076255.sched01/tmp4185l44a/86vs10_z9v.sdf

>  <i_m_source_file_index>  (212) 
5

>  <i_lp_mmshare_version>  (212) 
48012

>  <i_f3d_flags>  (212) 
0

>  <s_epik_input>  (212) 
W09IXVtDQF0xMltDSDJdW0NASF0zW0NIMl1bQ0BASF0oW0NIMl0yKVtDSDJdW0NASF0oW0NIMl0zKVtDQEhdMVtOSF1DKD1TKS9OPWM0XFtuSF1uW2NIXXM0

>  <s_epik_cmdline>  (212) 
J2VwaWtfcHl0aG9uJywgJy1waHQnLCAnMi4wJywgJy1waCcsICc3LjAnLCAnLXRuJywgJzgnLCAnLW1hJywgJzIwMCcsICctaW1hZScsICc8aW5maWxlLm1hZT4nLCAnLW9tYWUnLCAnPG91dGZpbGUubWFlPic=

>  <r_lp_tautomer_probability>  (212) 
1

>  <r_epik_Ionization_Penalty>  (212) 
2.77107e-05

>  <r_epik_Ionization_Penalty_Charging>  (212) 
0

>  <r_epik_Ionization_Penalty_Neutral>  (212) 
2.77107e-05

>  <r_epik_State_Penalty>  (212) 
-0

>  <r_epik_Charging_Adjusted_Penalty>  (212) 
0

>  <i_epik_Tot_Q>  (212) 
0

>  <i_epik_Tot_abs_Q>  (212) 
0

>  <s_lp_Force_Field>  (212) 
OPLS3e

>  <r_lp_Energy>  (212) 
12.3015

>  <b_lp_Chiralities_Consistent>  (212) 
1

>  <s_lp_Variant>  (212) 
60:0-1

>  <s_i_glide_gridfile>  (212) 
pfpi4k_grid

>  <i_i_glide_lignum>  (212) 
5

>  <i_i_glide_rotatable_bonds>  (212) 
5

>  <r_i_docking_score>  (212) 
-4.3345

>  <r_i_glide_ligand_efficiency>  (212) 
-0.216725

>  <r_i_glide_ligand_efficiency_sa>  (212) 
-0.588282

>  <r_i_glide_ligand_efficiency_ln>  (212) 
-1.08478

>  <r_i_glide_gscore>  (212) 
-4.3345

>  <r_i_glide_lipo>  (212) 
-0.108663

>  <r_i_glide_hbond>  (212) 
-0.304

>  <r_i_glide_metal>  (212) 
-0

>  <r_i_glide_rewards>  (212) 
-1.44684

>  <r_i_glide_evdw>  (212) 
-27.312

>  <r_i_glide_ecoul>  (212) 
-10.026

>  <r_i_glide_erotb>  (212) 
0.576845

>  <r_i_glide_esite>  (212) 
-0.182343

>  <r_i_glide_emodel>  (212) 
-48.0204

>  <r_i_glide_energy>  (212) 
-37.338

>  <r_i_glide_einternal>  (212) 
1.97599

>  <r_i_glide_intrahb_reward>  (212) 
-0

>  <i_i_glide_confnum>  (212) 
4

>  <i_i_glide_posenum>  (212) 
37

>  <r_i_glide_eff_state_penalty>  (212) 
0

>  <ligand_id>  (212) 
60

>  <original_smiles>  (212) 
OC12CC3CC(CC(C3)C1NC(=S)N=c1[nH]ncs1)C2

>  <smiles>  (212) 
[H]OC12C([H])([H])C3([H])C([H])([H])C([H])(C([H])([H])C([H])(C3([H])[H])C1([H])N([H])C(=S)N([H])c1nnc([H])s1)C2([H])[H]

$$$$
60:0:1
     RDKit          3D

 38 41  0  0  1  0  0  0  0  0999 V2000
    2.5534    0.7868    1.2825 O   0  0  0  0  0  0  0  0  0  0  0  0
    1.7679    0.9401    2.4321 C   0  0  2  0  0  0  0  0  0  0  0  0
    1.8763    2.4120    2.8837 C   0  0  0  0  0  0  0  0  0  0  0  0
    1.0053    2.6148    4.1401 C   0  0  1  0  0  0  0  0  0  0  0  0
   -0.4652    2.2764    3.8130 C   0  0  0  0  0  0  0  0  0  0  0  0
   -0.5660    0.8086    3.3457 C   0  0  2  0  0  0  0  0  0  0  0  0
   -0.0689   -0.1270    4.4692 C   0  0  0  0  0  0  0  0  0  0  0  0
    1.4035    0.2136    4.8065 C   0  0  2  0  0  0  0  0  0  0  0  0
    1.5133    1.6868    5.2636 C   0  0  0  0  0  0  0  0  0  0  0  0
    2.2919    0.0137    3.5618 C   0  0  1  0  0  0  0  0  0  0  0  0
    2.2771   -1.3958    3.1611 N   0  0  0  0  0  0  0  0  0  0  0  0
    3.3332   -2.1058    2.6764 C   0  0  0  0  0  0  0  0  0  0  0  0
    4.8960   -1.5118    2.5354 S   0  0  0  0  0  0  0  0  0  0  0  0
    2.8641   -3.3308    2.3175 N   0  0  0  0  0  0  0  0  0  0  0  0
    3.5104   -4.4306    1.6822 C   0  0  0  0  0  0  0  0  0  0  0  0
    4.8363   -4.6286    1.6816 N   0  0  0  0  0  0  0  0  0  0  0  0
    5.2034   -5.7509    0.9491 N   0  0  0  0  0  0  0  0  0  0  0  0
    4.1312   -6.3951    0.4808 C   0  0  0  0  0  0  0  0  0  0  0  0
    2.5699   -5.6870    0.8790 S   0  0  0  0  0  0  0  0  0  0  0  0
    0.3002    0.6175    2.0848 C   0  0  0  0  0  0  0  0  0  0  0  0
    2.1603    0.1125    0.7362 H   0  0  0  0  0  0  0  0  0  0  0  0
    2.9154    2.6780    3.0893 H   0  0  0  0  0  0  0  0  0  0  0  0
    1.5460    3.0757    2.0840 H   0  0  0  0  0  0  0  0  0  0  0  0
    1.0741    3.6530    4.4644 H   0  0  0  0  0  0  0  0  0  0  0  0
   -1.0952    2.4370    4.6889 H   0  0  0  0  0  0  0  0  0  0  0  0
   -0.8371    2.9425    3.0333 H   0  0  0  0  0  0  0  0  0  0  0  0
   -1.6024    0.5736    3.1083 H   0  0  0  0  0  0  0  0  0  0  0  0
   -0.6905   -0.0257    5.3596 H   0  0  0  0  0  0  0  0  0  0  0  0
   -0.1651   -1.1665    4.1530 H   0  0  0  0  0  0  0  0  0  0  0  0
    1.7605   -0.4320    5.6103 H   0  0  0  0  0  0  0  0  0  0  0  0
    2.5506    1.9302    5.5055 H   0  0  0  0  0  0  0  0  0  0  0  0
    0.9378    1.8463    6.1762 H   0  0  0  0  0  0  0  0  0  0  0  0
    3.2934    0.3349    3.8430 H   0  0  0  0  0  0  0  0  0  0  0  0
    1.3735   -1.8406    3.1600 H   0  0  0  0  0  0  0  0  0  0  0  0
    4.2720   -7.2880   -0.1178 H   0  0  0  0  0  0  0  0  0  0  0  0
   -0.0535    1.2671    1.2823 H   0  0  0  0  0  0  0  0  0  0  0  0
    0.2134   -0.4007    1.7083 H   0  0  0  0  0  0  0  0  0  0  0  0
    1.8764   -3.4732    2.4520 H   0  0  0  0  0  0  0  0  0  0  0  0
  2  1  1  6
  1 21  1  0
  2 10  1  0
  2 20  1  0
  2  3  1  0
  3  4  1  0
  3 22  1  0
  3 23  1  0
  4  9  1  0
  4  5  1  0
  4 24  1  1
  5  6  1  0
  5 25  1  0
  5 26  1  0
  6  7  1  0
  6 20  1  0
  6 27  1  6
  7  8  1  0
  7 28  1  0
  7 29  1  0
  8  9  1  0
  8 10  1  0
  8 30  1  1
  9 31  1  0
  9 32  1  0
 10 11  1  0
 10 33  1  1
 11 12  1  0
 11 34  1  0
 12 13  2  0
 12 14  1  0
 14 15  1  0
 14 38  1  0
 15 19  1  0
 15 16  2  0
 16 17  1  0
 17 18  2  0
 18 19  1  0
 18 35  1  0
 20 36  1  0
 20 37  1  0
M  END
>  <i_m_ct_stereo_status>  (213) 
1

>  <s_m_source_file>  (213) 
/var/tmp/pbs.5076255.sched01/tmp4185l44a/86vs10_z9v.sdf

>  <i_m_source_file_index>  (213) 
5

>  <i_lp_mmshare_version>  (213) 
48012

>  <i_f3d_flags>  (213) 
0

>  <s_epik_input>  (213) 
W09IXVtDQF0xMltDSDJdW0NASF0zW0NIMl1bQ0BASF0oW0NIMl0yKVtDSDJdW0NASF0oW0NIMl0zKVtDQEhdMVtOSF1DKD1TKS9OPWM0XFtuSF1uW2NIXXM0

>  <s_epik_cmdline>  (213) 
J2VwaWtfcHl0aG9uJywgJy1waHQnLCAnMi4wJywgJy1waCcsICc3LjAnLCAnLXRuJywgJzgnLCAnLW1hJywgJzIwMCcsICctaW1hZScsICc8aW5maWxlLm1hZT4nLCAnLW9tYWUnLCAnPG91dGZpbGUubWFlPic=

>  <r_lp_tautomer_probability>  (213) 
1

>  <r_epik_Ionization_Penalty>  (213) 
2.77107e-05

>  <r_epik_Ionization_Penalty_Charging>  (213) 
0

>  <r_epik_Ionization_Penalty_Neutral>  (213) 
2.77107e-05

>  <r_epik_State_Penalty>  (213) 
-0

>  <r_epik_Charging_Adjusted_Penalty>  (213) 
0

>  <i_epik_Tot_Q>  (213) 
0

>  <i_epik_Tot_abs_Q>  (213) 
0

>  <s_lp_Force_Field>  (213) 
OPLS3e

>  <r_lp_Energy>  (213) 
12.3015

>  <b_lp_Chiralities_Consistent>  (213) 
1

>  <s_lp_Variant>  (213) 
60:0-1

>  <s_i_glide_gridfile>  (213) 
pfpi4k_grid

>  <i_i_glide_lignum>  (213) 
5

>  <i_i_glide_rotatable_bonds>  (213) 
5

>  <r_i_docking_score>  (213) 
-2.84342

>  <r_i_glide_ligand_efficiency>  (213) 
-0.142171

>  <r_i_glide_ligand_efficiency_sa>  (213) 
-0.385911

>  <r_i_glide_ligand_efficiency_ln>  (213) 
-0.711614

>  <r_i_glide_gscore>  (213) 
-2.84342

>  <r_i_glide_lipo>  (213) 
-0.147033

>  <r_i_glide_hbond>  (213) 
-0.0308148

>  <r_i_glide_metal>  (213) 
-0

>  <r_i_glide_rewards>  (213) 
-1.39447

>  <r_i_glide_evdw>  (213) 
-23.1002

>  <r_i_glide_ecoul>  (213) 
-4.57731

>  <r_i_glide_erotb>  (213) 
0.576845

>  <r_i_glide_esite>  (213) 
-0.00633612

>  <r_i_glide_emodel>  (213) 
-34.5532

>  <r_i_glide_energy>  (213) 
-27.6775

>  <r_i_glide_einternal>  (213) 
1.39592

>  <r_i_glide_intrahb_reward>  (213) 
-0

>  <i_i_glide_confnum>  (213) 
4

>  <i_i_glide_posenum>  (213) 
3

>  <r_i_glide_eff_state_penalty>  (213) 
0

>  <ligand_id>  (213) 
60

>  <original_smiles>  (213) 
OC12CC3CC(CC(C3)C1NC(=S)N=c1[nH]ncs1)C2

>  <smiles>  (213) 
[H]OC12C([H])([H])C3([H])C([H])([H])C([H])(C([H])([H])C([H])(C3([H])[H])C1([H])N([H])C(=S)N([H])c1nnc([H])s1)C2([H])[H]

$$$$
60:0:2
     RDKit          3D

 38 41  0  0  1  0  0  0  0  0999 V2000
    1.8189    1.0705    2.7331 O   0  0  0  0  0  0  0  0  0  0  0  0
    0.8105    1.7374    3.4670 C   0  0  2  0  0  0  0  0  0  0  0  0
    1.2349    3.2148    3.6603 C   0  0  0  0  0  0  0  0  0  0  0  0
    0.1417    3.9681    4.4496 C   0  0  1  0  0  0  0  0  0  0  0  0
   -1.1984    3.9084    3.6824 C   0  0  0  0  0  0  0  0  0  0  0  0
   -1.6106    2.4363    3.4696 C   0  0  2  0  0  0  0  0  0  0  0  0
   -1.7896    1.7681    4.8462 C   0  0  0  0  0  0  0  0  0  0  0  0
   -0.4642    1.8395    5.6301 C   0  0  2  0  0  0  0  0  0  0  0  0
   -0.0291    3.3017    5.8246 C   0  0  0  0  0  0  0  0  0  0  0  0
    0.6402    1.0662    4.8609 C   0  0  1  0  0  0  0  0  0  0  0  0
    0.3012   -0.3495    4.7108 N   0  0  0  0  0  0  0  0  0  0  0  0
    0.3490   -1.3049    5.6758 C   0  0  0  0  0  0  0  0  0  0  0  0
    0.7064   -1.0411    7.2900 S   0  0  0  0  0  0  0  0  0  0  0  0
    0.0863   -2.4995    5.0826 N   0  0  0  0  0  0  0  0  0  0  0  0
    0.0710   -3.8014    5.6475 C   0  0  0  0  0  0  0  0  0  0  0  0
   -0.4686   -4.0799    6.8446 N   0  0  0  0  0  0  0  0  0  0  0  0
   -0.3469   -5.4304    7.1638 N   0  0  0  0  0  0  0  0  0  0  0  0
    0.2144   -6.1271    6.1709 C   0  0  0  0  0  0  0  0  0  0  0  0
    0.6418   -5.1979    4.7406 S   0  0  0  0  0  0  0  0  0  0  0  0
   -0.5188    1.6897    2.6710 C   0  0  0  0  0  0  0  0  0  0  0  0
    1.8635    1.4676    1.8735 H   0  0  0  0  0  0  0  0  0  0  0  0
    2.1911    3.2760    4.1845 H   0  0  0  0  0  0  0  0  0  0  0  0
    1.3917    3.6996    2.6946 H   0  0  0  0  0  0  0  0  0  0  0  0
    0.4366    5.0068    4.5890 H   0  0  0  0  0  0  0  0  0  0  0  0
   -1.9735    4.4365    4.2384 H   0  0  0  0  0  0  0  0  0  0  0  0
   -1.1011    4.4133    2.7232 H   0  0  0  0  0  0  0  0  0  0  0  0
   -2.5530    2.3946    2.9211 H   0  0  0  0  0  0  0  0  0  0  0  0
   -2.5732    2.2617    5.4186 H   0  0  0  0  0  0  0  0  0  0  0  0
   -2.1150    0.7361    4.7135 H   0  0  0  0  0  0  0  0  0  0  0  0
   -0.6388    1.4317    6.6242 H   0  0  0  0  0  0  0  0  0  0  0  0
    0.9061    3.3363    6.3853 H   0  0  0  0  0  0  0  0  0  0  0  0
   -0.7692    3.8345    6.4199 H   0  0  0  0  0  0  0  0  0  0  0  0
    1.5874    1.1363    5.3950 H   0  0  0  0  0  0  0  0  0  0  0  0
    0.0767   -0.6384    3.7726 H   0  0  0  0  0  0  0  0  0  0  0  0
    0.3533   -7.1976    6.2780 H   0  0  0  0  0  0  0  0  0  0  0  0
   -0.3942    2.1466    1.6875 H   0  0  0  0  0  0  0  0  0  0  0  0
   -0.8330    0.6644    2.4753 H   0  0  0  0  0  0  0  0  0  0  0  0
    0.0560   -2.4833    4.0792 H   0  0  0  0  0  0  0  0  0  0  0  0
  2  1  1  6
  1 21  1  0
  2 10  1  0
  2 20  1  0
  2  3  1  0
  3  4  1  0
  3 22  1  0
  3 23  1  0
  4  9  1  0
  4  5  1  0
  4 24  1  1
  5  6  1  0
  5 25  1  0
  5 26  1  0
  6  7  1  0
  6 20  1  0
  6 27  1  6
  7  8  1  0
  7 28  1  0
  7 29  1  0
  8  9  1  0
  8 10  1  0
  8 30  1  1
  9 31  1  0
  9 32  1  0
 10 11  1  0
 10 33  1  1
 11 12  1  0
 11 34  1  0
 12 13  2  0
 12 14  1  0
 14 15  1  0
 14 38  1  0
 15 19  1  0
 15 16  2  0
 16 17  1  0
 17 18  2  0
 18 19  1  0
 18 35  1  0
 20 36  1  0
 20 37  1  0
M  END
>  <i_m_ct_stereo_status>  (214) 
1

>  <s_m_source_file>  (214) 
/var/tmp/pbs.5076255.sched01/tmp4185l44a/86vs10_z9v.sdf

>  <i_m_source_file_index>  (214) 
5

>  <i_lp_mmshare_version>  (214) 
48012

>  <i_f3d_flags>  (214) 
0

>  <s_epik_input>  (214) 
W09IXVtDQF0xMltDSDJdW0NASF0zW0NIMl1bQ0BASF0oW0NIMl0yKVtDSDJdW0NASF0oW0NIMl0zKVtDQEhdMVtOSF1DKD1TKS9OPWM0XFtuSF1uW2NIXXM0

>  <s_epik_cmdline>  (214) 
J2VwaWtfcHl0aG9uJywgJy1waHQnLCAnMi4wJywgJy1waCcsICc3LjAnLCAnLXRuJywgJzgnLCAnLW1hJywgJzIwMCcsICctaW1hZScsICc8aW5maWxlLm1hZT4nLCAnLW9tYWUnLCAnPG91dGZpbGUubWFlPic=

>  <r_lp_tautomer_probability>  (214) 
1

>  <r_epik_Ionization_Penalty>  (214) 
2.77107e-05

>  <r_epik_Ionization_Penalty_Charging>  (214) 
0

>  <r_epik_Ionization_Penalty_Neutral>  (214) 
2.77107e-05

>  <r_epik_State_Penalty>  (214) 
-0

>  <r_epik_Charging_Adjusted_Penalty>  (214) 
0

>  <i_epik_Tot_Q>  (214) 
0

>  <i_epik_Tot_abs_Q>  (214) 
0

>  <s_lp_Force_Field>  (214) 
OPLS3e

>  <r_lp_Energy>  (214) 
12.3015

>  <b_lp_Chiralities_Consistent>  (214) 
1

>  <s_lp_Variant>  (214) 
60:0-1

>  <s_i_glide_gridfile>  (214) 
pfpi4k_grid

>  <i_i_glide_lignum>  (214) 
5

>  <i_i_glide_rotatable_bonds>  (214) 
5

>  <r_i_docking_score>  (214) 
-2.6428

>  <r_i_glide_ligand_efficiency>  (214) 
-0.13214

>  <r_i_glide_ligand_efficiency_sa>  (214) 
-0.358683

>  <r_i_glide_ligand_efficiency_ln>  (214) 
-0.661405

>  <r_i_glide_gscore>  (214) 
-2.6428

>  <r_i_glide_lipo>  (214) 
0

>  <r_i_glide_hbond>  (214) 
0

>  <r_i_glide_metal>  (214) 
-0

>  <r_i_glide_rewards>  (214) 
-1.29245

>  <r_i_glide_evdw>  (214) 
-22.2488

>  <r_i_glide_ecoul>  (214) 
-4.99951

>  <r_i_glide_erotb>  (214) 
0.576845

>  <r_i_glide_esite>  (214) 
-0.0648244

>  <r_i_glide_emodel>  (214) 
-33.6494

>  <r_i_glide_energy>  (214) 
-27.2483

>  <r_i_glide_einternal>  (214) 
1.13702

>  <r_i_glide_intrahb_reward>  (214) 
-0

>  <i_i_glide_confnum>  (214) 
4

>  <i_i_glide_posenum>  (214) 
24

>  <r_i_glide_eff_state_penalty>  (214) 
0

>  <ligand_id>  (214) 
60

>  <original_smiles>  (214) 
OC12CC3CC(CC(C3)C1NC(=S)N=c1[nH]ncs1)C2

>  <smiles>  (214) 
[H]OC12C([H])([H])C3([H])C([H])([H])C([H])(C([H])([H])C([H])(C3([H])[H])C1([H])N([H])C(=S)N([H])c1nnc([H])s1)C2([H])[H]

$$$$
61:0:0
     RDKit          3D

 83 88  0  0  1  0  0  0  0  0999 V2000
    3.9336    7.6282    3.2339 C   0  0  0  0  0  0  0  0  0  0  0  0
    3.7974    6.3252    2.9286 C   0  0  0  0  0  0  0  0  0  0  0  0
    2.5460    5.4857    3.1330 C   0  0  0  0  0  0  0  0  0  0  0  0
    2.3260    4.8690    4.5569 C   0  0  2  0  0  0  0  0  0  0  0  0
    3.4490    3.8147    4.8634 C   0  0  0  0  0  0  0  0  0  0  0  0
    3.2090    2.6915    5.9414 C   0  0  1  0  0  0  0  0  0  0  0  0
    3.1212    3.2825    7.4341 C   0  0  0  0  0  0  0  0  0  0  0  0
    3.1848    2.2323    8.5624 C   0  0  0  0  0  0  0  0  0  0  0  0
    4.3566    4.1732    7.7381 C   0  0  0  0  0  0  0  0  0  0  0  0
    1.9695    4.0565    7.8344 O   0  0  0  0  0  0  0  0  0  0  0  0
    0.8325    4.3949    7.0231 C   0  0  2  0  0  0  0  0  0  0  0  0
   -0.3819    4.3498    7.9678 C   0  0  0  0  0  0  0  0  0  0  0  0
   -0.7573    2.9443    8.4645 C   0  0  0  0  0  0  0  0  0  0  0  0
   -1.9196    2.2360    7.7395 C   0  0  1  0  0  0  0  0  0  0  0  0
   -3.2758    2.8437    8.1354 C   0  0  0  0  0  0  0  0  0  0  0  0
   -1.7816    1.9894    6.2118 C   0  0  1  0  0  0  0  0  0  0  0  0
   -2.2871    3.1002    5.3093 C   0  0  0  0  0  0  0  0  0  0  0  0
   -2.8294    2.9272    4.0940 C   0  0  0  0  0  0  0  0  0  0  0  0
   -0.4199    1.3686    5.7827 C   0  0  0  0  0  0  0  0  0  0  0  0
    0.7450    2.1037    5.6821 C   0  0  0  0  0  0  0  0  0  0  0  0
    0.6633    3.5488    5.7696 C   0  0  0  0  0  0  0  0  0  0  0  0
    0.8615    4.3773    4.7197 C   0  0  0  0  0  0  0  0  0  0  0  0
    0.1871    5.6735    5.1369 C   0  0  0  0  0  0  0  0  0  0  0  0
    0.9886    5.8234    6.4107 C   0  0  2  0  0  0  0  0  0  0  0  0
    2.3127    5.9356    5.6924 C   0  0  0  0  0  0  0  0  0  0  0  0
    3.1841    6.7342    5.9925 O   0  0  0  0  0  0  0  0  0  0  0  0
    2.1808    1.5558    5.4524 C   0  0  1  0  0  0  0  0  0  0  0  0
    2.3437    1.2395    3.9198 C   0  0  0  0  0  0  0  0  0  0  0  0
    3.6719    0.5849    3.4661 C   0  0  0  0  0  0  0  0  0  0  0  0
    3.6634    0.2124    1.9745 C   0  0  0  0  0  0  0  0  0  0  0  0
    4.9461   -0.5036    1.5300 C   0  0  0  0  0  0  0  0  0  0  0  0
    2.5035    0.2323    6.2469 C   0  0  0  0  0  0  0  0  0  0  0  0
    1.8024   -1.0784    5.8838 C   0  0  0  0  0  0  0  0  0  0  0  0
    0.3437   -1.0069    6.2819 C   0  0  0  0  0  0  0  0  0  0  0  0
   -0.1224   -1.6213    7.2441 O   0  0  0  0  0  0  0  0  0  0  0  0
   -0.5085   -0.1299    5.3886 C   0  0  1  0  0  0  0  0  0  0  0  0
   -1.8889   -0.7956    5.1750 C   0  0  0  0  0  0  0  0  0  0  0  0
    3.1191    8.1873    3.6713 H   0  0  0  0  0  0  0  0  0  0  0  0
    4.8592    8.1550    3.0610 H   0  0  0  0  0  0  0  0  0  0  0  0
    4.6244    5.8003    2.4878 H   0  0  0  0  0  0  0  0  0  0  0  0
    1.7061    6.1079    2.8385 H   0  0  0  0  0  0  0  0  0  0  0  0
    2.5675    4.6918    2.3853 H   0  0  0  0  0  0  0  0  0  0  0  0
    3.7744    3.3649    3.9275 H   0  0  0  0  0  0  0  0  0  0  0  0
    4.3562    4.3622    5.1196 H   0  0  0  0  0  0  0  0  0  0  0  0
    4.1708    2.1785    5.9395 H   0  0  0  0  0  0  0  0  0  0  0  0
    3.9450    1.4732    8.3808 H   0  0  0  0  0  0  0  0  0  0  0  0
    2.2224    1.7592    8.7326 H   0  0  0  0  0  0  0  0  0  0  0  0
    3.4209    2.6867    9.5253 H   0  0  0  0  0  0  0  0  0  0  0  0
    5.2906    3.6404    7.5619 H   0  0  0  0  0  0  0  0  0  0  0  0
    4.3635    4.5159    8.7734 H   0  0  0  0  0  0  0  0  0  0  0  0
    4.4077    5.0797    7.1532 H   0  0  0  0  0  0  0  0  0  0  0  0
   -0.1197    4.9560    8.8391 H   0  0  0  0  0  0  0  0  0  0  0  0
   -1.2430    4.8536    7.5329 H   0  0  0  0  0  0  0  0  0  0  0  0
    0.1202    2.3016    8.4679 H   0  0  0  0  0  0  0  0  0  0  0  0
   -1.0343    3.0333    9.5147 H   0  0  0  0  0  0  0  0  0  0  0  0
   -1.9208    1.2392    8.1767 H   0  0  0  0  0  0  0  0  0  0  0  0
   -3.3437    3.8967    7.8757 H   0  0  0  0  0  0  0  0  0  0  0  0
   -3.4375    2.7586    9.2106 H   0  0  0  0  0  0  0  0  0  0  0  0
   -4.0994    2.3335    7.6450 H   0  0  0  0  0  0  0  0  0  0  0  0
   -2.5727    1.2750    6.0524 H   0  0  0  0  0  0  0  0  0  0  0  0
   -2.2253    4.0923    5.7095 H   0  0  0  0  0  0  0  0  0  0  0  0
   -2.9488    1.9387    3.6761 H   0  0  0  0  0  0  0  0  0  0  0  0
   -3.1720    3.7549    3.4963 H   0  0  0  0  0  0  0  0  0  0  0  0
    0.2927    6.4827    4.4078 H   0  0  0  0  0  0  0  0  0  0  0  0
   -0.8703    5.5648    5.3296 H   0  0  0  0  0  0  0  0  0  0  0  0
    0.7419    6.6806    7.0424 H   0  0  0  0  0  0  0  0  0  0  0  0
    1.5542    0.5721    3.5974 H   0  0  0  0  0  0  0  0  0  0  0  0
    2.1462    2.1238    3.3137 H   0  0  0  0  0  0  0  0  0  0  0  0
    4.5112    1.2425    3.6842 H   0  0  0  0  0  0  0  0  0  0  0  0
    3.8600   -0.3352    4.0150 H   0  0  0  0  0  0  0  0  0  0  0  0
    2.8149   -0.4407    1.7657 H   0  0  0  0  0  0  0  0  0  0  0  0
    3.5159    1.1047    1.3662 H   0  0  0  0  0  0  0  0  0  0  0  0
    4.8749   -0.8143    0.4866 H   0  0  0  0  0  0  0  0  0  0  0  0
    5.1411   -1.3926    2.1315 H   0  0  0  0  0  0  0  0  0  0  0  0
    5.8149    0.1444    1.6188 H   0  0  0  0  0  0  0  0  0  0  0  0
    3.5739    0.0349    6.2103 H   0  0  0  0  0  0  0  0  0  0  0  0
    2.2871    0.3318    7.2968 H   0  0  0  0  0  0  0  0  0  0  0  0
    1.8912   -1.3147    4.8241 H   0  0  0  0  0  0  0  0  0  0  0  0
    2.2587   -1.9085    6.4229 H   0  0  0  0  0  0  0  0  0  0  0  0
   -0.0648   -0.1998    4.4031 H   0  0  0  0  0  0  0  0  0  0  0  0
   -2.4867   -0.8704    6.0793 H   0  0  0  0  0  0  0  0  0  0  0  0
   -1.7560   -1.8148    4.8144 H   0  0  0  0  0  0  0  0  0  0  0  0
   -2.4830   -0.2646    4.4356 H   0  0  0  0  0  0  0  0  0  0  0  0
  1  2  2  0
  1 38  1  0
  1 39  1  0
  2  3  1  0
  2 40  1  0
  4  3  1  6
  3 41  1  0
  3 42  1  0
  4 22  1  0
  4 25  1  0
  4  5  1  0
  5  6  1  0
  5 43  1  0
  5 44  1  0
  6 27  1  0
  6  7  1  0
  6 45  1  1
  7  8  1  0
  7  9  1  0
  7 10  1  0
  8 46  1  0
  8 47  1  0
  8 48  1  0
  9 49  1  0
  9 50  1  0
  9 51  1  0
 11 10  1  1
 11 21  1  0
 11 24  1  0
 11 12  1  0
 12 13  1  0
 12 52  1  0
 12 53  1  0
 13 14  1  0
 13 54  1  0
 13 55  1  0
 14 15  1  0
 14 16  1  0
 14 56  1  1
 15 57  1  0
 15 58  1  0
 15 59  1  0
 16 17  1  0
 16 19  1  0
 16 60  1  6
 17 18  2  0
 17 61  1  0
 18 62  1  0
 18 63  1  0
 19 36  1  0
 19 20  2  0
 20 21  1  0
 20 27  1  0
 21 22  2  0
 22 23  1  0
 23 24  1  0
 23 64  1  0
 23 65  1  0
 24 25  1  0
 24 66  1  1
 25 26  2  0
 27 28  1  6
 27 32  1  0
 28 29  1  0
 28 67  1  0
 28 68  1  0
 29 30  1  0
 29 69  1  0
 29 70  1  0
 30 31  1  0
 30 71  1  0
 30 72  1  0
 31 73  1  0
 31 74  1  0
 31 75  1  0
 32 33  1  0
 32 76  1  0
 32 77  1  0
 33 34  1  0
 33 78  1  0
 33 79  1  0
 34 35  2  0
 34 36  1  0
 36 37  1  0
 36 80  1  6
 37 81  1  0
 37 82  1  0
 37 83  1  0
M  END
>  <i_m_ct_stereo_status>  (215) 
1

>  <s_m_source_file>  (215) 
/var/tmp/pbs.5076255.sched01/tmp4185l44a/86vs10_z9v.sdf

>  <i_m_source_file_index>  (215) 
6

>  <i_lp_mmshare_version>  (215) 
48012

>  <i_f3d_flags>  (215) 
0

>  <s_epik_input>  (215) 
W0NIMl09W0NIXVtDSDJdW0NAXShDMT1DMltDQF0zNDUpKEMoPU8pW0NASF01W0NIMl0xKVtDSDJdW0NAQEhdKEMoTzMpKFtDSDNdKVtDSDNdKVtDQF02KFtDSDJdW0NIMl1bQ0gyXVtDSDNdKUMyPUMoW0NASF0oW0NIXT1bQ0gyXSlbQ0BIXShbQ0gzXSlbQ0gyXVtDSDJdNClbQ0BIXShbQ0gzXSlDKD1PKVtDSDJdW0NIMl02

>  <s_epik_cmdline>  (215) 
J2VwaWtfcHl0aG9uJywgJy1waHQnLCAnMi4wJywgJy1waCcsICc3LjAnLCAnLXRuJywgJzgnLCAnLW1hJywgJzIwMCcsICctaW1hZScsICc8aW5maWxlLm1hZT4nLCAnLW9tYWUnLCAnPG91dGZpbGUubWFlPic=

>  <r_lp_tautomer_probability>  (215) 
1

>  <r_epik_Ionization_Penalty>  (215) 
1.81891e-11

>  <r_epik_Ionization_Penalty_Charging>  (215) 
0

>  <r_epik_Ionization_Penalty_Neutral>  (215) 
1.81891e-11

>  <r_epik_State_Penalty>  (215) 
-0

>  <r_epik_Charging_Adjusted_Penalty>  (215) 
0

>  <i_epik_Tot_Q>  (215) 
0

>  <i_epik_Tot_abs_Q>  (215) 
0

>  <s_lp_Force_Field>  (215) 
OPLS3e

>  <r_lp_Energy>  (215) 
138.076

>  <b_lp_Chiralities_Consistent>  (215) 
1

>  <s_lp_Variant>  (215) 
61:0-1

>  <s_i_glide_gridfile>  (215) 
pfpi4k_grid

>  <i_i_glide_lignum>  (215) 
6

>  <i_i_glide_rotatable_bonds>  (215) 
6

>  <r_i_docking_score>  (215) 
-1.46047

>  <r_i_glide_ligand_efficiency>  (215) 
-0.0394722

>  <r_i_glide_ligand_efficiency_sa>  (215) 
-0.13153

>  <r_i_glide_ligand_efficiency_ln>  (215) 
-0.316742

>  <r_i_glide_gscore>  (215) 
-1.46047

>  <r_i_glide_lipo>  (215) 
-0.369835

>  <r_i_glide_hbond>  (215) 
-0.00601082

>  <r_i_glide_metal>  (215) 
-0

>  <r_i_glide_rewards>  (215) 
0

>  <r_i_glide_evdw>  (215) 
-23.0685

>  <r_i_glide_ecoul>  (215) 
-2.10316

>  <r_i_glide_erotb>  (215) 
0.404281

>  <r_i_glide_esite>  (215) 
-0.0200085

>  <r_i_glide_emodel>  (215) 
-25.3762

>  <r_i_glide_energy>  (215) 
-25.1716

>  <r_i_glide_einternal>  (215) 
2.90209

>  <r_i_glide_intrahb_reward>  (215) 
-0

>  <i_i_glide_confnum>  (215) 
4

>  <i_i_glide_posenum>  (215) 
3

>  <r_i_glide_eff_state_penalty>  (215) 
0

>  <ligand_id>  (215) 
61

>  <original_smiles>  (215) 
C=CCC12CC3C(C)(C)OC45CCC(C)C(C=C)C6=C(C4=C1CC5C2=O)C3(CCCC)CCC(=O)C6C

>  <smiles>  (215) 
[H]C([H])=C([H])C([H])([H])C12C(=O)C3([H])C([H])([H])C1=C1C4=C5C([H])(C([H])([H])[H])C(=O)C([H])([H])C([H])([H])C4(C([H])([H])C([H])([H])C([H])([H])C([H])([H])[H])C([H])(C2([H])[H])C(C([H])([H])[H])(C([H])([H])[H])OC13C([H])([H])C([H])([H])C([H])(C([H])([H])[H])C5([H])C([H])=C([H])[H]

$$$$
61:0:1
     RDKit          3D

 83 88  0  0  1  0  0  0  0  0999 V2000
   -1.8004   -4.2537    8.3938 C   0  0  0  0  0  0  0  0  0  0  0  0
   -0.8522   -3.6501    7.6578 C   0  0  0  0  0  0  0  0  0  0  0  0
   -0.5381   -3.9902    6.2055 C   0  0  0  0  0  0  0  0  0  0  0  0
    0.9710   -4.0806    5.8162 C   0  0  2  0  0  0  0  0  0  0  0  0
    1.6297   -2.6724    5.9863 C   0  0  0  0  0  0  0  0  0  0  0  0
    2.9459   -2.3003    5.2088 C   0  0  1  0  0  0  0  0  0  0  0  0
    4.2151   -3.1309    5.7318 C   0  0  0  0  0  0  0  0  0  0  0  0
    5.5778   -2.6238    5.2279 C   0  0  0  0  0  0  0  0  0  0  0  0
    4.3564   -3.0072    7.2726 C   0  0  0  0  0  0  0  0  0  0  0  0
    4.3204   -4.5395    5.4381 O   0  0  0  0  0  0  0  0  0  0  0  0
    3.3633   -5.3444    4.7286 C   0  0  2  0  0  0  0  0  0  0  0  0
    4.1992   -6.3507    3.9129 C   0  0  0  0  0  0  0  0  0  0  0  0
    5.0203   -5.7353    2.7633 C   0  0  0  0  0  0  0  0  0  0  0  0
    4.4350   -5.8418    1.3362 C   0  0  1  0  0  0  0  0  0  0  0  0
    4.5666   -7.2685    0.7726 C   0  0  0  0  0  0  0  0  0  0  0  0
    3.0452   -5.2017    1.0619 C   0  0  1  0  0  0  0  0  0  0  0  0
    1.8448   -6.1031    1.2896 C   0  0  0  0  0  0  0  0  0  0  0  0
    0.8240   -6.2975    0.4444 C   0  0  0  0  0  0  0  0  0  0  0  0
    2.8942   -3.7571    1.6212 C   0  0  0  0  0  0  0  0  0  0  0  0
    2.6801   -3.4779    2.9607 C   0  0  0  0  0  0  0  0  0  0  0  0
    2.3716   -4.5750    3.8696 C   0  0  0  0  0  0  0  0  0  0  0  0
    1.1606   -4.7733    4.4369 C   0  0  0  0  0  0  0  0  0  0  0  0
    1.1708   -6.2293    4.8794 C   0  0  0  0  0  0  0  0  0  0  0  0
    2.4099   -6.0866    5.7330 C   0  0  2  0  0  0  0  0  0  0  0  0
    1.7418   -5.1053    6.6781 C   0  0  0  0  0  0  0  0  0  0  0  0
    1.7481   -5.1772    7.9003 O   0  0  0  0  0  0  0  0  0  0  0  0
    2.7092   -2.0768    3.6365 C   0  0  1  0  0  0  0  0  0  0  0  0
    1.3317   -1.3798    3.3623 C   0  0  0  0  0  0  0  0  0  0  0  0
    1.1106    0.0429    3.9415 C   0  0  0  0  0  0  0  0  0  0  0  0
   -0.2554    0.6413    3.5640 C   0  0  0  0  0  0  0  0  0  0  0  0
   -0.3725    1.0182    2.0797 C   0  0  0  0  0  0  0  0  0  0  0  0
    3.8346   -1.1052    3.1020 C   0  0  0  0  0  0  0  0  0  0  0  0
    3.7787   -0.5616    1.6710 C   0  0  0  0  0  0  0  0  0  0  0  0
    4.0495   -1.6775    0.6841 C   0  0  0  0  0  0  0  0  0  0  0  0
    5.1138   -1.7657    0.0672 O   0  0  0  0  0  0  0  0  0  0  0  0
    2.9074   -2.6642    0.5162 C   0  0  1  0  0  0  0  0  0  0  0  0
    2.7686   -3.0740   -0.9744 C   0  0  0  0  0  0  0  0  0  0  0  0
   -2.4165   -5.0461    7.9866 H   0  0  0  0  0  0  0  0  0  0  0  0
   -1.9796   -3.9753    9.4210 H   0  0  0  0  0  0  0  0  0  0  0  0
   -0.2611   -2.8637    8.1081 H   0  0  0  0  0  0  0  0  0  0  0  0
   -1.0391   -4.9333    5.9973 H   0  0  0  0  0  0  0  0  0  0  0  0
   -1.0115   -3.2377    5.5778 H   0  0  0  0  0  0  0  0  0  0  0  0
    0.8584   -1.9310    5.8034 H   0  0  0  0  0  0  0  0  0  0  0  0
    1.8017   -2.4971    7.0498 H   0  0  0  0  0  0  0  0  0  0  0  0
    3.1493   -1.2947    5.5823 H   0  0  0  0  0  0  0  0  0  0  0  0
    5.6579   -1.5377    5.2656 H   0  0  0  0  0  0  0  0  0  0  0  0
    5.7921   -2.9750    4.2226 H   0  0  0  0  0  0  0  0  0  0  0  0
    6.4021   -3.0218    5.8211 H   0  0  0  0  0  0  0  0  0  0  0  0
    4.3961   -1.9640    7.5868 H   0  0  0  0  0  0  0  0  0  0  0  0
    5.2667   -3.4884    7.6333 H   0  0  0  0  0  0  0  0  0  0  0  0
    3.5566   -3.4787    7.8300 H   0  0  0  0  0  0  0  0  0  0  0  0
    4.8975   -6.8162    4.6126 H   0  0  0  0  0  0  0  0  0  0  0  0
    3.5880   -7.1723    3.5454 H   0  0  0  0  0  0  0  0  0  0  0  0
    5.2617   -4.6988    2.9865 H   0  0  0  0  0  0  0  0  0  0  0  0
    5.9898   -6.2337    2.7529 H   0  0  0  0  0  0  0  0  0  0  0  0
    5.1203   -5.2469    0.7333 H   0  0  0  0  0  0  0  0  0  0  0  0
    4.0077   -8.0025    1.3505 H   0  0  0  0  0  0  0  0  0  0  0  0
    5.6102   -7.5806    0.7786 H   0  0  0  0  0  0  0  0  0  0  0  0
    4.2203   -7.3166   -0.2592 H   0  0  0  0  0  0  0  0  0  0  0  0
    3.0454   -5.1866   -0.0151 H   0  0  0  0  0  0  0  0  0  0  0  0
    1.8536   -6.6555    2.2045 H   0  0  0  0  0  0  0  0  0  0  0  0
    0.7780   -5.8073   -0.5184 H   0  0  0  0  0  0  0  0  0  0  0  0
    0.0280   -6.9745    0.7004 H   0  0  0  0  0  0  0  0  0  0  0  0
    0.2570   -6.5300    5.4012 H   0  0  0  0  0  0  0  0  0  0  0  0
    1.3159   -6.9692    4.1064 H   0  0  0  0  0  0  0  0  0  0  0  0
    2.7709   -7.0082    6.1903 H   0  0  0  0  0  0  0  0  0  0  0  0
    1.1942   -1.3053    2.2935 H   0  0  0  0  0  0  0  0  0  0  0  0
    0.5069   -2.0263    3.6606 H   0  0  0  0  0  0  0  0  0  0  0  0
    1.1806    0.0294    5.0270 H   0  0  0  0  0  0  0  0  0  0  0  0
    1.8875    0.7323    3.6168 H   0  0  0  0  0  0  0  0  0  0  0  0
   -1.0604   -0.0390    3.8448 H   0  0  0  0  0  0  0  0  0  0  0  0
   -0.4093    1.5464    4.1529 H   0  0  0  0  0  0  0  0  0  0  0  0
   -1.3690    1.3999    1.8525 H   0  0  0  0  0  0  0  0  0  0  0  0
   -0.1974    0.1691    1.4194 H   0  0  0  0  0  0  0  0  0  0  0  0
    0.3485    1.7916    1.8080 H   0  0  0  0  0  0  0  0  0  0  0  0
    3.9166   -0.2377    3.7567 H   0  0  0  0  0  0  0  0  0  0  0  0
    4.8071   -1.5667    3.1442 H   0  0  0  0  0  0  0  0  0  0  0  0
    2.8299   -0.0769    1.4429 H   0  0  0  0  0  0  0  0  0  0  0  0
    4.5515    0.1940    1.5299 H   0  0  0  0  0  0  0  0  0  0  0  0
    2.0091   -2.0856    0.6859 H   0  0  0  0  0  0  0  0  0  0  0  0
    3.6289   -3.6371   -1.3437 H   0  0  0  0  0  0  0  0  0  0  0  0
    2.6834   -2.1941   -1.6127 H   0  0  0  0  0  0  0  0  0  0  0  0
    1.8662   -3.6601   -1.1507 H   0  0  0  0  0  0  0  0  0  0  0  0
  1  2  2  0
  1 38  1  0
  1 39  1  0
  2  3  1  0
  2 40  1  0
  4  3  1  1
  3 41  1  0
  3 42  1  0
  4 22  1  0
  4 25  1  0
  4  5  1  0
  5  6  1  0
  5 43  1  0
  5 44  1  0
  6 27  1  0
  6  7  1  0
  6 45  1  1
  7  8  1  0
  7  9  1  0
  7 10  1  0
  8 46  1  0
  8 47  1  0
  8 48  1  0
  9 49  1  0
  9 50  1  0
  9 51  1  0
 11 10  1  1
 11 21  1  0
 11 24  1  0
 11 12  1  0
 12 13  1  0
 12 52  1  0
 12 53  1  0
 13 14  1  0
 13 54  1  0
 13 55  1  0
 14 15  1  0
 14 16  1  0
 14 56  1  6
 15 57  1  0
 15 58  1  0
 15 59  1  0
 16 17  1  0
 16 19  1  0
 16 60  1  6
 17 18  2  0
 17 61  1  0
 18 62  1  0
 18 63  1  0
 19 36  1  0
 19 20  2  0
 20 21  1  0
 20 27  1  0
 21 22  2  0
 22 23  1  0
 23 24  1  0
 23 64  1  0
 23 65  1  0
 24 25  1  0
 24 66  1  1
 25 26  2  0
 27 28  1  1
 27 32  1  0
 28 29  1  0
 28 67  1  0
 28 68  1  0
 29 30  1  0
 29 69  1  0
 29 70  1  0
 30 31  1  0
 30 71  1  0
 30 72  1  0
 31 73  1  0
 31 74  1  0
 31 75  1  0
 32 33  1  0
 32 76  1  0
 32 77  1  0
 33 34  1  0
 33 78  1  0
 33 79  1  0
 34 35  2  0
 34 36  1  0
 36 37  1  0
 36 80  1  1
 37 81  1  0
 37 82  1  0
 37 83  1  0
M  END
>  <i_m_ct_stereo_status>  (216) 
1

>  <s_m_source_file>  (216) 
/var/tmp/pbs.5076255.sched01/tmp4185l44a/86vs10_z9v.sdf

>  <i_m_source_file_index>  (216) 
6

>  <i_lp_mmshare_version>  (216) 
48012

>  <i_f3d_flags>  (216) 
0

>  <s_epik_input>  (216) 
W0NIMl09W0NIXVtDSDJdW0NAXShDMT1DMltDQF0zNDUpKEMoPU8pW0NASF01W0NIMl0xKVtDSDJdW0NAQEhdKEMoTzMpKFtDSDNdKVtDSDNdKVtDQF02KFtDSDJdW0NIMl1bQ0gyXVtDSDNdKUMyPUMoW0NASF0oW0NIXT1bQ0gyXSlbQ0BIXShbQ0gzXSlbQ0gyXVtDSDJdNClbQ0BIXShbQ0gzXSlDKD1PKVtDSDJdW0NIMl02

>  <s_epik_cmdline>  (216) 
J2VwaWtfcHl0aG9uJywgJy1waHQnLCAnMi4wJywgJy1waCcsICc3LjAnLCAnLXRuJywgJzgnLCAnLW1hJywgJzIwMCcsICctaW1hZScsICc8aW5maWxlLm1hZT4nLCAnLW9tYWUnLCAnPG91dGZpbGUubWFlPic=

>  <r_lp_tautomer_probability>  (216) 
1

>  <r_epik_Ionization_Penalty>  (216) 
1.81891e-11

>  <r_epik_Ionization_Penalty_Charging>  (216) 
0

>  <r_epik_Ionization_Penalty_Neutral>  (216) 
1.81891e-11

>  <r_epik_State_Penalty>  (216) 
-0

>  <r_epik_Charging_Adjusted_Penalty>  (216) 
0

>  <i_epik_Tot_Q>  (216) 
0

>  <i_epik_Tot_abs_Q>  (216) 
0

>  <s_lp_Force_Field>  (216) 
OPLS3e

>  <r_lp_Energy>  (216) 
138.076

>  <b_lp_Chiralities_Consistent>  (216) 
1

>  <s_lp_Variant>  (216) 
61:0-1

>  <s_i_glide_gridfile>  (216) 
pfpi4k_grid

>  <i_i_glide_lignum>  (216) 
6

>  <i_i_glide_rotatable_bonds>  (216) 
6

>  <r_i_docking_score>  (216) 
-1.37028

>  <r_i_glide_ligand_efficiency>  (216) 
-0.0370346

>  <r_i_glide_ligand_efficiency_sa>  (216) 
-0.123408

>  <r_i_glide_ligand_efficiency_ln>  (216) 
-0.297182

>  <r_i_glide_gscore>  (216) 
-1.37028

>  <r_i_glide_lipo>  (216) 
-0.198263

>  <r_i_glide_hbond>  (216) 
0

>  <r_i_glide_metal>  (216) 
-0

>  <r_i_glide_rewards>  (216) 
0

>  <r_i_glide_evdw>  (216) 
-25.4179

>  <r_i_glide_ecoul>  (216) 
-1.90981

>  <r_i_glide_erotb>  (216) 
0.404281

>  <r_i_glide_esite>  (216) 
-0.0189321

>  <r_i_glide_emodel>  (216) 
-28.7124

>  <r_i_glide_energy>  (216) 
-27.3277

>  <r_i_glide_einternal>  (216) 
1.39826

>  <r_i_glide_intrahb_reward>  (216) 
-0

>  <i_i_glide_confnum>  (216) 
4

>  <i_i_glide_posenum>  (216) 
37

>  <r_i_glide_eff_state_penalty>  (216) 
0

>  <ligand_id>  (216) 
61

>  <original_smiles>  (216) 
C=CCC12CC3C(C)(C)OC45CCC(C)C(C=C)C6=C(C4=C1CC5C2=O)C3(CCCC)CCC(=O)C6C

>  <smiles>  (216) 
[H]C([H])=C([H])C([H])([H])C12C(=O)C3([H])C([H])([H])C1=C1C4=C5C([H])(C([H])([H])[H])C(=O)C([H])([H])C([H])([H])C4(C([H])([H])C([H])([H])C([H])([H])C([H])([H])[H])C([H])(C2([H])[H])C(C([H])([H])[H])(C([H])([H])[H])OC13C([H])([H])C([H])([H])C([H])(C([H])([H])[H])C5([H])C([H])=C([H])[H]

$$$$
61:0:2
     RDKit          3D

 83 88  0  0  1  0  0  0  0  0999 V2000
   -0.2625   -3.1167    8.6588 C   0  0  0  0  0  0  0  0  0  0  0  0
   -0.9678   -3.6320    7.6295 C   0  0  0  0  0  0  0  0  0  0  0  0
   -0.5099   -3.9100    6.1869 C   0  0  0  0  0  0  0  0  0  0  0  0
    1.0053   -3.8999    5.7813 C   0  0  2  0  0  0  0  0  0  0  0  0
    1.4997   -2.4095    5.8263 C   0  0  0  0  0  0  0  0  0  0  0  0
    2.7656   -1.9581    5.0277 C   0  0  1  0  0  0  0  0  0  0  0  0
    4.0911   -2.6342    5.6217 C   0  0  0  0  0  0  0  0  0  0  0  0
    5.4115   -2.0159    5.1231 C   0  0  0  0  0  0  0  0  0  0  0  0
    4.1785   -2.4043    7.1610 C   0  0  0  0  0  0  0  0  0  0  0  0
    4.3292   -4.0455    5.4152 O   0  0  0  0  0  0  0  0  0  0  0  0
    3.4820   -4.9869    4.7256 C   0  0  2  0  0  0  0  0  0  0  0  0
    4.4335   -5.9386    3.9897 C   0  0  0  0  0  0  0  0  0  0  0  0
    5.2067   -5.3032    2.8288 C   0  0  0  0  0  0  0  0  0  0  0  0
    4.6627   -5.5528    1.4068 C   0  0  1  0  0  0  0  0  0  0  0  0
    4.9336   -6.9912    0.9385 C   0  0  0  0  0  0  0  0  0  0  0  0
    3.2180   -5.0825    1.0863 C   0  0  1  0  0  0  0  0  0  0  0  0
    2.1080   -6.0792    1.3540 C   0  0  0  0  0  0  0  0  0  0  0  0
    1.1278   -6.4119    0.5095 C   0  0  0  0  0  0  0  0  0  0  0  0
    2.9156   -3.6273    1.5519 C   0  0  0  0  0  0  0  0  0  0  0  0
    2.6369   -3.2934    2.8526 C   0  0  0  0  0  0  0  0  0  0  0  0
    2.4293   -4.3661    3.8247 C   0  0  0  0  0  0  0  0  0  0  0  0
    1.2442   -4.6436    4.4244 C   0  0  0  0  0  0  0  0  0  0  0  0
    1.3827   -6.0891    4.9051 C   0  0  0  0  0  0  0  0  0  0  0  0
    2.6110   -5.7838    5.7351 C   0  0  2  0  0  0  0  0  0  0  0  0
    1.8773   -4.8411    6.6843 C   0  0  0  0  0  0  0  0  0  0  0  0
    1.9187   -4.9130    7.8805 O   0  0  0  0  0  0  0  0  0  0  0  0
    2.5143   -1.8570    3.4471 C   0  0  1  0  0  0  0  0  0  0  0  0
    1.0771   -1.2986    3.1220 C   0  0  0  0  0  0  0  0  0  0  0  0
    0.7293    0.1372    3.5934 C   0  0  0  0  0  0  0  0  0  0  0  0
   -0.6467    0.6017    3.0928 C   0  0  0  0  0  0  0  0  0  0  0  0
   -0.9529    2.0577    3.4577 C   0  0  0  0  0  0  0  0  0  0  0  0
    3.5564   -0.8119    2.8829 C   0  0  0  0  0  0  0  0  0  0  0  0
    3.4706   -0.3552    1.4268 C   0  0  0  0  0  0  0  0  0  0  0  0
    3.8745   -1.4954    0.5151 C   0  0  0  0  0  0  0  0  0  0  0  0
    4.9554   -1.5109   -0.0768 O   0  0  0  0  0  0  0  0  0  0  0  0
    2.8418   -2.6029    0.3891 C   0  0  1  0  0  0  0  0  0  0  0  0
    2.7706   -3.1051   -1.0704 C   0  0  0  0  0  0  0  0  0  0  0  0
    0.7715   -2.8320    8.5569 H   0  0  0  0  0  0  0  0  0  0  0  0
   -0.7267   -3.0150    9.6292 H   0  0  0  0  0  0  0  0  0  0  0  0
   -1.9947   -3.9055    7.7960 H   0  0  0  0  0  0  0  0  0  0  0  0
   -0.9586   -4.8637    5.9330 H   0  0  0  0  0  0  0  0  0  0  0  0
   -1.0318   -3.2119    5.5394 H   0  0  0  0  0  0  0  0  0  0  0  0
    0.6520   -1.7805    5.5625 H   0  0  0  0  0  0  0  0  0  0  0  0
    1.6616   -2.0944    6.8441 H   0  0  0  0  0  0  0  0  0  0  0  0
    2.8529   -0.9151    5.3368 H   0  0  0  0  0  0  0  0  0  0  0  0
    5.3783   -0.9247    5.0991 H   0  0  0  0  0  0  0  0  0  0  0  0
    5.6827   -2.4004    4.1439 H   0  0  0  0  0  0  0  0  0  0  0  0
    6.2398   -2.2985    5.7710 H   0  0  0  0  0  0  0  0  0  0  0  0
    4.1104   -1.3472    7.4199 H   0  0  0  0  0  0  0  0  0  0  0  0
    5.1190   -2.7695    7.5718 H   0  0  0  0  0  0  0  0  0  0  0  0
    3.4165   -2.9189    7.7337 H   0  0  0  0  0  0  0  0  0  0  0  0
    5.1542   -6.2809    4.7384 H   0  0  0  0  0  0  0  0  0  0  0  0
    3.9065   -6.8357    3.6726 H   0  0  0  0  0  0  0  0  0  0  0  0
    5.3294   -4.2359    3.0043 H   0  0  0  0  0  0  0  0  0  0  0  0
    6.2201   -5.7054    2.8694 H   0  0  0  0  0  0  0  0  0  0  0  0
    5.2950   -4.9275    0.7851 H   0  0  0  0  0  0  0  0  0  0  0  0
    4.4408   -7.7387    1.5595 H   0  0  0  0  0  0  0  0  0  0  0  0
    6.0030   -7.1951    0.9649 H   0  0  0  0  0  0  0  0  0  0  0  0
    4.6030   -7.1362   -0.0889 H   0  0  0  0  0  0  0  0  0  0  0  0
    3.2470   -5.1188    0.0096 H   0  0  0  0  0  0  0  0  0  0  0  0
    2.1609   -6.5731    2.3039 H   0  0  0  0  0  0  0  0  0  0  0  0
    1.0359   -5.9748   -0.4899 H   0  0  0  0  0  0  0  0  0  0  0  0
    0.3998   -7.1484    0.7857 H   0  0  0  0  0  0  0  0  0  0  0  0
    0.5030   -6.4178    5.4801 H   0  0  0  0  0  0  0  0  0  0  0  0
    1.5665   -6.8485    4.1484 H   0  0  0  0  0  0  0  0  0  0  0  0
    3.0877   -6.6474    6.2151 H   0  0  0  0  0  0  0  0  0  0  0  0
    0.9247   -1.3050    2.0493 H   0  0  0  0  0  0  0  0  0  0  0  0
    0.3081   -1.9891    3.4681 H   0  0  0  0  0  0  0  0  0  0  0  0
    0.7650    0.2209    4.6786 H   0  0  0  0  0  0  0  0  0  0  0  0
    1.4594    0.8508    3.2174 H   0  0  0  0  0  0  0  0  0  0  0  0
   -0.6872    0.5135    2.0059 H   0  0  0  0  0  0  0  0  0  0  0  0
   -1.4304   -0.0419    3.4935 H   0  0  0  0  0  0  0  0  0  0  0  0
   -1.8989    2.3724    3.0130 H   0  0  0  0  0  0  0  0  0  0  0  0
   -0.1767    2.7289    3.0815 H   0  0  0  0  0  0  0  0  0  0  0  0
   -1.0232    2.1883    4.5390 H   0  0  0  0  0  0  0  0  0  0  0  0
    3.5525    0.0931    3.4917 H   0  0  0  0  0  0  0  0  0  0  0  0
    4.5666   -1.1790    2.9623 H   0  0  0  0  0  0  0  0  0  0  0  0
    2.4779    0.0106    1.1614 H   0  0  0  0  0  0  0  0  0  0  0  0
    4.1647    0.4683    1.2511 H   0  0  0  0  0  0  0  0  0  0  0  0
    1.8803   -2.1308    0.5372 H   0  0  0  0  0  0  0  0  0  0  0  0
    3.6883   -3.6032   -1.3937 H   0  0  0  0  0  0  0  0  0  0  0  0
    2.6195   -2.2652   -1.7483 H   0  0  0  0  0  0  0  0  0  0  0  0
    1.9289   -3.7834   -1.2211 H   0  0  0  0  0  0  0  0  0  0  0  0
  1  2  2  0
  1 38  1  0
  1 39  1  0
  2  3  1  0
  2 40  1  0
  4  3  1  1
  3 41  1  0
  3 42  1  0
  4 22  1  0
  4 25  1  0
  4  5  1  0
  5  6  1  0
  5 43  1  0
  5 44  1  0
  6 27  1  0
  6  7  1  0
  6 45  1  1
  7  8  1  0
  7  9  1  0
  7 10  1  0
  8 46  1  0
  8 47  1  0
  8 48  1  0
  9 49  1  0
  9 50  1  0
  9 51  1  0
 11 10  1  1
 11 21  1  0
 11 24  1  0
 11 12  1  0
 12 13  1  0
 12 52  1  0
 12 53  1  0
 13 14  1  0
 13 54  1  0
 13 55  1  0
 14 15  1  0
 14 16  1  0
 14 56  1  6
 15 57  1  0
 15 58  1  0
 15 59  1  0
 16 17  1  0
 16 19  1  0
 16 60  1  6
 17 18  2  0
 17 61  1  0
 18 62  1  0
 18 63  1  0
 19 36  1  0
 19 20  2  0
 20 21  1  0
 20 27  1  0
 21 22  2  0
 22 23  1  0
 23 24  1  0
 23 64  1  0
 23 65  1  0
 24 25  1  0
 24 66  1  1
 25 26  2  0
 27 28  1  1
 27 32  1  0
 28 29  1  0
 28 67  1  0
 28 68  1  0
 29 30  1  0
 29 69  1  0
 29 70  1  0
 30 31  1  0
 30 71  1  0
 30 72  1  0
 31 73  1  0
 31 74  1  0
 31 75  1  0
 32 33  1  0
 32 76  1  0
 32 77  1  0
 33 34  1  0
 33 78  1  0
 33 79  1  0
 34 35  2  0
 34 36  1  0
 36 37  1  0
 36 80  1  1
 37 81  1  0
 37 82  1  0
 37 83  1  0
M  END
>  <i_m_ct_stereo_status>  (217) 
1

>  <s_m_source_file>  (217) 
/var/tmp/pbs.5076255.sched01/tmp4185l44a/86vs10_z9v.sdf

>  <i_m_source_file_index>  (217) 
6

>  <i_lp_mmshare_version>  (217) 
48012

>  <i_f3d_flags>  (217) 
0

>  <s_epik_input>  (217) 
W0NIMl09W0NIXVtDSDJdW0NAXShDMT1DMltDQF0zNDUpKEMoPU8pW0NASF01W0NIMl0xKVtDSDJdW0NAQEhdKEMoTzMpKFtDSDNdKVtDSDNdKVtDQF02KFtDSDJdW0NIMl1bQ0gyXVtDSDNdKUMyPUMoW0NASF0oW0NIXT1bQ0gyXSlbQ0BIXShbQ0gzXSlbQ0gyXVtDSDJdNClbQ0BIXShbQ0gzXSlDKD1PKVtDSDJdW0NIMl02

>  <s_epik_cmdline>  (217) 
J2VwaWtfcHl0aG9uJywgJy1waHQnLCAnMi4wJywgJy1waCcsICc3LjAnLCAnLXRuJywgJzgnLCAnLW1hJywgJzIwMCcsICctaW1hZScsICc8aW5maWxlLm1hZT4nLCAnLW9tYWUnLCAnPG91dGZpbGUubWFlPic=

>  <r_lp_tautomer_probability>  (217) 
1

>  <r_epik_Ionization_Penalty>  (217) 
1.81891e-11

>  <r_epik_Ionization_Penalty_Charging>  (217) 
0

>  <r_epik_Ionization_Penalty_Neutral>  (217) 
1.81891e-11

>  <r_epik_State_Penalty>  (217) 
-0

>  <r_epik_Charging_Adjusted_Penalty>  (217) 
0

>  <i_epik_Tot_Q>  (217) 
0

>  <i_epik_Tot_abs_Q>  (217) 
0

>  <s_lp_Force_Field>  (217) 
OPLS3e

>  <r_lp_Energy>  (217) 
138.076

>  <b_lp_Chiralities_Consistent>  (217) 
1

>  <s_lp_Variant>  (217) 
61:0-1

>  <s_i_glide_gridfile>  (217) 
pfpi4k_grid

>  <i_i_glide_lignum>  (217) 
6

>  <i_i_glide_rotatable_bonds>  (217) 
6

>  <r_i_docking_score>  (217) 
-1.28995

>  <r_i_glide_ligand_efficiency>  (217) 
-0.0348635

>  <r_i_glide_ligand_efficiency_sa>  (217) 
-0.116173

>  <r_i_glide_ligand_efficiency_ln>  (217) 
-0.27976

>  <r_i_glide_gscore>  (217) 
-1.28995

>  <r_i_glide_lipo>  (217) 
-0.16359

>  <r_i_glide_hbond>  (217) 
0

>  <r_i_glide_metal>  (217) 
-0

>  <r_i_glide_rewards>  (217) 
0

>  <r_i_glide_evdw>  (217) 
-24.092

>  <r_i_glide_ecoul>  (217) 
-1.93334

>  <r_i_glide_erotb>  (217) 
0.404281

>  <r_i_glide_esite>  (217) 
-0.0360433

>  <r_i_glide_emodel>  (217) 
-27.1393

>  <r_i_glide_energy>  (217) 
-26.0253

>  <r_i_glide_einternal>  (217) 
0.948039

>  <r_i_glide_intrahb_reward>  (217) 
-0

>  <i_i_glide_confnum>  (217) 
4

>  <i_i_glide_posenum>  (217) 
1

>  <r_i_glide_eff_state_penalty>  (217) 
0

>  <ligand_id>  (217) 
61

>  <original_smiles>  (217) 
C=CCC12CC3C(C)(C)OC45CCC(C)C(C=C)C6=C(C4=C1CC5C2=O)C3(CCCC)CCC(=O)C6C

>  <smiles>  (217) 
[H]C([H])=C([H])C([H])([H])C12C(=O)C3([H])C([H])([H])C1=C1C4=C5C([H])(C([H])([H])[H])C(=O)C([H])([H])C([H])([H])C4(C([H])([H])C([H])([H])C([H])([H])C([H])([H])[H])C([H])(C2([H])[H])C(C([H])([H])[H])(C([H])([H])[H])OC13C([H])([H])C([H])([H])C([H])(C([H])([H])[H])C5([H])C([H])=C([H])[H]

$$$$
62:0:0
     RDKit          3D

102106  0  0  1  0  0  0  0  0999 V2000
    0.6517    0.7550    1.6298 C   0  0  0  0  0  0  0  0  0  0  0  0
    0.7508    0.1548    3.0761 C   0  0  2  0  0  0  0  0  0  0  0  0
   -0.5141    0.4556    3.9509 C   0  0  0  0  0  0  0  0  0  0  0  0
   -0.7288    1.8811    4.4548 C   0  0  0  0  0  0  0  0  0  0  0  0
   -0.3243    2.9760    3.8026 C   0  0  0  0  0  0  0  0  0  0  0  0
   -0.3668    4.4290    4.2206 C   0  0  0  0  0  0  0  0  0  0  0  0
   -0.9162    4.6130    5.6338 C   0  0  0  0  0  0  0  0  0  0  0  0
    0.9992    5.1032    4.0525 C   0  0  0  0  0  0  0  0  0  0  0  0
   -1.2141    5.0671    3.2892 O   0  0  0  0  0  0  0  0  0  0  0  0
    2.1252    0.2882    3.8550 C   0  0  2  0  0  0  0  0  0  0  0  0
    2.7607    1.7186    3.8473 C   0  0  0  0  0  0  0  0  0  0  0  0
    3.3177    2.1573    5.2002 C   0  0  0  0  0  0  0  0  0  0  0  0
    3.7685    1.3603    6.1815 C   0  0  0  0  0  0  0  0  0  0  0  0
    4.4832    1.6636    7.4767 C   0  0  0  0  0  0  0  0  0  0  0  0
    5.2085    0.3466    7.1245 C   0  0  0  0  0  0  0  0  0  0  0  0
    4.0570   -0.1218    6.1951 C   0  0  1  0  0  0  0  0  0  0  0  0
    2.9738   -0.9217    6.9610 C   0  0  0  0  0  0  0  0  0  0  0  0
    4.4222   -0.6997    4.7735 C   0  0  1  0  0  0  0  0  0  0  0  0
    5.4994    0.2047    4.0574 C   0  0  0  0  0  0  0  0  0  0  0  0
    5.0896   -2.0823    5.0325 C   0  0  0  0  0  0  0  0  0  0  0  0
    4.9869   -3.1001    3.8943 C   0  0  0  0  0  0  0  0  0  0  0  0
    4.8783   -2.4659    2.4872 C   0  0  1  0  0  0  0  0  0  0  0  0
    5.1726   -3.4838    1.3130 C   0  0  0  0  0  0  0  0  0  0  0  0
    5.4877   -2.7414   -0.0186 C   0  0  0  0  0  0  0  0  0  0  0  0
    6.4404   -4.3285    1.5784 C   0  0  0  0  0  0  0  0  0  0  0  0
    3.9752   -4.4430    1.1128 C   0  0  1  0  0  0  0  0  0  0  0  0
    3.8523   -5.3279    2.2532 O   0  0  0  0  0  0  0  0  0  0  0  0
    2.9097   -6.3509    2.1263 C   0  0  2  0  0  0  0  0  0  0  0  0
    1.6624   -5.8688    2.5325 O   0  0  0  0  0  0  0  0  0  0  0  0
    0.5654   -6.7661    2.4073 C   0  0  1  0  0  0  0  0  0  0  0  0
    0.2897   -7.1111    0.9148 C   0  0  0  0  0  0  0  0  0  0  0  0
    0.8160   -7.9616    3.3557 C   0  0  1  0  0  0  0  0  0  0  0  0
   -0.2958   -8.8444    3.3357 O   0  0  0  0  0  0  0  0  0  0  0  0
    2.1732   -8.6374    3.0633 C   0  0  1  0  0  0  0  0  0  0  0  0
    2.1515   -9.3641    1.8310 O   0  0  0  0  0  0  0  0  0  0  0  0
    3.3010   -7.5504    3.0540 C   0  0  1  0  0  0  0  0  0  0  0  0
    4.4770   -8.1959    2.5986 O   0  0  0  0  0  0  0  0  0  0  0  0
    2.6867   -3.6407    0.8913 C   0  0  0  0  0  0  0  0  0  0  0  0
    2.3858   -2.6900    2.0594 C   0  0  0  0  0  0  0  0  0  0  0  0
    3.5223   -1.6476    2.4048 C   0  0  2  0  0  0  0  0  0  0  0  0
    3.6447   -0.5860    1.2716 C   0  0  0  0  0  0  0  0  0  0  0  0
    3.1656   -0.9179    3.8075 C   0  0  2  0  0  0  0  0  0  0  0  0
    0.9632    1.7986    1.5308 H   0  0  0  0  0  0  0  0  0  0  0  0
   -0.3879    0.6720    1.2897 H   0  0  0  0  0  0  0  0  0  0  0  0
    1.2057    0.1859    0.8832 H   0  0  0  0  0  0  0  0  0  0  0  0
    0.6005   -0.9175    2.9930 H   0  0  0  0  0  0  0  0  0  0  0  0
   -1.3930    0.1475    3.4037 H   0  0  0  0  0  0  0  0  0  0  0  0
   -0.4865   -0.2267    4.8002 H   0  0  0  0  0  0  0  0  0  0  0  0
   -1.2623    1.9223    5.4134 H   0  0  0  0  0  0  0  0  0  0  0  0
    0.1526    2.9168    2.8148 H   0  0  0  0  0  0  0  0  0  0  0  0
   -0.2503    4.1311    6.3610 H   0  0  0  0  0  0  0  0  0  0  0  0
   -1.9094    4.1570    5.7354 H   0  0  0  0  0  0  0  0  0  0  0  0
   -0.9790    5.6758    5.8851 H   0  0  0  0  0  0  0  0  0  0  0  0
    1.7638    4.6461    4.6795 H   0  0  0  0  0  0  0  0  0  0  0  0
    0.9718    6.1592    4.3109 H   0  0  0  0  0  0  0  0  0  0  0  0
    1.3688    5.0374    3.0257 H   0  0  0  0  0  0  0  0  0  0  0  0
   -0.8476    4.8825    2.4431 H   0  0  0  0  0  0  0  0  0  0  0  0
    1.7544    0.2162    4.8725 H   0  0  0  0  0  0  0  0  0  0  0  0
    3.5078    1.8603    3.0630 H   0  0  0  0  0  0  0  0  0  0  0  0
    2.0272    2.4783    3.6517 H   0  0  0  0  0  0  0  0  0  0  0  0
    3.3437    3.2121    5.3830 H   0  0  0  0  0  0  0  0  0  0  0  0
    5.1389    2.5274    7.5046 H   0  0  0  0  0  0  0  0  0  0  0  0
    3.8803    1.6007    8.3864 H   0  0  0  0  0  0  0  0  0  0  0  0
    6.1671    0.5136    6.6283 H   0  0  0  0  0  0  0  0  0  0  0  0
    5.3306   -0.2918    7.9978 H   0  0  0  0  0  0  0  0  0  0  0  0
    3.3840   -1.8358    7.3970 H   0  0  0  0  0  0  0  0  0  0  0  0
    2.1174   -1.2201    6.3619 H   0  0  0  0  0  0  0  0  0  0  0  0
    2.5889   -0.3517    7.8007 H   0  0  0  0  0  0  0  0  0  0  0  0
    5.2026    0.4921    3.0522 H   0  0  0  0  0  0  0  0  0  0  0  0
    6.4779   -0.2578    3.9443 H   0  0  0  0  0  0  0  0  0  0  0  0
    5.6996    1.1479    4.5566 H   0  0  0  0  0  0  0  0  0  0  0  0
    6.1324   -1.9383    5.2989 H   0  0  0  0  0  0  0  0  0  0  0  0
    4.6784   -2.5732    5.9074 H   0  0  0  0  0  0  0  0  0  0  0  0
    5.8291   -3.7773    3.9983 H   0  0  0  0  0  0  0  0  0  0  0  0
    4.1033   -3.7108    4.0894 H   0  0  0  0  0  0  0  0  0  0  0  0
    5.7030   -1.7588    2.4269 H   0  0  0  0  0  0  0  0  0  0  0  0
    5.8469   -3.4297   -0.7810 H   0  0  0  0  0  0  0  0  0  0  0  0
    6.2482   -1.9755    0.1272 H   0  0  0  0  0  0  0  0  0  0  0  0
    4.6251   -2.2530   -0.4631 H   0  0  0  0  0  0  0  0  0  0  0  0
    6.7205   -4.9119    0.7046 H   0  0  0  0  0  0  0  0  0  0  0  0
    6.3038   -5.0523    2.3832 H   0  0  0  0  0  0  0  0  0  0  0  0
    7.2814   -3.6900    1.8282 H   0  0  0  0  0  0  0  0  0  0  0  0
    4.1580   -5.0427    0.2168 H   0  0  0  0  0  0  0  0  0  0  0  0
    2.8937   -6.6522    1.0790 H   0  0  0  0  0  0  0  0  0  0  0  0
   -0.3121   -6.2482    2.8013 H   0  0  0  0  0  0  0  0  0  0  0  0
   -0.5528   -7.8056    0.8468 H   0  0  0  0  0  0  0  0  0  0  0  0
    1.1330   -7.6087    0.4477 H   0  0  0  0  0  0  0  0  0  0  0  0
    0.0606   -6.2271    0.3198 H   0  0  0  0  0  0  0  0  0  0  0  0
    0.8411   -7.5755    4.3787 H   0  0  0  0  0  0  0  0  0  0  0  0
   -0.1440   -9.5879    3.8959 H   0  0  0  0  0  0  0  0  0  0  0  0
    2.3906   -9.3545    3.8617 H   0  0  0  0  0  0  0  0  0  0  0  0
    2.8635   -9.9694    1.8081 H   0  0  0  0  0  0  0  0  0  0  0  0
    3.4517   -7.1392    4.0521 H   0  0  0  0  0  0  0  0  0  0  0  0
    4.2881   -8.5715    1.7586 H   0  0  0  0  0  0  0  0  0  0  0  0
    2.7131   -3.0811   -0.0430 H   0  0  0  0  0  0  0  0  0  0  0  0
    1.8416   -4.3089    0.7480 H   0  0  0  0  0  0  0  0  0  0  0  0
    1.4564   -2.2087    1.7701 H   0  0  0  0  0  0  0  0  0  0  0  0
    2.1809   -3.3087    2.9416 H   0  0  0  0  0  0  0  0  0  0  0  0
    3.2406    0.3810    1.5486 H   0  0  0  0  0  0  0  0  0  0  0  0
    3.1182   -0.8885    0.3639 H   0  0  0  0  0  0  0  0  0  0  0  0
    4.6783   -0.3644    0.9949 H   0  0  0  0  0  0  0  0  0  0  0  0
    2.6190   -1.7004    4.3277 H   0  0  0  0  0  0  0  0  0  0  0  0
  1  2  1  0
  1 43  1  0
  1 44  1  0
  1 45  1  0
  2  3  1  0
  2 10  1  0
  2 46  1  6
  3  4  1  0
  3 47  1  0
  3 48  1  0
  4  5  2  3
  4 49  1  0
  5  6  1  0
  5 50  1  0
  6  7  1  0
  6  8  1  0
  6  9  1  0
  7 51  1  0
  7 52  1  0
  7 53  1  0
  8 54  1  0
  8 55  1  0
  8 56  1  0
  9 57  1  0
 10 42  1  0
 10 11  1  0
 10 58  1  1
 11 12  1  0
 11 59  1  0
 11 60  1  0
 12 13  2  0
 12 61  1  0
 13 16  1  0
 13 14  1  0
 14 15  1  0
 14 62  1  0
 14 63  1  0
 15 16  1  0
 15 64  1  0
 15 65  1  0
 16 17  1  1
 16 18  1  0
 17 66  1  0
 17 67  1  0
 17 68  1  0
 18 42  1  0
 18 19  1  6
 18 20  1  0
 19 69  1  0
 19 70  1  0
 19 71  1  0
 20 21  1  0
 20 72  1  0
 20 73  1  0
 21 22  1  0
 21 74  1  0
 21 75  1  0
 22 40  1  0
 22 23  1  0
 22 76  1  1
 23 24  1  0
 23 25  1  0
 23 26  1  0
 24 77  1  0
 24 78  1  0
 24 79  1  0
 25 80  1  0
 25 81  1  0
 25 82  1  0
 26 27  1  0
 26 38  1  0
 26 83  1  6
 27 28  1  0
 28 36  1  0
 28 29  1  0
 28 84  1  6
 29 30  1  0
 30 31  1  0
 30 32  1  0
 30 85  1  1
 31 86  1  0
 31 87  1  0
 31 88  1  0
 32 33  1  0
 32 34  1  0
 32 89  1  1
 33 90  1  0
 34 35  1  0
 34 36  1  0
 34 91  1  1
 35 92  1  0
 36 37  1  0
 36 93  1  1
 37 94  1  0
 38 39  1  0
 38 95  1  0
 38 96  1  0
 39 40  1  0
 39 97  1  0
 39 98  1  0
 40 41  1  6
 40 42  1  0
 41 99  1  0
 41100  1  0
 41101  1  0
 42102  1  1
M  END
>  <i_m_ct_stereo_status>  (218) 
1

>  <s_m_source_file>  (218) 
/var/tmp/pbs.5076255.sched01/tmp4185l44a/86vs10_z9v.sdf

>  <i_m_source_file_index>  (218) 
7

>  <i_lp_mmshare_version>  (218) 
48012

>  <i_f3d_flags>  (218) 
0

>  <s_epik_input>  (218) 
W0NIM11DKFtDSDNdKShbT0hdKVxbQ0hdPVtDSF1cW0NIMl1bQ0BASF0oW0NIM10pW0NASF0oW0NIMl1bQ0hdPUMoW0NIMl1bQ0gyXTEpW0NAXTEyW0NIM10pW0NAQEhdM1tDQF0yKFtDSDNdKVtDSDJdW0NIMl1bQ0BASF00W0NAQF0zKFtDSDNdKVtDSDJdW0NIMl1bQ0BASF0oQzQoW0NIM10pW0NIM10pT1tDQEBIXTVPW0NAQEhdKFtDSDNdKVtDQEBIXShbT0hdKVtDQEBIXShbT0hdKVtDQEhdNVtPSF0=

>  <s_epik_cmdline>  (218) 
J2VwaWtfcHl0aG9uJywgJy1waHQnLCAnMi4wJywgJy1waCcsICc3LjAnLCAnLXRuJywgJzgnLCAnLW1hJywgJzIwMCcsICctaW1hZScsICc8aW5maWxlLm1hZT4nLCAnLW9tYWUnLCAnPG91dGZpbGUubWFlPic=

>  <r_lp_tautomer_probability>  (218) 
1

>  <r_epik_Ionization_Penalty>  (218) 
1.75393e-06

>  <r_epik_Ionization_Penalty_Charging>  (218) 
0

>  <r_epik_Ionization_Penalty_Neutral>  (218) 
1.75393e-06

>  <r_epik_State_Penalty>  (218) 
-0

>  <r_epik_Charging_Adjusted_Penalty>  (218) 
0

>  <i_epik_Tot_Q>  (218) 
0

>  <i_epik_Tot_abs_Q>  (218) 
0

>  <s_epik_Chemistry_Notes>  (218) 
This compound contains an acetal/aminal-like group ( X-CH(R)-Y where X, Y are N, S, or O) that may be acid/base labile, releasing an aldehyde.

>  <s_lp_Force_Field>  (218) 
OPLS3e

>  <r_lp_Energy>  (218) 
100.61

>  <b_lp_Chiralities_Consistent>  (218) 
1

>  <s_lp_Variant>  (218) 
62:0-1

>  <s_i_glide_gridfile>  (218) 
pfpi4k_grid

>  <i_i_glide_lignum>  (218) 
7

>  <i_i_glide_rotatable_bonds>  (218) 
10

>  <r_i_docking_score>  (218) 
-2.74065

>  <r_i_glide_ligand_efficiency>  (218) 
-0.0652537

>  <r_i_glide_ligand_efficiency_sa>  (218) 
-0.226823

>  <r_i_glide_ligand_efficiency_ln>  (218) 
-0.578481

>  <r_i_glide_gscore>  (218) 
-2.74065

>  <r_i_glide_lipo>  (218) 
-0.391877

>  <r_i_glide_hbond>  (218) 
-0.32

>  <r_i_glide_metal>  (218) 
-0

>  <r_i_glide_rewards>  (218) 
-0.000823064

>  <r_i_glide_evdw>  (218) 
-26.9278

>  <r_i_glide_ecoul>  (218) 
-6.24413

>  <r_i_glide_erotb>  (218) 
0.255053

>  <r_i_glide_esite>  (218) 
0

>  <r_i_glide_emodel>  (218) 
-33.6329

>  <r_i_glide_energy>  (218) 
-33.1719

>  <r_i_glide_einternal>  (218) 
6.49081

>  <r_i_glide_intrahb_reward>  (218) 
-0

>  <i_i_glide_confnum>  (218) 
7

>  <i_i_glide_posenum>  (218) 
2

>  <r_i_glide_eff_state_penalty>  (218) 
0

>  <ligand_id>  (218) 
62

>  <original_smiles>  (218) 
CC(CC=CC(C)(C)O)C1CC=C2CCC2(C)C2(C)CCC3C(C)(C)C(OC4OC(C)C(O)C(O)C4O)CCC3(C)C12

>  <smiles>  (218) 
[H]OC1([H])C([H])(OC2([H])C([H])([H])C([H])([H])C3(C([H])([H])[H])C([H])(C([H])([H])C([H])([H])C4(C([H])([H])[H])C3([H])C([H])(C([H])(C([H])([H])[H])C([H])([H])C([H])=C([H])C(O[H])(C([H])([H])[H])C([H])([H])[H])C([H])([H])C([H])=C3C([H])([H])C([H])([H])C34C([H])([H])[H])C2(C([H])([H])[H])C([H])([H])[H])OC([H])(C([H])([H])[H])C([H])(O[H])C1([H])O[H]

$$$$
62:0:1
     RDKit          3D

102106  0  0  1  0  0  0  0  0999 V2000
    0.8309   -5.2110    5.1576 C   0  0  0  0  0  0  0  0  0  0  0  0
    0.9162   -5.0868    3.6107 C   0  0  2  0  0  0  0  0  0  0  0  0
    0.1416   -6.2638    2.9575 C   0  0  0  0  0  0  0  0  0  0  0  0
    0.9224   -7.5638    2.9205 C   0  0  0  0  0  0  0  0  0  0  0  0
    0.7342   -8.6458    3.6447 C   0  0  0  0  0  0  0  0  0  0  0  0
    1.5596   -9.9470    3.5760 C   0  0  0  0  0  0  0  0  0  0  0  0
    2.1824  -10.3009    4.9345 C   0  0  0  0  0  0  0  0  0  0  0  0
    0.6895  -11.0866    3.0556 C   0  0  0  0  0  0  0  0  0  0  0  0
    2.6348   -9.7948    2.6545 O   0  0  0  0  0  0  0  0  0  0  0  0
    2.3209   -4.7395    2.9856 C   0  0  2  0  0  0  0  0  0  0  0  0
    3.4184   -5.8382    3.1622 C   0  0  0  0  0  0  0  0  0  0  0  0
    4.2314   -6.0897    1.8969 C   0  0  0  0  0  0  0  0  0  0  0  0
    4.4779   -5.2241    0.9145 C   0  0  0  0  0  0  0  0  0  0  0  0
    5.3893   -5.2915   -0.2969 C   0  0  0  0  0  0  0  0  0  0  0  0
    5.5622   -3.7893   -0.0255 C   0  0  0  0  0  0  0  0  0  0  0  0
    4.2156   -3.7437    0.7628 C   0  0  1  0  0  0  0  0  0  0  0  0
    3.0196   -3.4254   -0.1643 C   0  0  0  0  0  0  0  0  0  0  0  0
    4.1920   -2.9911    2.1475 C   0  0  1  0  0  0  0  0  0  0  0  0
    5.4404   -3.3957    3.0142 C   0  0  0  0  0  0  0  0  0  0  0  0
    4.3550   -1.4682    1.8357 C   0  0  0  0  0  0  0  0  0  0  0  0
    3.7670   -0.5060    2.8583 C   0  0  0  0  0  0  0  0  0  0  0  0
    3.7496   -1.0791    4.2954 C   0  0  1  0  0  0  0  0  0  0  0  0
    3.5231    0.0233    5.4154 C   0  0  0  0  0  0  0  0  0  0  0  0
    3.9397   -0.4769    6.8242 C   0  0  0  0  0  0  0  0  0  0  0  0
    4.4159    1.2632    5.1839 C   0  0  0  0  0  0  0  0  0  0  0  0
    2.0385    0.4699    5.4361 C   0  0  1  0  0  0  0  0  0  0  0  0
    1.7167    1.2345    4.2617 O   0  0  0  0  0  0  0  0  0  0  0  0
    0.6869    2.1856    4.3948 C   0  0  2  0  0  0  0  0  0  0  0  0
   -0.5136    1.6043    3.9589 O   0  0  0  0  0  0  0  0  0  0  0  0
   -1.6607    2.4337    4.0704 C   0  0  1  0  0  0  0  0  0  0  0  0
   -1.9988    2.7226    5.5497 C   0  0  0  0  0  0  0  0  0  0  0  0
   -1.4659    3.6783    3.1983 C   0  0  1  0  0  0  0  0  0  0  0  0
   -2.6165    4.4935    3.2831 O   0  0  0  0  0  0  0  0  0  0  0  0
   -0.1686    4.4200    3.5533 C   0  0  1  0  0  0  0  0  0  0  0  0
   -0.2797    5.0244    4.8282 O   0  0  0  0  0  0  0  0  0  0  0  0
    1.0174    3.4284    3.5359 C   0  0  1  0  0  0  0  0  0  0  0  0
    2.1250    4.1313    4.0653 O   0  0  0  0  0  0  0  0  0  0  0  0
    1.0894   -0.7272    5.5773 C   0  0  0  0  0  0  0  0  0  0  0  0
    1.3099   -1.7701    4.4687 C   0  0  0  0  0  0  0  0  0  0  0  0
    2.7728   -2.3450    4.3404 C   0  0  2  0  0  0  0  0  0  0  0  0
    3.1905   -3.2063    5.5692 C   0  0  0  0  0  0  0  0  0  0  0  0
    2.8524   -3.2245    2.9922 C   0  0  2  0  0  0  0  0  0  0  0  0
    1.5216   -5.9750    5.5260 H   0  0  0  0  0  0  0  0  0  0  0  0
   -0.1776   -5.5709    5.4213 H   0  0  0  0  0  0  0  0  0  0  0  0
    1.0754   -4.2765    5.6890 H   0  0  0  0  0  0  0  0  0  0  0  0
    0.3231   -4.2417    3.3169 H   0  0  0  0  0  0  0  0  0  0  0  0
   -0.8031   -6.4379    3.5041 H   0  0  0  0  0  0  0  0  0  0  0  0
   -0.1764   -6.0061    1.9351 H   0  0  0  0  0  0  0  0  0  0  0  0
    1.7387   -7.5298    2.2038 H   0  0  0  0  0  0  0  0  0  0  0  0
   -0.0566   -8.6802    4.4124 H   0  0  0  0  0  0  0  0  0  0  0  0
    1.4146  -10.4596    5.6845 H   0  0  0  0  0  0  0  0  0  0  0  0
    2.8509   -9.5171    5.2826 H   0  0  0  0  0  0  0  0  0  0  0  0
    2.7561  -11.2191    4.8487 H   0  0  0  0  0  0  0  0  0  0  0  0
   -0.1597  -11.2295    3.7204 H   0  0  0  0  0  0  0  0  0  0  0  0
    1.2476  -12.0233    3.0080 H   0  0  0  0  0  0  0  0  0  0  0  0
    0.2948  -10.8668    2.0612 H   0  0  0  0  0  0  0  0  0  0  0  0
    2.9779  -10.6535    2.4194 H   0  0  0  0  0  0  0  0  0  0  0  0
    2.0678   -4.8634    1.9454 H   0  0  0  0  0  0  0  0  0  0  0  0
    4.1446   -5.5743    3.9497 H   0  0  0  0  0  0  0  0  0  0  0  0
    2.9630   -6.7946    3.3754 H   0  0  0  0  0  0  0  0  0  0  0  0
    4.6658   -7.0622    1.7870 H   0  0  0  0  0  0  0  0  0  0  0  0
    6.3166   -5.8557   -0.1960 H   0  0  0  0  0  0  0  0  0  0  0  0
    4.9452   -5.4827   -1.2822 H   0  0  0  0  0  0  0  0  0  0  0  0
    6.4691   -3.5687    0.5492 H   0  0  0  0  0  0  0  0  0  0  0  0
    5.5488   -3.1999   -0.9469 H   0  0  0  0  0  0  0  0  0  0  0  0
    3.0998   -2.4461   -0.6458 H   0  0  0  0  0  0  0  0  0  0  0  0
    2.0648   -3.4433    0.3468 H   0  0  0  0  0  0  0  0  0  0  0  0
    2.9666   -4.1488   -0.9722 H   0  0  0  0  0  0  0  0  0  0  0  0
    5.1884   -3.7147    4.0152 H   0  0  0  0  0  0  0  0  0  0  0  0
    6.1448   -2.5815    3.1363 H   0  0  0  0  0  0  0  0  0  0  0  0
    6.0277   -4.2195    2.6191 H   0  0  0  0  0  0  0  0  0  0  0  0
    5.4044   -1.2391    1.7036 H   0  0  0  0  0  0  0  0  0  0  0  0
    3.8907   -1.2033    0.8869 H   0  0  0  0  0  0  0  0  0  0  0  0
    4.3409    0.4169    2.7855 H   0  0  0  0  0  0  0  0  0  0  0  0
    2.7519   -0.2735    2.5549 H   0  0  0  0  0  0  0  0  0  0  0  0
    4.7638   -1.4210    4.4956 H   0  0  0  0  0  0  0  0  0  0  0  0
    3.9427    0.3397    7.5458 H   0  0  0  0  0  0  0  0  0  0  0  0
    4.9418   -0.9050    6.8005 H   0  0  0  0  0  0  0  0  0  0  0  0
    3.2687   -1.2158    7.2435 H   0  0  0  0  0  0  0  0  0  0  0  0
    4.3694    1.9385    6.0361 H   0  0  0  0  0  0  0  0  0  0  0  0
    4.1063    1.8530    4.3237 H   0  0  0  0  0  0  0  0  0  0  0  0
    5.4533    0.9605    5.0413 H   0  0  0  0  0  0  0  0  0  0  0  0
    1.9335    1.1005    6.3149 H   0  0  0  0  0  0  0  0  0  0  0  0
    0.5588    2.4831    5.4364 H   0  0  0  0  0  0  0  0  0  0  0  0
   -2.4632    1.8777    3.6077 H   0  0  0  0  0  0  0  0  0  0  0  0
   -2.9108    3.3215    5.6418 H   0  0  0  0  0  0  0  0  0  0  0  0
   -1.1751    3.2800    6.0286 H   0  0  0  0  0  0  0  0  0  0  0  0
   -2.2257    1.7875    6.0754 H   0  0  0  0  0  0  0  0  0  0  0  0
   -1.3739    3.3533    2.1625 H   0  0  0  0  0  0  0  0  0  0  0  0
   -3.3358    4.0620    2.8314 H   0  0  0  0  0  0  0  0  0  0  0  0
    0.0445    5.2229    2.8392 H   0  0  0  0  0  0  0  0  0  0  0  0
    0.5843    5.3540    5.0368 H   0  0  0  0  0  0  0  0  0  0  0  0
    1.2450    3.0878    2.5289 H   0  0  0  0  0  0  0  0  0  0  0  0
    2.4244    4.7621    3.4228 H   0  0  0  0  0  0  0  0  0  0  0  0
    1.1997   -1.1890    6.5572 H   0  0  0  0  0  0  0  0  0  0  0  0
    0.0574   -0.3820    5.5422 H   0  0  0  0  0  0  0  0  0  0  0  0
    0.5664   -2.5504    4.6080 H   0  0  0  0  0  0  0  0  0  0  0  0
    1.0206   -1.2757    3.5364 H   0  0  0  0  0  0  0  0  0  0  0  0
    3.1381   -4.2708    5.3809 H   0  0  0  0  0  0  0  0  0  0  0  0
    2.5330   -3.0594    6.4202 H   0  0  0  0  0  0  0  0  0  0  0  0
    4.2146   -2.9942    5.8997 H   0  0  0  0  0  0  0  0  0  0  0  0
    2.1171   -2.7253    2.3680 H   0  0  0  0  0  0  0  0  0  0  0  0
  1  2  1  0
  1 43  1  0
  1 44  1  0
  1 45  1  0
  2  3  1  0
  2 10  1  0
  2 46  1  6
  3  4  1  0
  3 47  1  0
  3 48  1  0
  4  5  2  3
  4 49  1  0
  5  6  1  0
  5 50  1  0
  6  7  1  0
  6  8  1  0
  6  9  1  0
  7 51  1  0
  7 52  1  0
  7 53  1  0
  8 54  1  0
  8 55  1  0
  8 56  1  0
  9 57  1  0
 10 42  1  0
 10 11  1  0
 10 58  1  6
 11 12  1  0
 11 59  1  0
 11 60  1  0
 12 13  2  0
 12 61  1  0
 13 16  1  0
 13 14  1  0
 14 15  1  0
 14 62  1  0
 14 63  1  0
 15 16  1  0
 15 64  1  0
 15 65  1  0
 16 17  1  6
 16 18  1  0
 17 66  1  0
 17 67  1  0
 17 68  1  0
 18 42  1  0
 18 19  1  1
 18 20  1  0
 19 69  1  0
 19 70  1  0
 19 71  1  0
 20 21  1  0
 20 72  1  0
 20 73  1  0
 21 22  1  0
 21 74  1  0
 21 75  1  0
 22 40  1  0
 22 23  1  0
 22 76  1  1
 23 24  1  0
 23 25  1  0
 23 26  1  0
 24 77  1  0
 24 78  1  0
 24 79  1  0
 25 80  1  0
 25 81  1  0
 25 82  1  0
 26 27  1  0
 26 38  1  0
 26 83  1  1
 27 28  1  0
 28 36  1  0
 28 29  1  0
 28 84  1  1
 29 30  1  0
 30 31  1  0
 30 32  1  0
 30 85  1  6
 31 86  1  0
 31 87  1  0
 31 88  1  0
 32 33  1  0
 32 34  1  0
 32 89  1  6
 33 90  1  0
 34 35  1  0
 34 36  1  0
 34 91  1  6
 35 92  1  0
 36 37  1  0
 36 93  1  6
 37 94  1  0
 38 39  1  0
 38 95  1  0
 38 96  1  0
 39 40  1  0
 39 97  1  0
 39 98  1  0
 40 41  1  1
 40 42  1  0
 41 99  1  0
 41100  1  0
 41101  1  0
 42102  1  6
M  END
>  <i_m_ct_stereo_status>  (219) 
1

>  <s_m_source_file>  (219) 
/var/tmp/pbs.5076255.sched01/tmp4185l44a/86vs10_z9v.sdf

>  <i_m_source_file_index>  (219) 
7

>  <i_lp_mmshare_version>  (219) 
48012

>  <i_f3d_flags>  (219) 
0

>  <s_epik_input>  (219) 
W0NIM11DKFtDSDNdKShbT0hdKVxbQ0hdPVtDSF1cW0NIMl1bQ0BASF0oW0NIM10pW0NASF0oW0NIMl1bQ0hdPUMoW0NIMl1bQ0gyXTEpW0NAXTEyW0NIM10pW0NAQEhdM1tDQF0yKFtDSDNdKVtDSDJdW0NIMl1bQ0BASF00W0NAQF0zKFtDSDNdKVtDSDJdW0NIMl1bQ0BASF0oQzQoW0NIM10pW0NIM10pT1tDQEBIXTVPW0NAQEhdKFtDSDNdKVtDQEBIXShbT0hdKVtDQEBIXShbT0hdKVtDQEhdNVtPSF0=

>  <s_epik_cmdline>  (219) 
J2VwaWtfcHl0aG9uJywgJy1waHQnLCAnMi4wJywgJy1waCcsICc3LjAnLCAnLXRuJywgJzgnLCAnLW1hJywgJzIwMCcsICctaW1hZScsICc8aW5maWxlLm1hZT4nLCAnLW9tYWUnLCAnPG91dGZpbGUubWFlPic=

>  <r_lp_tautomer_probability>  (219) 
1

>  <r_epik_Ionization_Penalty>  (219) 
1.75393e-06

>  <r_epik_Ionization_Penalty_Charging>  (219) 
0

>  <r_epik_Ionization_Penalty_Neutral>  (219) 
1.75393e-06

>  <r_epik_State_Penalty>  (219) 
-0

>  <r_epik_Charging_Adjusted_Penalty>  (219) 
0

>  <i_epik_Tot_Q>  (219) 
0

>  <i_epik_Tot_abs_Q>  (219) 
0

>  <s_epik_Chemistry_Notes>  (219) 
This compound contains an acetal/aminal-like group ( X-CH(R)-Y where X, Y are N, S, or O) that may be acid/base labile, releasing an aldehyde.

>  <s_lp_Force_Field>  (219) 
OPLS3e

>  <r_lp_Energy>  (219) 
100.61

>  <b_lp_Chiralities_Consistent>  (219) 
1

>  <s_lp_Variant>  (219) 
62:0-1

>  <s_i_glide_gridfile>  (219) 
pfpi4k_grid

>  <i_i_glide_lignum>  (219) 
7

>  <i_i_glide_rotatable_bonds>  (219) 
10

>  <r_i_docking_score>  (219) 
-2.5818

>  <r_i_glide_ligand_efficiency>  (219) 
-0.0614713

>  <r_i_glide_ligand_efficiency_sa>  (219) 
-0.213676

>  <r_i_glide_ligand_efficiency_ln>  (219) 
-0.544951

>  <r_i_glide_gscore>  (219) 
-2.5818

>  <r_i_glide_lipo>  (219) 
-0.393976

>  <r_i_glide_hbond>  (219) 
0

>  <r_i_glide_metal>  (219) 
-0

>  <r_i_glide_rewards>  (219) 
0

>  <r_i_glide_evdw>  (219) 
-25.2978

>  <r_i_glide_ecoul>  (219) 
-7.75811

>  <r_i_glide_erotb>  (219) 
0.255053

>  <r_i_glide_esite>  (219) 
-0.0142657

>  <r_i_glide_emodel>  (219) 
-32.6564

>  <r_i_glide_energy>  (219) 
-33.0559

>  <r_i_glide_einternal>  (219) 
7.9299

>  <r_i_glide_intrahb_reward>  (219) 
-0

>  <i_i_glide_confnum>  (219) 
6

>  <i_i_glide_posenum>  (219) 
31

>  <r_i_glide_eff_state_penalty>  (219) 
0

>  <ligand_id>  (219) 
62

>  <original_smiles>  (219) 
CC(CC=CC(C)(C)O)C1CC=C2CCC2(C)C2(C)CCC3C(C)(C)C(OC4OC(C)C(O)C(O)C4O)CCC3(C)C12

>  <smiles>  (219) 
[H]OC1([H])C([H])(OC2([H])C([H])([H])C([H])([H])C3(C([H])([H])[H])C([H])(C([H])([H])C([H])([H])C4(C([H])([H])[H])C3([H])C([H])(C([H])(C([H])([H])[H])C([H])([H])C([H])=C([H])C(O[H])(C([H])([H])[H])C([H])([H])[H])C([H])([H])C([H])=C3C([H])([H])C([H])([H])C34C([H])([H])[H])C2(C([H])([H])[H])C([H])([H])[H])OC([H])(C([H])([H])[H])C([H])(O[H])C1([H])O[H]

$$$$
62:0:2
     RDKit          3D

102106  0  0  1  0  0  0  0  0999 V2000
    1.6653   -5.1531    4.3762 C   0  0  0  0  0  0  0  0  0  0  0  0
    1.6837   -4.7487    2.8771 C   0  0  2  0  0  0  0  0  0  0  0  0
    1.0626   -5.9068    2.0268 C   0  0  0  0  0  0  0  0  0  0  0  0
    1.5356   -7.2974    2.3783 C   0  0  0  0  0  0  0  0  0  0  0  0
    0.7835   -8.2206    3.0638 C   0  0  0  0  0  0  0  0  0  0  0  0
    1.2490   -9.6115    3.4489 C   0  0  0  0  0  0  0  0  0  0  0  0
    2.5215  -10.0858    2.7193 C   0  0  0  0  0  0  0  0  0  0  0  0
    1.4098   -9.7264    4.9696 C   0  0  0  0  0  0  0  0  0  0  0  0
    0.2569  -10.5356    3.0972 O   0  0  0  0  0  0  0  0  0  0  0  0
    3.0090   -4.1361    2.2745 C   0  0  2  0  0  0  0  0  0  0  0  0
    4.2372   -5.0881    2.2929 C   0  0  0  0  0  0  0  0  0  0  0  0
    5.0637   -5.0677    1.0027 C   0  0  0  0  0  0  0  0  0  0  0  0
    5.1638   -4.0635    0.1349 C   0  0  0  0  0  0  0  0  0  0  0  0
    6.0566   -3.8405   -1.0628 C   0  0  0  0  0  0  0  0  0  0  0  0
    5.9855   -2.3762   -0.6080 C   0  0  0  0  0  0  0  0  0  0  0  0
    4.6763   -2.6157    0.1902 C   0  0  1  0  0  0  0  0  0  0  0  0
    3.4189   -2.3955   -0.6785 C   0  0  0  0  0  0  0  0  0  0  0  0
    4.5789   -2.0604    1.6595 C   0  0  1  0  0  0  0  0  0  0  0  0
    5.8953   -2.3744    2.4554 C   0  0  0  0  0  0  0  0  0  0  0  0
    4.5080   -0.5131    1.5278 C   0  0  0  0  0  0  0  0  0  0  0  0
    3.7879    0.2051    2.6738 C   0  0  0  0  0  0  0  0  0  0  0  0
    3.9031   -0.5132    4.0321 C   0  0  1  0  0  0  0  0  0  0  0  0
    3.5362    0.4140    5.2659 C   0  0  0  0  0  0  0  0  0  0  0  0
    4.0715   -0.1721    6.6014 C   0  0  0  0  0  0  0  0  0  0  0  0
    4.2336    1.7966    5.1765 C   0  0  0  0  0  0  0  0  0  0  0  0
    2.0006    0.6178    5.3472 C   0  0  1  0  0  0  0  0  0  0  0  0
    1.5437    1.3876    4.2292 O   0  0  0  0  0  0  0  0  0  0  0  0
    0.3209    2.0341    4.4025 C   0  0  2  0  0  0  0  0  0  0  0  0
   -0.6868    1.0849    4.3376 O   0  0  0  0  0  0  0  0  0  0  0  0
   -1.9977    1.5521    4.5209 C   0  0  1  0  0  0  0  0  0  0  0  0
   -2.2065    2.1073    5.9646 C   0  0  0  0  0  0  0  0  0  0  0  0
   -2.3437    2.5087    3.3655 C   0  0  1  0  0  0  0  0  0  0  0  0
   -3.6662    2.9906    3.4406 O   0  0  0  0  0  0  0  0  0  0  0  0
   -1.3237    3.6539    3.2585 C   0  0  1  0  0  0  0  0  0  0  0  0
   -1.4863    4.5532    4.3536 O   0  0  0  0  0  0  0  0  0  0  0  0
    0.1154    3.0512    3.2449 C   0  0  1  0  0  0  0  0  0  0  0  0
    1.0356    4.1176    3.3196 O   0  0  0  0  0  0  0  0  0  0  0  0
    1.2877   -0.7507    5.4044 C   0  0  0  0  0  0  0  0  0  0  0  0
    1.6208   -1.5900    4.1640 C   0  0  0  0  0  0  0  0  0  0  0  0
    3.1493   -1.8998    3.9327 C   0  0  2  0  0  0  0  0  0  0  0  0
    3.7266   -2.8272    5.0419 C   0  0  0  0  0  0  0  0  0  0  0  0
    3.3216   -2.5790    2.4785 C   0  0  2  0  0  0  0  0  0  0  0  0
    2.4821   -5.8359    4.6107 H   0  0  0  0  0  0  0  0  0  0  0  0
    0.7362   -5.6877    4.6029 H   0  0  0  0  0  0  0  0  0  0  0  0
    1.7270   -4.3156    5.0619 H   0  0  0  0  0  0  0  0  0  0  0  0
    0.9641   -3.9490    2.7541 H   0  0  0  0  0  0  0  0  0  0  0  0
   -0.0126   -5.8866    2.1883 H   0  0  0  0  0  0  0  0  0  0  0  0
    1.2123   -5.7413    0.9564 H   0  0  0  0  0  0  0  0  0  0  0  0
    2.5256   -7.5699    2.0770 H   0  0  0  0  0  0  0  0  0  0  0  0
   -0.2123   -7.9417    3.3681 H   0  0  0  0  0  0  0  0  0  0  0  0
    3.3881   -9.4669    2.9634 H   0  0  0  0  0  0  0  0  0  0  0  0
    2.3926  -10.0771    1.6358 H   0  0  0  0  0  0  0  0  0  0  0  0
    2.7682  -11.1080    3.0050 H   0  0  0  0  0  0  0  0  0  0  0  0
    2.1700   -9.0342    5.3384 H   0  0  0  0  0  0  0  0  0  0  0  0
    1.7141  -10.7357    5.2546 H   0  0  0  0  0  0  0  0  0  0  0  0
    0.4758   -9.5069    5.4910 H   0  0  0  0  0  0  0  0  0  0  0  0
   -0.4092  -10.5470    3.7806 H   0  0  0  0  0  0  0  0  0  0  0  0
    2.7312   -4.1579    1.2273 H   0  0  0  0  0  0  0  0  0  0  0  0
    4.8974   -4.9294    3.1421 H   0  0  0  0  0  0  0  0  0  0  0  0
    3.9173   -6.1118    2.3807 H   0  0  0  0  0  0  0  0  0  0  0  0
    5.6398   -5.9618    0.8011 H   0  0  0  0  0  0  0  0  0  0  0  0
    7.0728   -4.2074   -1.0134 H   0  0  0  0  0  0  0  0  0  0  0  0
    5.6165   -3.9992   -2.0441 H   0  0  0  0  0  0  0  0  0  0  0  0
    6.8553   -2.0824   -0.0152 H   0  0  0  0  0  0  0  0  0  0  0  0
    5.8557   -1.6807   -1.4447 H   0  0  0  0  0  0  0  0  0  0  0  0
    3.3493   -1.3657   -1.0344 H   0  0  0  0  0  0  0  0  0  0  0  0
    2.4837   -2.6198   -0.1806 H   0  0  0  0  0  0  0  0  0  0  0  0
    3.4510   -3.0113   -1.5787 H   0  0  0  0  0  0  0  0  0  0  0  0
    5.7079   -2.8493    3.4118 H   0  0  0  0  0  0  0  0  0  0  0  0
    6.4794   -1.4800    2.6702 H   0  0  0  0  0  0  0  0  0  0  0  0
    6.5860   -3.0486    1.9620 H   0  0  0  0  0  0  0  0  0  0  0  0
    5.5088   -0.0950    1.4063 H   0  0  0  0  0  0  0  0  0  0  0  0
    3.9906   -0.2023    0.6252 H   0  0  0  0  0  0  0  0  0  0  0  0
    4.2001    1.1975    2.7427 H   0  0  0  0  0  0  0  0  0  0  0  0
    2.7428    0.3300    2.3895 H   0  0  0  0  0  0  0  0  0  0  0  0
    4.9675   -0.7067    4.1687 H   0  0  0  0  0  0  0  0  0  0  0  0
    3.9746    0.5393    7.4220 H   0  0  0  0  0  0  0  0  0  0  0  0
    5.1255   -0.4441    6.5224 H   0  0  0  0  0  0  0  0  0  0  0  0
    3.5406   -1.0558    6.9406 H   0  0  0  0  0  0  0  0  0  0  0  0
    4.1214    2.3639    6.1008 H   0  0  0  0  0  0  0  0  0  0  0  0
    3.8236    2.4334    4.3931 H   0  0  0  0  0  0  0  0  0  0  0  0
    5.3018    1.6714    4.9945 H   0  0  0  0  0  0  0  0  0  0  0  0
    1.7910    1.1652    6.2703 H   0  0  0  0  0  0  0  0  0  0  0  0
    0.3213    2.5324    5.3652 H   0  0  0  0  0  0  0  0  0  0  0  0
   -2.5702    0.6400    4.3207 H   0  0  0  0  0  0  0  0  0  0  0  0
   -3.2265    2.4780    6.1117 H   0  0  0  0  0  0  0  0  0  0  0  0
   -1.5510    2.9470    6.1987 H   0  0  0  0  0  0  0  0  0  0  0  0
   -2.0607    1.3172    6.7039 H   0  0  0  0  0  0  0  0  0  0  0  0
   -2.3019    1.9614    2.4355 H   0  0  0  0  0  0  0  0  0  0  0  0
   -4.2755    2.2308    3.3261 H   0  0  0  0  0  0  0  0  0  0  0  0
   -1.5235    4.2275    2.3615 H   0  0  0  0  0  0  0  0  0  0  0  0
   -1.3302    4.1187    5.1617 H   0  0  0  0  0  0  0  0  0  0  0  0
    0.2730    2.5228    2.3098 H   0  0  0  0  0  0  0  0  0  0  0  0
    0.9554    4.5957    2.4969 H   0  0  0  0  0  0  0  0  0  0  0  0
    1.5510   -1.2901    6.3093 H   0  0  0  0  0  0  0  0  0  0  0  0
    0.2098   -0.6327    5.4760 H   0  0  0  0  0  0  0  0  0  0  0  0
    1.0221   -2.4837    4.2361 H   0  0  0  0  0  0  0  0  0  0  0  0
    1.2159   -1.0590    3.2979 H   0  0  0  0  0  0  0  0  0  0  0  0
    3.8522   -3.8553    4.7168 H   0  0  0  0  0  0  0  0  0  0  0  0
    3.0710   -2.8774    5.9102 H   0  0  0  0  0  0  0  0  0  0  0  0
    4.7004   -2.5052    5.3988 H   0  0  0  0  0  0  0  0  0  0  0  0
    2.5013   -2.1278    1.9203 H   0  0  0  0  0  0  0  0  0  0  0  0
  1  2  1  0
  1 43  1  0
  1 44  1  0
  1 45  1  0
  2  3  1  0
  2 10  1  0
  2 46  1  1
  3  4  1  0
  3 47  1  0
  3 48  1  0
  4  5  2  3
  4 49  1  0
  5  6  1  0
  5 50  1  0
  6  7  1  0
  6  8  1  0
  6  9  1  0
  7 51  1  0
  7 52  1  0
  7 53  1  0
  8 54  1  0
  8 55  1  0
  8 56  1  0
  9 57  1  0
 10 42  1  0
 10 11  1  0
 10 58  1  6
 11 12  1  0
 11 59  1  0
 11 60  1  0
 12 13  2  0
 12 61  1  0
 13 16  1  0
 13 14  1  0
 14 15  1  0
 14 62  1  0
 14 63  1  0
 15 16  1  0
 15 64  1  0
 15 65  1  0
 16 17  1  6
 16 18  1  0
 17 66  1  0
 17 67  1  0
 17 68  1  0
 18 42  1  0
 18 19  1  1
 18 20  1  0
 19 69  1  0
 19 70  1  0
 19 71  1  0
 20 21  1  0
 20 72  1  0
 20 73  1  0
 21 22  1  0
 21 74  1  0
 21 75  1  0
 22 40  1  0
 22 23  1  0
 22 76  1  1
 23 24  1  0
 23 25  1  0
 23 26  1  0
 24 77  1  0
 24 78  1  0
 24 79  1  0
 25 80  1  0
 25 81  1  0
 25 82  1  0
 26 27  1  0
 26 38  1  0
 26 83  1  1
 27 28  1  0
 28 36  1  0
 28 29  1  0
 28 84  1  1
 29 30  1  0
 30 31  1  0
 30 32  1  0
 30 85  1  6
 31 86  1  0
 31 87  1  0
 31 88  1  0
 32 33  1  0
 32 34  1  0
 32 89  1  6
 33 90  1  0
 34 35  1  0
 34 36  1  0
 34 91  1  6
 35 92  1  0
 36 37  1  0
 36 93  1  6
 37 94  1  0
 38 39  1  0
 38 95  1  0
 38 96  1  0
 39 40  1  0
 39 97  1  0
 39 98  1  0
 40 41  1  1
 40 42  1  0
 41 99  1  0
 41100  1  0
 41101  1  0
 42102  1  6
M  END
>  <i_m_ct_stereo_status>  (220) 
1

>  <s_m_source_file>  (220) 
/var/tmp/pbs.5076255.sched01/tmp4185l44a/86vs10_z9v.sdf

>  <i_m_source_file_index>  (220) 
7

>  <i_lp_mmshare_version>  (220) 
48012

>  <i_f3d_flags>  (220) 
0

>  <s_epik_input>  (220) 
W0NIM11DKFtDSDNdKShbT0hdKVxbQ0hdPVtDSF1cW0NIMl1bQ0BASF0oW0NIM10pW0NASF0oW0NIMl1bQ0hdPUMoW0NIMl1bQ0gyXTEpW0NAXTEyW0NIM10pW0NAQEhdM1tDQF0yKFtDSDNdKVtDSDJdW0NIMl1bQ0BASF00W0NAQF0zKFtDSDNdKVtDSDJdW0NIMl1bQ0BASF0oQzQoW0NIM10pW0NIM10pT1tDQEBIXTVPW0NAQEhdKFtDSDNdKVtDQEBIXShbT0hdKVtDQEBIXShbT0hdKVtDQEhdNVtPSF0=

>  <s_epik_cmdline>  (220) 
J2VwaWtfcHl0aG9uJywgJy1waHQnLCAnMi4wJywgJy1waCcsICc3LjAnLCAnLXRuJywgJzgnLCAnLW1hJywgJzIwMCcsICctaW1hZScsICc8aW5maWxlLm1hZT4nLCAnLW9tYWUnLCAnPG91dGZpbGUubWFlPic=

>  <r_lp_tautomer_probability>  (220) 
1

>  <r_epik_Ionization_Penalty>  (220) 
1.75393e-06

>  <r_epik_Ionization_Penalty_Charging>  (220) 
0

>  <r_epik_Ionization_Penalty_Neutral>  (220) 
1.75393e-06

>  <r_epik_State_Penalty>  (220) 
-0

>  <r_epik_Charging_Adjusted_Penalty>  (220) 
0

>  <i_epik_Tot_Q>  (220) 
0

>  <i_epik_Tot_abs_Q>  (220) 
0

>  <s_epik_Chemistry_Notes>  (220) 
This compound contains an acetal/aminal-like group ( X-CH(R)-Y where X, Y are N, S, or O) that may be acid/base labile, releasing an aldehyde.

>  <s_lp_Force_Field>  (220) 
OPLS3e

>  <r_lp_Energy>  (220) 
100.61

>  <b_lp_Chiralities_Consistent>  (220) 
1

>  <s_lp_Variant>  (220) 
62:0-1

>  <s_i_glide_gridfile>  (220) 
pfpi4k_grid

>  <i_i_glide_lignum>  (220) 
7

>  <i_i_glide_rotatable_bonds>  (220) 
10

>  <r_i_docking_score>  (220) 
-2.50092

>  <r_i_glide_ligand_efficiency>  (220) 
-0.0595456

>  <r_i_glide_ligand_efficiency_sa>  (220) 
-0.206982

>  <r_i_glide_ligand_efficiency_ln>  (220) 
-0.527879

>  <r_i_glide_gscore>  (220) 
-2.50092

>  <r_i_glide_lipo>  (220) 
-0.357018

>  <r_i_glide_hbond>  (220) 
-0.0589065

>  <r_i_glide_metal>  (220) 
-0

>  <r_i_glide_rewards>  (220) 
0

>  <r_i_glide_evdw>  (220) 
-23.4398

>  <r_i_glide_ecoul>  (220) 
-7.68556

>  <r_i_glide_erotb>  (220) 
0.255053

>  <r_i_glide_esite>  (220) 
-0.01522

>  <r_i_glide_emodel>  (220) 
-33.2073

>  <r_i_glide_energy>  (220) 
-31.1254

>  <r_i_glide_einternal>  (220) 
5.23461

>  <r_i_glide_intrahb_reward>  (220) 
-0

>  <i_i_glide_confnum>  (220) 
7

>  <i_i_glide_posenum>  (220) 
34

>  <r_i_glide_eff_state_penalty>  (220) 
0

>  <ligand_id>  (220) 
62

>  <original_smiles>  (220) 
CC(CC=CC(C)(C)O)C1CC=C2CCC2(C)C2(C)CCC3C(C)(C)C(OC4OC(C)C(O)C(O)C4O)CCC3(C)C12

>  <smiles>  (220) 
[H]OC1([H])C([H])(OC2([H])C([H])([H])C([H])([H])C3(C([H])([H])[H])C([H])(C([H])([H])C([H])([H])C4(C([H])([H])[H])C3([H])C([H])(C([H])(C([H])([H])[H])C([H])([H])C([H])=C([H])C(O[H])(C([H])([H])[H])C([H])([H])[H])C([H])([H])C([H])=C3C([H])([H])C([H])([H])C34C([H])([H])[H])C2(C([H])([H])[H])C([H])([H])[H])OC([H])(C([H])([H])[H])C([H])(O[H])C1([H])O[H]

$$$$
62:1:0
     RDKit          3D

102106  0  0  1  0  0  0  0  0999 V2000
    3.3204   -3.4745    7.1496 C   0  0  0  0  0  0  0  0  0  0  0  0
    1.9728   -3.8794    6.4901 C   0  0  2  0  0  0  0  0  0  0  0  0
    0.8302   -3.3894    7.4238 C   0  0  0  0  0  0  0  0  0  0  0  0
   -0.5226   -3.3069    6.7253 C   0  0  0  0  0  0  0  0  0  0  0  0
   -1.1135   -2.2353    6.1459 C   0  0  0  0  0  0  0  0  0  0  0  0
   -0.6409   -0.8007    5.9497 C   0  0  0  0  0  0  0  0  0  0  0  0
    0.6736   -0.4627    6.6694 C   0  0  0  0  0  0  0  0  0  0  0  0
   -0.5159   -0.4642    4.4505 C   0  0  0  0  0  0  0  0  0  0  0  0
   -1.6170    0.0882    6.4633 O   0  0  0  0  0  0  0  0  0  0  0  0
    1.8430   -5.3905    6.0845 C   0  0  2  0  0  0  0  0  0  0  0  0
    2.1453   -6.3935    7.2304 C   0  0  0  0  0  0  0  0  0  0  0  0
    1.2046   -7.5838    7.3060 C   0  0  0  0  0  0  0  0  0  0  0  0
    0.4909   -8.0923    6.2849 C   0  0  0  0  0  0  0  0  0  0  0  0
   -0.3523   -9.3363    6.1524 C   0  0  0  0  0  0  0  0  0  0  0  0
    0.1484   -9.3138    4.7096 C   0  0  0  0  0  0  0  0  0  0  0  0
    0.4854   -7.7983    4.8015 C   0  0  1  0  0  0  0  0  0  0  0  0
   -0.7072   -6.9109    4.3460 C   0  0  0  0  0  0  0  0  0  0  0  0
    1.8972   -7.3405    4.2464 C   0  0  1  0  0  0  0  0  0  0  0  0
    3.0478   -8.2810    4.7856 C   0  0  0  0  0  0  0  0  0  0  0  0
    1.8582   -7.5318    2.6980 C   0  0  0  0  0  0  0  0  0  0  0  0
    2.7361   -6.5794    1.8935 C   0  0  0  0  0  0  0  0  0  0  0  0
    4.0159   -6.1547    2.6525 C   0  0  1  0  0  0  0  0  0  0  0  0
    5.1325   -5.5315    1.7122 C   0  0  0  0  0  0  0  0  0  0  0  0
    6.5240   -5.5495    2.3940 C   0  0  0  0  0  0  0  0  0  0  0  0
    5.3261   -6.3800    0.4365 C   0  0  0  0  0  0  0  0  0  0  0  0
    4.7847   -4.0583    1.3226 C   0  0  1  0  0  0  0  0  0  0  0  0
    3.6248   -3.9031    0.4979 O   0  0  0  0  0  0  0  0  0  0  0  0
    3.8190   -3.6943   -0.8819 C   0  0  2  0  0  0  0  0  0  0  0  0
    4.8490   -2.7367   -1.0246 O   0  0  0  0  0  0  0  0  0  0  0  0
    5.1709   -2.4220   -2.3689 C   0  0  1  0  0  0  0  0  0  0  0  0
    5.7201   -3.6485   -3.0946 C   0  0  0  0  0  0  0  0  0  0  0  0
    3.9492   -1.7758   -3.0406 C   0  0  1  0  0  0  0  0  0  0  0  0
    4.2003   -1.3758   -4.3776 O   0  0  0  0  0  0  0  0  0  0  0  0
    2.7207   -2.6935   -2.9575 C   0  0  1  0  0  0  0  0  0  0  0  0
    2.9017   -3.7819   -3.8550 O   0  0  0  0  0  0  0  0  0  0  0  0
    2.5152   -3.1420   -1.4961 C   0  0  1  0  0  0  0  0  0  0  0  0
    1.4585   -4.0873   -1.4616 O   0  0  0  0  0  0  0  0  0  0  0  0
    4.4969   -3.2111    2.5596 C   0  0  0  0  0  0  0  0  0  0  0  0
    3.3733   -3.8118    3.4226 C   0  0  0  0  0  0  0  0  0  0  0  0
    3.6058   -5.2815    3.9257 C   0  0  2  0  0  0  0  0  0  0  0  0
    4.7633   -5.3306    4.9598 C   0  0  0  0  0  0  0  0  0  0  0  0
    2.2466   -5.8226    4.5987 C   0  0  2  0  0  0  0  0  0  0  0  0
    3.5543   -4.0616    8.0415 H   0  0  0  0  0  0  0  0  0  0  0  0
    3.2832   -2.4320    7.4858 H   0  0  0  0  0  0  0  0  0  0  0  0
    4.1734   -3.5743    6.4758 H   0  0  0  0  0  0  0  0  0  0  0  0
    1.8593   -3.3040    5.5754 H   0  0  0  0  0  0  0  0  0  0  0  0
    0.7230   -4.0776    8.2822 H   0  0  0  0  0  0  0  0  0  0  0  0
    1.0905   -2.3888    7.8068 H   0  0  0  0  0  0  0  0  0  0  0  0
   -1.0675   -4.2331    6.6942 H   0  0  0  0  0  0  0  0  0  0  0  0
   -2.0802   -2.4202    5.7047 H   0  0  0  0  0  0  0  0  0  0  0  0
    1.4664   -1.1497    6.3822 H   0  0  0  0  0  0  0  0  0  0  0  0
    0.5652   -0.5580    7.7419 H   0  0  0  0  0  0  0  0  0  0  0  0
    0.9940    0.5622    6.4552 H   0  0  0  0  0  0  0  0  0  0  0  0
    0.2129   -1.1142    3.9562 H   0  0  0  0  0  0  0  0  0  0  0  0
   -0.1842    0.5655    4.3021 H   0  0  0  0  0  0  0  0  0  0  0  0
   -1.4711   -0.5760    3.9291 H   0  0  0  0  0  0  0  0  0  0  0  0
   -1.3819    0.9667    6.1995 H   0  0  0  0  0  0  0  0  0  0  0  0
    0.7688   -5.4714    6.0356 H   0  0  0  0  0  0  0  0  0  0  0  0
    3.1701   -6.7550    7.2350 H   0  0  0  0  0  0  0  0  0  0  0  0
    2.0189   -5.8962    8.1845 H   0  0  0  0  0  0  0  0  0  0  0  0
    1.1247   -8.0891    8.2537 H   0  0  0  0  0  0  0  0  0  0  0  0
   -0.0702  -10.2345    6.7094 H   0  0  0  0  0  0  0  0  0  0  0  0
   -1.4312   -9.1994    6.1942 H   0  0  0  0  0  0  0  0  0  0  0  0
    0.9902   -9.9884    4.5457 H   0  0  0  0  0  0  0  0  0  0  0  0
   -0.6399   -9.5359    3.9937 H   0  0  0  0  0  0  0  0  0  0  0  0
   -0.9722   -7.0678    3.3047 H   0  0  0  0  0  0  0  0  0  0  0  0
   -0.5538   -5.8453    4.4784 H   0  0  0  0  0  0  0  0  0  0  0  0
   -1.6074   -7.1633    4.9012 H   0  0  0  0  0  0  0  0  0  0  0  0
    3.8323   -7.7336    5.2919 H   0  0  0  0  0  0  0  0  0  0  0  0
    3.5382   -8.8540    4.0026 H   0  0  0  0  0  0  0  0  0  0  0  0
    2.7271   -9.0221    5.5122 H   0  0  0  0  0  0  0  0  0  0  0  0
    2.0852   -8.5606    2.4460 H   0  0  0  0  0  0  0  0  0  0  0  0
    0.8544   -7.3800    2.3033 H   0  0  0  0  0  0  0  0  0  0  0  0
    2.9616   -7.1173    0.9750 H   0  0  0  0  0  0  0  0  0  0  0  0
    2.1733   -5.7017    1.6043 H   0  0  0  0  0  0  0  0  0  0  0  0
    4.4725   -7.0736    3.0098 H   0  0  0  0  0  0  0  0  0  0  0  0
    7.3106   -5.2509    1.7008 H   0  0  0  0  0  0  0  0  0  0  0  0
    6.7797   -6.5416    2.7670 H   0  0  0  0  0  0  0  0  0  0  0  0
    6.6155   -4.8615    3.2214 H   0  0  0  0  0  0  0  0  0  0  0  0
    6.1793   -6.0065   -0.1298 H   0  0  0  0  0  0  0  0  0  0  0  0
    4.4752   -6.3497   -0.2352 H   0  0  0  0  0  0  0  0  0  0  0  0
    5.5058   -7.4293    0.6859 H   0  0  0  0  0  0  0  0  0  0  0  0
    5.6754   -3.6396    0.8407 H   0  0  0  0  0  0  0  0  0  0  0  0
    4.1385   -4.6226   -1.3542 H   0  0  0  0  0  0  0  0  0  0  0  0
    5.9753   -1.6930   -2.3263 H   0  0  0  0  0  0  0  0  0  0  0  0
    5.8350   -3.4060   -4.1345 H   0  0  0  0  0  0  0  0  0  0  0  0
    5.0528   -4.5222   -3.0766 H   0  0  0  0  0  0  0  0  0  0  0  0
    6.7215   -3.9037   -2.7251 H   0  0  0  0  0  0  0  0  0  0  0  0
    3.7391   -0.8616   -2.4925 H   0  0  0  0  0  0  0  0  0  0  0  0
    3.4235   -0.9416   -4.7198 H   0  0  0  0  0  0  0  0  0  0  0  0
    1.8388   -2.1443   -3.2852 H   0  0  0  0  0  0  0  0  0  0  0  0
    2.7652   -4.6031   -3.3918 H   0  0  0  0  0  0  0  0  0  0  0  0
    2.2443   -2.2881   -0.8803 H   0  0  0  0  0  0  0  0  0  0  0  0
    1.7169   -4.8519   -1.9711 H   0  0  0  0  0  0  0  0  0  0  0  0
    5.3947   -3.0715    3.1493 H   0  0  0  0  0  0  0  0  0  0  0  0
    4.2083   -2.2193    2.2220 H   0  0  0  0  0  0  0  0  0  0  0  0
    3.2066   -3.1259    4.2539 H   0  0  0  0  0  0  0  0  0  0  0  0
    2.4629   -3.7661    2.8166 H   0  0  0  0  0  0  0  0  0  0  0  0
    4.4168   -5.3889    5.9837 H   0  0  0  0  0  0  0  0  0  0  0  0
    5.3683   -4.4328    4.9389 H   0  0  0  0  0  0  0  0  0  0  0  0
    5.4387   -6.1716    4.7979 H   0  0  0  0  0  0  0  0  0  0  0  0
    1.4918   -5.2948    4.0164 H   0  0  0  0  0  0  0  0  0  0  0  0
  1  2  1  0
  1 43  1  0
  1 44  1  0
  1 45  1  0
  2  3  1  0
  2 10  1  0
  2 46  1  6
  3  4  1  0
  3 47  1  0
  3 48  1  0
  4  5  2  3
  4 49  1  0
  5  6  1  0
  5 50  1  0
  6  7  1  0
  6  8  1  0
  6  9  1  0
  7 51  1  0
  7 52  1  0
  7 53  1  0
  8 54  1  0
  8 55  1  0
  8 56  1  0
  9 57  1  0
 10 42  1  0
 10 11  1  0
 10 58  1  6
 11 12  1  0
 11 59  1  0
 11 60  1  0
 12 13  2  0
 12 61  1  0
 13 16  1  0
 13 14  1  0
 14 15  1  0
 14 62  1  0
 14 63  1  0
 15 16  1  0
 15 64  1  0
 15 65  1  0
 16 17  1  1
 16 18  1  0
 17 66  1  0
 17 67  1  0
 17 68  1  0
 18 42  1  0
 18 19  1  1
 18 20  1  0
 19 69  1  0
 19 70  1  0
 19 71  1  0
 20 21  1  0
 20 72  1  0
 20 73  1  0
 21 22  1  0
 21 74  1  0
 21 75  1  0
 22 40  1  0
 22 23  1  0
 22 76  1  1
 23 24  1  0
 23 25  1  0
 23 26  1  0
 24 77  1  0
 24 78  1  0
 24 79  1  0
 25 80  1  0
 25 81  1  0
 25 82  1  0
 26 27  1  0
 26 38  1  0
 26 83  1  6
 27 28  1  0
 28 36  1  0
 28 29  1  0
 28 84  1  6
 29 30  1  0
 30 31  1  0
 30 32  1  0
 30 85  1  1
 31 86  1  0
 31 87  1  0
 31 88  1  0
 32 33  1  0
 32 34  1  0
 32 89  1  1
 33 90  1  0
 34 35  1  0
 34 36  1  0
 34 91  1  6
 35 92  1  0
 36 37  1  0
 36 93  1  1
 37 94  1  0
 38 39  1  0
 38 95  1  0
 38 96  1  0
 39 40  1  0
 39 97  1  0
 39 98  1  0
 40 41  1  1
 40 42  1  0
 41 99  1  0
 41100  1  0
 41101  1  0
 42102  1  6
M  END
>  <i_m_ct_stereo_status>  (221) 
1

>  <s_m_source_file>  (221) 
/var/tmp/pbs.5076255.sched01/tmp4185l44a/86vs10_z9v.sdf

>  <i_m_source_file_index>  (221) 
8

>  <i_lp_mmshare_version>  (221) 
48012

>  <i_f3d_flags>  (221) 
0

>  <s_epik_input>  (221) 
W0NIM11DKFtDSDNdKShbT0hdKVxbQ0hdPVtDSF1cW0NIMl1bQ0BASF0oW0NIM10pW0NASF0oW0NIMl1bQ0hdPUMoW0NIMl1bQ0gyXTEpW0NAXTEyW0NIM10pW0NAQEhdM1tDQF0yKFtDSDNdKVtDSDJdW0NIMl1bQ0BASF00W0NAQF0zKFtDSDNdKVtDSDJdW0NIMl1bQ0BASF0oQzQoW0NIM10pW0NIM10pT1tDQEBIXTVPW0NAQEhdKFtDSDNdKVtDQEBIXShbT0hdKVtDQEBIXShbT0hdKVtDQEhdNVtPSF0=

>  <s_epik_cmdline>  (221) 
J2VwaWtfcHl0aG9uJywgJy1waHQnLCAnMi4wJywgJy1waCcsICc3LjAnLCAnLXRuJywgJzgnLCAnLW1hJywgJzIwMCcsICctaW1hZScsICc8aW5maWxlLm1hZT4nLCAnLW9tYWUnLCAnPG91dGZpbGUubWFlPic=

>  <r_lp_tautomer_probability>  (221) 
1

>  <r_epik_Ionization_Penalty>  (221) 
1.75393e-06

>  <r_epik_Ionization_Penalty_Charging>  (221) 
0

>  <r_epik_Ionization_Penalty_Neutral>  (221) 
1.75393e-06

>  <r_epik_State_Penalty>  (221) 
-0

>  <r_epik_Charging_Adjusted_Penalty>  (221) 
0

>  <i_epik_Tot_Q>  (221) 
0

>  <i_epik_Tot_abs_Q>  (221) 
0

>  <s_epik_Chemistry_Notes>  (221) 
This compound contains an acetal/aminal-like group ( X-CH(R)-Y where X, Y are N, S, or O) that may be acid/base labile, releasing an aldehyde.

>  <s_lp_Force_Field>  (221) 
OPLS3e

>  <r_lp_Energy>  (221) 
105.3

>  <b_lp_Chiralities_Consistent>  (221) 
1

>  <s_lp_Variant>  (221) 
62:0-2

>  <s_i_glide_gridfile>  (221) 
pfpi4k_grid

>  <i_i_glide_lignum>  (221) 
8

>  <i_i_glide_rotatable_bonds>  (221) 
10

>  <r_i_docking_score>  (221) 
-4.31697

>  <r_i_glide_ligand_efficiency>  (221) 
-0.102785

>  <r_i_glide_ligand_efficiency_sa>  (221) 
-0.357283

>  <r_i_glide_ligand_efficiency_ln>  (221) 
-0.911201

>  <r_i_glide_gscore>  (221) 
-4.31697

>  <r_i_glide_lipo>  (221) 
-0.582244

>  <r_i_glide_hbond>  (221) 
-0.144252

>  <r_i_glide_metal>  (221) 
-0

>  <r_i_glide_rewards>  (221) 
0

>  <r_i_glide_evdw>  (221) 
-22.4131

>  <r_i_glide_ecoul>  (221) 
-17.6161

>  <r_i_glide_erotb>  (221) 
0.178537

>  <r_i_glide_esite>  (221) 
-0.00593825

>  <r_i_glide_emodel>  (221) 
-47.0378

>  <r_i_glide_energy>  (221) 
-40.0292

>  <r_i_glide_einternal>  (221) 
6.72718

>  <r_i_glide_intrahb_reward>  (221) 
-0

>  <i_i_glide_confnum>  (221) 
2

>  <i_i_glide_posenum>  (221) 
28

>  <r_i_glide_eff_state_penalty>  (221) 
0

>  <ligand_id>  (221) 
62

>  <original_smiles>  (221) 
CC(CC=CC(C)(C)O)C1CC=C2CCC2(C)C2(C)CCC3C(C)(C)C(OC4OC(C)C(O)C(O)C4O)CCC3(C)C12

>  <smiles>  (221) 
[H]OC1([H])C([H])(OC2([H])C([H])([H])C([H])([H])C3(C([H])([H])[H])C([H])(C([H])([H])C([H])([H])C4(C([H])([H])[H])C3([H])C([H])(C([H])(C([H])([H])[H])C([H])([H])C([H])=C([H])C(O[H])(C([H])([H])[H])C([H])([H])[H])C([H])([H])C([H])=C3C([H])([H])C([H])([H])C34C([H])([H])[H])C2(C([H])([H])[H])C([H])([H])[H])OC([H])(C([H])([H])[H])C([H])(O[H])C1([H])O[H]

$$$$
62:1:1
     RDKit          3D

102106  0  0  1  0  0  0  0  0999 V2000
    2.9659   -4.1214    8.3625 C   0  0  0  0  0  0  0  0  0  0  0  0
    2.3531   -4.3280    6.9553 C   0  0  2  0  0  0  0  0  0  0  0  0
    1.0668   -3.4501    6.8766 C   0  0  0  0  0  0  0  0  0  0  0  0
    0.4467   -3.2932    5.4780 C   0  0  0  0  0  0  0  0  0  0  0  0
   -0.2080   -2.2443    4.9514 C   0  0  0  0  0  0  0  0  0  0  0  0
   -0.5459   -0.8755    5.5399 C   0  0  0  0  0  0  0  0  0  0  0  0
    0.0281   -0.5977    6.9293 C   0  0  0  0  0  0  0  0  0  0  0  0
   -0.0930    0.2389    4.5827 C   0  0  0  0  0  0  0  0  0  0  0  0
   -1.9565   -0.7729    5.6550 O   0  0  0  0  0  0  0  0  0  0  0  0
    2.1312   -5.8224    6.4754 C   0  0  2  0  0  0  0  0  0  0  0  0
    2.4478   -6.9006    7.5473 C   0  0  0  0  0  0  0  0  0  0  0  0
    1.4649   -8.0500    7.5629 C   0  0  0  0  0  0  0  0  0  0  0  0
    0.7073   -8.4565    6.5385 C   0  0  0  0  0  0  0  0  0  0  0  0
   -0.1945   -9.6444    6.3788 C   0  0  0  0  0  0  0  0  0  0  0  0
    0.2962   -9.5707    4.9252 C   0  0  0  0  0  0  0  0  0  0  0  0
    0.6974   -8.0833    5.0734 C   0  0  1  0  0  0  0  0  0  0  0  0
   -0.4747   -7.1364    4.7039 C   0  0  0  0  0  0  0  0  0  0  0  0
    2.1157   -7.6431    4.5318 C   0  0  1  0  0  0  0  0  0  0  0  0
    3.2421   -8.6361    4.9967 C   0  0  0  0  0  0  0  0  0  0  0  0
    2.0360   -7.7131    2.9755 C   0  0  0  0  0  0  0  0  0  0  0  0
    2.9551   -6.7713    2.2091 C   0  0  0  0  0  0  0  0  0  0  0  0
    4.2469   -6.3991    2.9763 C   0  0  1  0  0  0  0  0  0  0  0  0
    5.3541   -5.7658    2.0388 C   0  0  0  0  0  0  0  0  0  0  0  0
    6.7631   -5.8707    2.6873 C   0  0  0  0  0  0  0  0  0  0  0  0
    5.5035   -6.5414    0.7109 C   0  0  0  0  0  0  0  0  0  0  0  0
    5.0590   -4.2744    1.7276 C   0  0  1  0  0  0  0  0  0  0  0  0
    3.8576   -4.0258    0.9624 O   0  0  0  0  0  0  0  0  0  0  0  0
    4.0485   -3.6156   -0.3600 C   0  0  2  0  0  0  0  0  0  0  0  0
    4.9219   -2.5199   -0.3686 O   0  0  0  0  0  0  0  0  0  0  0  0
    5.2448   -1.9940   -1.6481 C   0  0  1  0  0  0  0  0  0  0  0  0
    6.0060   -3.0459   -2.5067 C   0  0  0  0  0  0  0  0  0  0  0  0
    3.9510   -1.4220   -2.2604 C   0  0  1  0  0  0  0  0  0  0  0  0
    4.1908   -0.7735   -3.5034 O   0  0  0  0  0  0  0  0  0  0  0  0
    2.8408   -2.4716   -2.3268 C   0  0  1  0  0  0  0  0  0  0  0  0
    3.1386   -3.3396   -3.3913 O   0  0  0  0  0  0  0  0  0  0  0  0
    2.6741   -3.1496   -0.9398 C   0  0  1  0  0  0  0  0  0  0  0  0
    1.7607   -4.1971   -1.1220 O   0  0  0  0  0  0  0  0  0  0  0  0
    4.8042   -3.4887    3.0032 C   0  0  0  0  0  0  0  0  0  0  0  0
    3.6514   -4.0837    3.8301 C   0  0  0  0  0  0  0  0  0  0  0  0
    3.8711   -5.5841    4.2951 C   0  0  2  0  0  0  0  0  0  0  0  0
    5.0267   -5.6714    5.3339 C   0  0  0  0  0  0  0  0  0  0  0  0
    2.5191   -6.1667    4.9591 C   0  0  2  0  0  0  0  0  0  0  0  0
    2.3591   -4.4937    9.1916 H   0  0  0  0  0  0  0  0  0  0  0  0
    3.0658   -3.0488    8.5492 H   0  0  0  0  0  0  0  0  0  0  0  0
    3.9747   -4.5268    8.4132 H   0  0  0  0  0  0  0  0  0  0  0  0
    3.1129   -3.8819    6.3378 H   0  0  0  0  0  0  0  0  0  0  0  0
    0.2904   -3.9167    7.5073 H   0  0  0  0  0  0  0  0  0  0  0  0
    1.3945   -2.4869    7.2583 H   0  0  0  0  0  0  0  0  0  0  0  0
    0.5047   -4.1238    4.7731 H   0  0  0  0  0  0  0  0  0  0  0  0
   -0.5566   -2.3647    3.9395 H   0  0  0  0  0  0  0  0  0  0  0  0
    1.1136   -0.7087    6.8888 H   0  0  0  0  0  0  0  0  0  0  0  0
   -0.3188   -1.3413    7.6418 H   0  0  0  0  0  0  0  0  0  0  0  0
   -0.2565    0.3823    7.3153 H   0  0  0  0  0  0  0  0  0  0  0  0
    0.9864    0.1990    4.4268 H   0  0  0  0  0  0  0  0  0  0  0  0
   -0.3287    1.2151    5.0042 H   0  0  0  0  0  0  0  0  0  0  0  0
   -0.5713    0.1665    3.6039 H   0  0  0  0  0  0  0  0  0  0  0  0
   -2.2833   -0.3467    4.8753 H   0  0  0  0  0  0  0  0  0  0  0  0
    1.0545   -5.8906    6.4849 H   0  0  0  0  0  0  0  0  0  0  0  0
    3.4736   -7.2673    7.5091 H   0  0  0  0  0  0  0  0  0  0  0  0
    2.3145   -6.5179    8.5569 H   0  0  0  0  0  0  0  0  0  0  0  0
    1.3778   -8.5799    8.4901 H   0  0  0  0  0  0  0  0  0  0  0  0
    0.0720  -10.5781    6.8669 H   0  0  0  0  0  0  0  0  0  0  0  0
   -1.2583   -9.4244    6.4962 H   0  0  0  0  0  0  0  0  0  0  0  0
    1.1204  -10.2566    4.7178 H   0  0  0  0  0  0  0  0  0  0  0  0
   -0.5086   -9.7153    4.2105 H   0  0  0  0  0  0  0  0  0  0  0  0
   -0.7675   -7.2195    3.6548 H   0  0  0  0  0  0  0  0  0  0  0  0
   -0.2860   -6.0881    4.8981 H   0  0  0  0  0  0  0  0  0  0  0  0
   -1.3632   -7.3913    5.2658 H   0  0  0  0  0  0  0  0  0  0  0  0
    4.0527   -8.1307    5.5141 H   0  0  0  0  0  0  0  0  0  0  0  0
    3.7017   -9.1715    4.1712 H   0  0  0  0  0  0  0  0  0  0  0  0
    2.9097   -9.4033    5.6929 H   0  0  0  0  0  0  0  0  0  0  0  0
    2.2391   -8.7273    2.6693 H   0  0  0  0  0  0  0  0  0  0  0  0
    1.0289   -7.5250    2.6117 H   0  0  0  0  0  0  0  0  0  0  0  0
    3.1417   -7.2514    1.2492 H   0  0  0  0  0  0  0  0  0  0  0  0
    2.3947   -5.8658    1.9949 H   0  0  0  0  0  0  0  0  0  0  0  0
    4.6805   -7.3502    3.2759 H   0  0  0  0  0  0  0  0  0  0  0  0
    7.5455   -5.5600    1.9971 H   0  0  0  0  0  0  0  0  0  0  0  0
    6.9884   -6.8855    3.0066 H   0  0  0  0  0  0  0  0  0  0  0  0
    6.8822   -5.2363    3.5545 H   0  0  0  0  0  0  0  0  0  0  0  0
    6.3624   -6.1837    0.1481 H   0  0  0  0  0  0  0  0  0  0  0  0
    4.6468   -6.4182    0.0544 H   0  0  0  0  0  0  0  0  0  0  0  0
    5.6278   -7.6079    0.8913 H   0  0  0  0  0  0  0  0  0  0  0  0
    5.9434   -3.8720    1.2406 H   0  0  0  0  0  0  0  0  0  0  0  0
    4.4778   -4.4548   -0.9151 H   0  0  0  0  0  0  0  0  0  0  0  0
    5.8933   -1.1414   -1.4596 H   0  0  0  0  0  0  0  0  0  0  0  0
    6.1320   -2.6627   -3.5201 H   0  0  0  0  0  0  0  0  0  0  0  0
    5.4620   -3.9918   -2.6333 H   0  0  0  0  0  0  0  0  0  0  0  0
    7.0118   -3.2554   -2.1103 H   0  0  0  0  0  0  0  0  0  0  0  0
    3.5805   -0.6619   -1.5783 H   0  0  0  0  0  0  0  0  0  0  0  0
    3.3707   -0.4450   -3.8378 H   0  0  0  0  0  0  0  0  0  0  0  0
    1.8823   -2.0206   -2.5987 H   0  0  0  0  0  0  0  0  0  0  0  0
    3.0065   -4.2497   -3.0989 H   0  0  0  0  0  0  0  0  0  0  0  0
    2.2747   -2.4544   -0.1993 H   0  0  0  0  0  0  0  0  0  0  0  0
    2.1765   -4.8903   -1.6377 H   0  0  0  0  0  0  0  0  0  0  0  0
    5.7141   -3.4107    3.5912 H   0  0  0  0  0  0  0  0  0  0  0  0
    4.5449   -2.4708    2.7289 H   0  0  0  0  0  0  0  0  0  0  0  0
    3.5119   -3.3656    4.6275 H   0  0  0  0  0  0  0  0  0  0  0  0
    2.7448   -4.0245    3.2157 H   0  0  0  0  0  0  0  0  0  0  0  0
    4.6866   -5.7525    6.3614 H   0  0  0  0  0  0  0  0  0  0  0  0
    5.6706   -4.7952    5.3240 H   0  0  0  0  0  0  0  0  0  0  0  0
    5.6621   -6.5435    5.1689 H   0  0  0  0  0  0  0  0  0  0  0  0
    1.7886   -5.6176    4.3833 H   0  0  0  0  0  0  0  0  0  0  0  0
  1  2  1  0
  1 43  1  0
  1 44  1  0
  1 45  1  0
  2  3  1  0
  2 10  1  0
  2 46  1  6
  3  4  1  0
  3 47  1  0
  3 48  1  0
  4  5  2  3
  4 49  1  0
  5  6  1  0
  5 50  1  0
  6  7  1  0
  6  8  1  0
  6  9  1  0
  7 51  1  0
  7 52  1  0
  7 53  1  0
  8 54  1  0
  8 55  1  0
  8 56  1  0
  9 57  1  0
 10 42  1  0
 10 11  1  0
 10 58  1  6
 11 12  1  0
 11 59  1  0
 11 60  1  0
 12 13  2  0
 12 61  1  0
 13 16  1  0
 13 14  1  0
 14 15  1  0
 14 62  1  0
 14 63  1  0
 15 16  1  0
 15 64  1  0
 15 65  1  0
 16 17  1  1
 16 18  1  0
 17 66  1  0
 17 67  1  0
 17 68  1  0
 18 42  1  0
 18 19  1  1
 18 20  1  0
 19 69  1  0
 19 70  1  0
 19 71  1  0
 20 21  1  0
 20 72  1  0
 20 73  1  0
 21 22  1  0
 21 74  1  0
 21 75  1  0
 22 40  1  0
 22 23  1  0
 22 76  1  1
 23 24  1  0
 23 25  1  0
 23 26  1  0
 24 77  1  0
 24 78  1  0
 24 79  1  0
 25 80  1  0
 25 81  1  0
 25 82  1  0
 26 27  1  0
 26 38  1  0
 26 83  1  6
 27 28  1  0
 28 36  1  0
 28 29  1  0
 28 84  1  6
 29 30  1  0
 30 31  1  0
 30 32  1  0
 30 85  1  1
 31 86  1  0
 31 87  1  0
 31 88  1  0
 32 33  1  0
 32 34  1  0
 32 89  1  1
 33 90  1  0
 34 35  1  0
 34 36  1  0
 34 91  1  6
 35 92  1  0
 36 37  1  0
 36 93  1  1
 37 94  1  0
 38 39  1  0
 38 95  1  0
 38 96  1  0
 39 40  1  0
 39 97  1  0
 39 98  1  0
 40 41  1  1
 40 42  1  0
 41 99  1  0
 41100  1  0
 41101  1  0
 42102  1  6
M  END
>  <i_m_ct_stereo_status>  (222) 
1

>  <s_m_source_file>  (222) 
/var/tmp/pbs.5076255.sched01/tmp4185l44a/86vs10_z9v.sdf

>  <i_m_source_file_index>  (222) 
8

>  <i_lp_mmshare_version>  (222) 
48012

>  <i_f3d_flags>  (222) 
0

>  <s_epik_input>  (222) 
W0NIM11DKFtDSDNdKShbT0hdKVxbQ0hdPVtDSF1cW0NIMl1bQ0BASF0oW0NIM10pW0NASF0oW0NIMl1bQ0hdPUMoW0NIMl1bQ0gyXTEpW0NAXTEyW0NIM10pW0NAQEhdM1tDQF0yKFtDSDNdKVtDSDJdW0NIMl1bQ0BASF00W0NAQF0zKFtDSDNdKVtDSDJdW0NIMl1bQ0BASF0oQzQoW0NIM10pW0NIM10pT1tDQEBIXTVPW0NAQEhdKFtDSDNdKVtDQEBIXShbT0hdKVtDQEBIXShbT0hdKVtDQEhdNVtPSF0=

>  <s_epik_cmdline>  (222) 
J2VwaWtfcHl0aG9uJywgJy1waHQnLCAnMi4wJywgJy1waCcsICc3LjAnLCAnLXRuJywgJzgnLCAnLW1hJywgJzIwMCcsICctaW1hZScsICc8aW5maWxlLm1hZT4nLCAnLW9tYWUnLCAnPG91dGZpbGUubWFlPic=

>  <r_lp_tautomer_probability>  (222) 
1

>  <r_epik_Ionization_Penalty>  (222) 
1.75393e-06

>  <r_epik_Ionization_Penalty_Charging>  (222) 
0

>  <r_epik_Ionization_Penalty_Neutral>  (222) 
1.75393e-06

>  <r_epik_State_Penalty>  (222) 
-0

>  <r_epik_Charging_Adjusted_Penalty>  (222) 
0

>  <i_epik_Tot_Q>  (222) 
0

>  <i_epik_Tot_abs_Q>  (222) 
0

>  <s_epik_Chemistry_Notes>  (222) 
This compound contains an acetal/aminal-like group ( X-CH(R)-Y where X, Y are N, S, or O) that may be acid/base labile, releasing an aldehyde.

>  <s_lp_Force_Field>  (222) 
OPLS3e

>  <r_lp_Energy>  (222) 
105.3

>  <b_lp_Chiralities_Consistent>  (222) 
1

>  <s_lp_Variant>  (222) 
62:0-2

>  <s_i_glide_gridfile>  (222) 
pfpi4k_grid

>  <i_i_glide_lignum>  (222) 
8

>  <i_i_glide_rotatable_bonds>  (222) 
10

>  <r_i_docking_score>  (222) 
-3.76864

>  <r_i_glide_ligand_efficiency>  (222) 
-0.0897295

>  <r_i_glide_ligand_efficiency_sa>  (222) 
-0.311902

>  <r_i_glide_ligand_efficiency_ln>  (222) 
-0.795463

>  <r_i_glide_gscore>  (222) 
-3.76864

>  <r_i_glide_lipo>  (222) 
-0.394758

>  <r_i_glide_hbond>  (222) 
-0.0449959

>  <r_i_glide_metal>  (222) 
-0

>  <r_i_glide_rewards>  (222) 
-0.0169328

>  <r_i_glide_evdw>  (222) 
-29.473

>  <r_i_glide_ecoul>  (222) 
-15.3592

>  <r_i_glide_erotb>  (222) 
0.255053

>  <r_i_glide_esite>  (222) 
0

>  <r_i_glide_emodel>  (222) 
-47.6549

>  <r_i_glide_energy>  (222) 
-44.8321

>  <r_i_glide_einternal>  (222) 
8.7088

>  <r_i_glide_intrahb_reward>  (222) 
-0

>  <i_i_glide_confnum>  (222) 
2

>  <i_i_glide_posenum>  (222) 
18

>  <r_i_glide_eff_state_penalty>  (222) 
0

>  <ligand_id>  (222) 
62

>  <original_smiles>  (222) 
CC(CC=CC(C)(C)O)C1CC=C2CCC2(C)C2(C)CCC3C(C)(C)C(OC4OC(C)C(O)C(O)C4O)CCC3(C)C12

>  <smiles>  (222) 
[H]OC1([H])C([H])(OC2([H])C([H])([H])C([H])([H])C3(C([H])([H])[H])C([H])(C([H])([H])C([H])([H])C4(C([H])([H])[H])C3([H])C([H])(C([H])(C([H])([H])[H])C([H])([H])C([H])=C([H])C(O[H])(C([H])([H])[H])C([H])([H])[H])C([H])([H])C([H])=C3C([H])([H])C([H])([H])C34C([H])([H])[H])C2(C([H])([H])[H])C([H])([H])[H])OC([H])(C([H])([H])[H])C([H])(O[H])C1([H])O[H]

$$$$
62:1:2
     RDKit          3D

102106  0  0  1  0  0  0  0  0999 V2000
    4.8999    1.9149    6.2013 C   0  0  0  0  0  0  0  0  0  0  0  0
    3.8643    2.6478    5.2946 C   0  0  2  0  0  0  0  0  0  0  0  0
    4.0953    4.1631    5.5410 C   0  0  0  0  0  0  0  0  0  0  0  0
    3.3261    5.1263    4.6283 C   0  0  0  0  0  0  0  0  0  0  0  0
    3.7477    6.3241    4.1793 C   0  0  0  0  0  0  0  0  0  0  0  0
    5.0569    7.0832    4.4243 C   0  0  0  0  0  0  0  0  0  0  0  0
    6.0943    6.4010    5.3301 C   0  0  0  0  0  0  0  0  0  0  0  0
    5.7142    7.4456    3.0887 C   0  0  0  0  0  0  0  0  0  0  0  0
    4.7225    8.3151    5.0406 O   0  0  0  0  0  0  0  0  0  0  0  0
    2.3603    2.1804    5.3731 C   0  0  2  0  0  0  0  0  0  0  0  0
    1.6331    2.5489    6.7034 C   0  0  0  0  0  0  0  0  0  0  0  0
    0.2133    3.0724    6.5390 C   0  0  0  0  0  0  0  0  0  0  0  0
   -0.6090    2.8200    5.5126 C   0  0  0  0  0  0  0  0  0  0  0  0
   -2.0677    3.1297    5.2878 C   0  0  0  0  0  0  0  0  0  0  0  0
   -2.0328    1.7869    4.5350 C   0  0  0  0  0  0  0  0  0  0  0  0
   -0.4957    1.8710    4.3423 C   0  0  1  0  0  0  0  0  0  0  0  0
   -0.1229    2.5914    3.0175 C   0  0  0  0  0  0  0  0  0  0  0  0
    0.3588    0.5738    4.6598 C   0  0  1  0  0  0  0  0  0  0  0  0
   -0.0597   -0.0593    6.0380 C   0  0  0  0  0  0  0  0  0  0  0  0
    0.0164   -0.4639    3.5560 C   0  0  0  0  0  0  0  0  0  0  0  0
    1.1106   -1.4707    3.2111 C   0  0  0  0  0  0  0  0  0  0  0  0
    2.0443   -1.8050    4.4020 C   0  0  1  0  0  0  0  0  0  0  0  0
    2.9118   -3.1154    4.2021 C   0  0  0  0  0  0  0  0  0  0  0  0
    3.4497   -3.6552    5.5450 C   0  0  0  0  0  0  0  0  0  0  0  0
    2.0638   -4.2649    3.6312 C   0  0  0  0  0  0  0  0  0  0  0  0
    4.1018   -2.8524    3.2447 C   0  0  1  0  0  0  0  0  0  0  0  0
    3.5882   -2.6143    1.9228 O   0  0  0  0  0  0  0  0  0  0  0  0
    4.2455   -3.2686    0.8785 C   0  0  2  0  0  0  0  0  0  0  0  0
    5.5680   -2.8164    0.7620 O   0  0  0  0  0  0  0  0  0  0  0  0
    5.7211   -1.4410    0.4159 C   0  0  1  0  0  0  0  0  0  0  0  0
    7.2066   -1.0746    0.4163 C   0  0  0  0  0  0  0  0  0  0  0  0
    5.0527   -1.1169   -0.9190 C   0  0  1  0  0  0  0  0  0  0  0  0
    5.7995   -1.7370   -1.9213 O   0  0  0  0  0  0  0  0  0  0  0  0
    3.5975   -1.5866   -0.9010 C   0  0  1  0  0  0  0  0  0  0  0  0
    2.9493   -1.3459   -2.1539 O   0  0  0  0  0  0  0  0  0  0  0  0
    3.4897   -3.0560   -0.4521 C   0  0  1  0  0  0  0  0  0  0  0  0
    4.0440   -3.8785   -1.4639 O   0  0  0  0  0  0  0  0  0  0  0  0
    4.9307   -1.6514    3.7296 C   0  0  0  0  0  0  0  0  0  0  0  0
    4.0574   -0.3841    3.8115 C   0  0  0  0  0  0  0  0  0  0  0  0
    2.8371   -0.4895    4.8123 C   0  0  2  0  0  0  0  0  0  0  0  0
    3.2770   -0.6516    6.2981 C   0  0  0  0  0  0  0  0  0  0  0  0
    1.9311    0.8259    4.6563 C   0  0  2  0  0  0  0  0  0  0  0  0
    4.6039    1.9791    7.2491 H   0  0  0  0  0  0  0  0  0  0  0  0
    5.8735    2.4262    6.1266 H   0  0  0  0  0  0  0  0  0  0  0  0
    5.0630    0.8551    5.9619 H   0  0  0  0  0  0  0  0  0  0  0  0
    4.1221    2.5224    4.2504 H   0  0  0  0  0  0  0  0  0  0  0  0
    3.8192    4.4095    6.5798 H   0  0  0  0  0  0  0  0  0  0  0  0
    5.1193    4.2505    5.4201 H   0  0  0  0  0  0  0  0  0  0  0  0
    2.3230    4.8526    4.2885 H   0  0  0  0  0  0  0  0  0  0  0  0
    3.0668    6.8500    3.5377 H   0  0  0  0  0  0  0  0  0  0  0  0
    6.4052    5.4623    4.9148 H   0  0  0  0  0  0  0  0  0  0  0  0
    5.6650    6.1832    6.3003 H   0  0  0  0  0  0  0  0  0  0  0  0
    6.9732    7.0452    5.5070 H   0  0  0  0  0  0  0  0  0  0  0  0
    5.9665    6.5447    2.5188 H   0  0  0  0  0  0  0  0  0  0  0  0
    6.6406    7.9937    3.2465 H   0  0  0  0  0  0  0  0  0  0  0  0
    5.0580    8.0477    2.4579 H   0  0  0  0  0  0  0  0  0  0  0  0
    5.1766    9.0091    4.5857 H   0  0  0  0  0  0  0  0  0  0  0  0
    1.9017    2.8885    4.6895 H   0  0  0  0  0  0  0  0  0  0  0  0
    1.6618    1.7593    7.4560 H   0  0  0  0  0  0  0  0  0  0  0  0
    2.1348    3.3755    7.1913 H   0  0  0  0  0  0  0  0  0  0  0  0
   -0.1575    3.6855    7.3383 H   0  0  0  0  0  0  0  0  0  0  0  0
   -2.7532    3.1262    6.1441 H   0  0  0  0  0  0  0  0  0  0  0  0
   -2.2969    3.9713    4.6282 H   0  0  0  0  0  0  0  0  0  0  0  0
   -2.3607    0.9398    5.1401 H   0  0  0  0  0  0  0  0  0  0  0  0
   -2.5794    1.8275    3.6031 H   0  0  0  0  0  0  0  0  0  0  0  0
   -0.4738    2.0584    2.1353 H   0  0  0  0  0  0  0  0  0  0  0  0
    0.9382    2.7649    2.8669 H   0  0  0  0  0  0  0  0  0  0  0  0
   -0.6021    3.5670    2.9620 H   0  0  0  0  0  0  0  0  0  0  0  0
    0.7773   -0.1696    6.7149 H   0  0  0  0  0  0  0  0  0  0  0  0
   -0.4960   -1.0489    5.9406 H   0  0  0  0  0  0  0  0  0  0  0  0
   -0.7809    0.5255    6.6095 H   0  0  0  0  0  0  0  0  0  0  0  0
   -0.8839   -0.9883    3.8345 H   0  0  0  0  0  0  0  0  0  0  0  0
   -0.2327    0.0297    2.6093 H   0  0  0  0  0  0  0  0  0  0  0  0
    0.5962   -2.3591    2.8365 H   0  0  0  0  0  0  0  0  0  0  0  0
    1.6889   -1.0703    2.3924 H   0  0  0  0  0  0  0  0  0  0  0  0
    1.3805   -2.0527    5.2190 H   0  0  0  0  0  0  0  0  0  0  0  0
    3.9187   -4.6324    5.4239 H   0  0  0  0  0  0  0  0  0  0  0  0
    2.6510   -3.7552    6.2861 H   0  0  0  0  0  0  0  0  0  0  0  0
    4.2229   -3.0428    6.0012 H   0  0  0  0  0  0  0  0  0  0  0  0
    2.6217   -5.2033    3.6339 H   0  0  0  0  0  0  0  0  0  0  0  0
    1.7701   -4.1018    2.5930 H   0  0  0  0  0  0  0  0  0  0  0  0
    1.1526   -4.4105    4.2166 H   0  0  0  0  0  0  0  0  0  0  0  0
    4.7434   -3.7344    3.2408 H   0  0  0  0  0  0  0  0  0  0  0  0
    4.2827   -4.3324    1.1200 H   0  0  0  0  0  0  0  0  0  0  0  0
    5.2257   -0.8151    1.1513 H   0  0  0  0  0  0  0  0  0  0  0  0
    7.3102   -0.0694    0.0519 H   0  0  0  0  0  0  0  0  0  0  0  0
    7.7995   -1.7383   -0.2275 H   0  0  0  0  0  0  0  0  0  0  0  0
    7.6363   -1.1227    1.4258 H   0  0  0  0  0  0  0  0  0  0  0  0
    5.0467   -0.0393   -1.0565 H   0  0  0  0  0  0  0  0  0  0  0  0
    5.5235   -2.6465   -1.9153 H   0  0  0  0  0  0  0  0  0  0  0  0
    3.0689   -0.9825   -0.1660 H   0  0  0  0  0  0  0  0  0  0  0  0
    2.0247   -1.2544   -1.9700 H   0  0  0  0  0  0  0  0  0  0  0  0
    2.4458   -3.3283   -0.2952 H   0  0  0  0  0  0  0  0  0  0  0  0
    3.4197   -4.5811   -1.6909 H   0  0  0  0  0  0  0  0  0  0  0  0
    5.3894   -1.8577    4.6953 H   0  0  0  0  0  0  0  0  0  0  0  0
    5.7862   -1.4787    3.0786 H   0  0  0  0  0  0  0  0  0  0  0  0
    4.7245    0.4553    3.9980 H   0  0  0  0  0  0  0  0  0  0  0  0
    3.6781   -0.1744    2.8051 H   0  0  0  0  0  0  0  0  0  0  0  0
    3.1825    0.2595    6.8787 H   0  0  0  0  0  0  0  0  0  0  0  0
    4.3270   -0.9278    6.3887 H   0  0  0  0  0  0  0  0  0  0  0  0
    2.6823   -1.3974    6.8488 H   0  0  0  0  0  0  0  0  0  0  0  0
    2.1058    1.0890    3.6154 H   0  0  0  0  0  0  0  0  0  0  0  0
  1  2  1  0
  1 43  1  0
  1 44  1  0
  1 45  1  0
  2  3  1  0
  2 10  1  0
  2 46  1  6
  3  4  1  0
  3 47  1  0
  3 48  1  0
  4  5  2  3
  4 49  1  0
  5  6  1  0
  5 50  1  0
  6  7  1  0
  6  8  1  0
  6  9  1  0
  7 51  1  0
  7 52  1  0
  7 53  1  0
  8 54  1  0
  8 55  1  0
  8 56  1  0
  9 57  1  0
 10 42  1  0
 10 11  1  0
 10 58  1  6
 11 12  1  0
 11 59  1  0
 11 60  1  0
 12 13  2  0
 12 61  1  0
 13 16  1  0
 13 14  1  0
 14 15  1  0
 14 62  1  0
 14 63  1  0
 15 16  1  0
 15 64  1  0
 15 65  1  0
 16 17  1  6
 16 18  1  0
 17 66  1  0
 17 67  1  0
 17 68  1  0
 18 42  1  0
 18 19  1  1
 18 20  1  0
 19 69  1  0
 19 70  1  0
 19 71  1  0
 20 21  1  0
 20 72  1  0
 20 73  1  0
 21 22  1  0
 21 74  1  0
 21 75  1  0
 22 40  1  0
 22 23  1  0
 22 76  1  1
 23 24  1  0
 23 25  1  0
 23 26  1  0
 24 77  1  0
 24 78  1  0
 24 79  1  0
 25 80  1  0
 25 81  1  0
 25 82  1  0
 26 27  1  0
 26 38  1  0
 26 83  1  6
 27 28  1  0
 28 36  1  0
 28 29  1  0
 28 84  1  1
 29 30  1  0
 30 31  1  0
 30 32  1  0
 30 85  1  1
 31 86  1  0
 31 87  1  0
 31 88  1  0
 32 33  1  0
 32 34  1  0
 32 89  1  6
 33 90  1  0
 34 35  1  0
 34 36  1  0
 34 91  1  1
 35 92  1  0
 36 37  1  0
 36 93  1  1
 37 94  1  0
 38 39  1  0
 38 95  1  0
 38 96  1  0
 39 40  1  0
 39 97  1  0
 39 98  1  0
 40 41  1  1
 40 42  1  0
 41 99  1  0
 41100  1  0
 41101  1  0
 42102  1  6
M  END
>  <i_m_ct_stereo_status>  (223) 
1

>  <s_m_source_file>  (223) 
/var/tmp/pbs.5076255.sched01/tmp4185l44a/86vs10_z9v.sdf

>  <i_m_source_file_index>  (223) 
8

>  <i_lp_mmshare_version>  (223) 
48012

>  <i_f3d_flags>  (223) 
0

>  <s_epik_input>  (223) 
W0NIM11DKFtDSDNdKShbT0hdKVxbQ0hdPVtDSF1cW0NIMl1bQ0BASF0oW0NIM10pW0NASF0oW0NIMl1bQ0hdPUMoW0NIMl1bQ0gyXTEpW0NAXTEyW0NIM10pW0NAQEhdM1tDQF0yKFtDSDNdKVtDSDJdW0NIMl1bQ0BASF00W0NAQF0zKFtDSDNdKVtDSDJdW0NIMl1bQ0BASF0oQzQoW0NIM10pW0NIM10pT1tDQEBIXTVPW0NAQEhdKFtDSDNdKVtDQEBIXShbT0hdKVtDQEBIXShbT0hdKVtDQEhdNVtPSF0=

>  <s_epik_cmdline>  (223) 
J2VwaWtfcHl0aG9uJywgJy1waHQnLCAnMi4wJywgJy1waCcsICc3LjAnLCAnLXRuJywgJzgnLCAnLW1hJywgJzIwMCcsICctaW1hZScsICc8aW5maWxlLm1hZT4nLCAnLW9tYWUnLCAnPG91dGZpbGUubWFlPic=

>  <r_lp_tautomer_probability>  (223) 
1

>  <r_epik_Ionization_Penalty>  (223) 
1.75393e-06

>  <r_epik_Ionization_Penalty_Charging>  (223) 
0

>  <r_epik_Ionization_Penalty_Neutral>  (223) 
1.75393e-06

>  <r_epik_State_Penalty>  (223) 
-0

>  <r_epik_Charging_Adjusted_Penalty>  (223) 
0

>  <i_epik_Tot_Q>  (223) 
0

>  <i_epik_Tot_abs_Q>  (223) 
0

>  <s_epik_Chemistry_Notes>  (223) 
This compound contains an acetal/aminal-like group ( X-CH(R)-Y where X, Y are N, S, or O) that may be acid/base labile, releasing an aldehyde.

>  <s_lp_Force_Field>  (223) 
OPLS3e

>  <r_lp_Energy>  (223) 
105.3

>  <b_lp_Chiralities_Consistent>  (223) 
1

>  <s_lp_Variant>  (223) 
62:0-2

>  <s_i_glide_gridfile>  (223) 
pfpi4k_grid

>  <i_i_glide_lignum>  (223) 
8

>  <i_i_glide_rotatable_bonds>  (223) 
10

>  <r_i_docking_score>  (223) 
-3.11877

>  <r_i_glide_ligand_efficiency>  (223) 
-0.0742563

>  <r_i_glide_ligand_efficiency_sa>  (223) 
-0.258117

>  <r_i_glide_ligand_efficiency_ln>  (223) 
-0.658291

>  <r_i_glide_gscore>  (223) 
-3.11877

>  <r_i_glide_lipo>  (223) 
-0.271716

>  <r_i_glide_hbond>  (223) 
0

>  <r_i_glide_metal>  (223) 
-0

>  <r_i_glide_rewards>  (223) 
-0.520442

>  <r_i_glide_evdw>  (223) 
-22.142

>  <r_i_glide_ecoul>  (223) 
-9.83041

>  <r_i_glide_erotb>  (223) 
0.255053

>  <r_i_glide_esite>  (223) 
0

>  <r_i_glide_emodel>  (223) 
-40.3256

>  <r_i_glide_energy>  (223) 
-31.9724

>  <r_i_glide_einternal>  (223) 
4.47061

>  <r_i_glide_intrahb_reward>  (223) 
-0.5

>  <i_i_glide_confnum>  (223) 
1

>  <i_i_glide_posenum>  (223) 
4

>  <r_i_glide_eff_state_penalty>  (223) 
0

>  <ligand_id>  (223) 
62

>  <original_smiles>  (223) 
CC(CC=CC(C)(C)O)C1CC=C2CCC2(C)C2(C)CCC3C(C)(C)C(OC4OC(C)C(O)C(O)C4O)CCC3(C)C12

>  <smiles>  (223) 
[H]OC1([H])C([H])(OC2([H])C([H])([H])C([H])([H])C3(C([H])([H])[H])C([H])(C([H])([H])C([H])([H])C4(C([H])([H])[H])C3([H])C([H])(C([H])(C([H])([H])[H])C([H])([H])C([H])=C([H])C(O[H])(C([H])([H])[H])C([H])([H])[H])C([H])([H])C([H])=C3C([H])([H])C([H])([H])C34C([H])([H])[H])C2(C([H])([H])[H])C([H])([H])[H])OC([H])(C([H])([H])[H])C([H])(O[H])C1([H])O[H]

$$$$
63:0:0
     RDKit          3D

 55 60  0  0  1  0  0  0  0  0999 V2000
   -1.4551   -6.9617    4.2090 C   0  0  0  0  0  0  0  0  0  0  0  0
   -0.2523   -7.8333    3.8722 C   0  0  2  0  0  0  0  0  0  0  0  0
   -0.6953   -9.0329    3.0411 C   0  0  0  0  0  0  0  0  0  0  0  0
    0.5304   -9.7435    2.4805 C   0  0  0  0  0  0  0  0  0  0  0  0
    1.6465  -10.1135    3.5032 C   0  0  1  0  0  0  0  0  0  0  0  0
    1.4337  -11.5537    4.0033 C   0  0  0  0  0  0  0  0  0  0  0  0
    2.9913   -9.9992    2.7352 C   0  0  0  0  0  0  0  0  0  0  0  0
    3.3697   -8.5231    2.8650 C   0  0  1  0  0  0  0  0  0  0  0  0
    3.0368   -8.2864    4.3290 C   0  0  0  0  0  0  0  0  0  0  0  0
    3.9253   -7.7840    5.2161 C   0  0  0  0  0  0  0  0  0  0  0  0
    5.2945   -7.4997    4.8259 C   0  0  0  0  0  0  0  0  0  0  0  0
    5.6419   -7.7037    3.5532 C   0  0  0  0  0  0  0  0  0  0  0  0
    6.8632   -7.8991    2.6983 C   0  0  2  0  0  0  0  0  0  0  0  0
    8.2775   -7.7463    3.2443 C   0  0  0  0  0  0  0  0  0  0  0  0
    8.2450   -6.3208    2.6109 C   0  0  1  0  0  0  0  0  0  0  0  0
    9.4096   -5.8476    1.9791 O   0  0  0  0  0  0  0  0  0  0  0  0
    7.1109   -6.8006    1.6859 C   0  0  2  0  0  0  0  0  0  0  0  0
    5.8813   -6.0631    1.5803 O   0  0  0  0  0  0  0  0  0  0  0  0
    4.7259   -6.8690    1.4269 C   0  0  1  0  0  0  0  0  0  0  0  0
    4.5897   -7.3316    0.1036 O   0  0  0  0  0  0  0  0  0  0  0  0
    4.7918   -8.1051    2.3943 C   0  0  2  0  0  0  0  0  0  0  0  0
    6.0109   -9.0896    2.2288 C   0  0  0  0  0  0  0  0  0  0  0  0
    1.8068   -9.1121    4.6929 C   0  0  1  0  0  0  0  0  0  0  0  0
    0.5149   -8.3541    5.1036 C   0  0  1  0  0  0  0  0  0  0  0  0
    0.7638   -7.2881    6.1890 C   0  0  0  0  0  0  0  0  0  0  0  0
   -2.1550   -7.4677    4.8749 H   0  0  0  0  0  0  0  0  0  0  0  0
   -2.0040   -6.6870    3.3103 H   0  0  0  0  0  0  0  0  0  0  0  0
   -1.1313   -6.0386    4.6861 H   0  0  0  0  0  0  0  0  0  0  0  0
    0.4206   -7.2284    3.2682 H   0  0  0  0  0  0  0  0  0  0  0  0
   -1.2927   -9.7165    3.6421 H   0  0  0  0  0  0  0  0  0  0  0  0
   -1.3354   -8.7256    2.2124 H   0  0  0  0  0  0  0  0  0  0  0  0
    0.1845  -10.6470    1.9881 H   0  0  0  0  0  0  0  0  0  0  0  0
    0.9327   -9.1170    1.6780 H   0  0  0  0  0  0  0  0  0  0  0  0
    2.2330  -11.8908    4.6633 H   0  0  0  0  0  0  0  0  0  0  0  0
    1.4298  -12.2318    3.1501 H   0  0  0  0  0  0  0  0  0  0  0  0
    0.4925  -11.6914    4.5383 H   0  0  0  0  0  0  0  0  0  0  0  0
    3.7462  -10.6255    3.2077 H   0  0  0  0  0  0  0  0  0  0  0  0
    2.9252  -10.3096    1.6898 H   0  0  0  0  0  0  0  0  0  0  0  0
    2.6219   -7.9331    2.3286 H   0  0  0  0  0  0  0  0  0  0  0  0
    3.6717   -7.7867    6.2659 H   0  0  0  0  0  0  0  0  0  0  0  0
    6.0479   -7.2749    5.5691 H   0  0  0  0  0  0  0  0  0  0  0  0
    8.3722   -7.7686    4.3320 H   0  0  0  0  0  0  0  0  0  0  0  0
    8.9876   -8.4144    2.7472 H   0  0  0  0  0  0  0  0  0  0  0  0
    7.8749   -5.5800    3.3293 H   0  0  0  0  0  0  0  0  0  0  0  0
    9.8981   -6.6281    1.6948 H   0  0  0  0  0  0  0  0  0  0  0  0
    7.5079   -7.2019    0.7517 H   0  0  0  0  0  0  0  0  0  0  0  0
    3.8581   -6.2266    1.6078 H   0  0  0  0  0  0  0  0  0  0  0  0
    4.4206   -6.6004   -0.4639 H   0  0  0  0  0  0  0  0  0  0  0  0
    6.1850   -9.3437    1.1885 H   0  0  0  0  0  0  0  0  0  0  0  0
    6.0224   -9.9593    2.8939 H   0  0  0  0  0  0  0  0  0  0  0  0
    2.1118   -9.6884    5.5699 H   0  0  0  0  0  0  0  0  0  0  0  0
   -0.1413   -9.0945    5.5735 H   0  0  0  0  0  0  0  0  0  0  0  0
    1.3061   -6.4254    5.8001 H   0  0  0  0  0  0  0  0  0  0  0  0
    1.3210   -7.7056    7.0280 H   0  0  0  0  0  0  0  0  0  0  0  0
   -0.1755   -6.9261    6.6045 H   0  0  0  0  0  0  0  0  0  0  0  0
  1  2  1  0
  1 26  1  0
  1 27  1  0
  1 28  1  0
  2 24  1  0
  2  3  1  0
  2 29  1  6
  3  4  1  0
  3 30  1  0
  3 31  1  0
  4  5  1  0
  4 32  1  0
  4 33  1  0
  5 23  1  0
  5  6  1  1
  5  7  1  0
  6 34  1  0
  6 35  1  0
  6 36  1  0
  7  8  1  0
  7 37  1  0
  7 38  1  0
  8 21  1  0
  8  9  1  0
  8 39  1  6
  9 10  2  0
  9 23  1  0
 10 11  1  0
 10 40  1  0
 11 12  2  0
 11 41  1  0
 12 21  1  0
 12 13  1  0
 13 17  1  0
 13 22  1  0
 13 14  1  1
 14 15  1  0
 14 42  1  0
 14 43  1  0
 15 16  1  0
 15 17  1  0
 15 44  1  1
 16 45  1  0
 17 18  1  0
 17 46  1  6
 18 19  1  0
 19 20  1  0
 19 21  1  0
 19 47  1  1
 20 48  1  0
 21 22  1  6
 22 49  1  0
 22 50  1  0
 23 24  1  0
 23 51  1  1
 24 25  1  0
 24 52  1  1
 25 53  1  0
 25 54  1  0
 25 55  1  0
M  END
>  <i_m_ct_stereo_status>  (224) 
1

>  <s_m_source_file>  (224) 
/var/tmp/pbs.5076255.sched01/tmp4185l44a/86vs10_z9v.sdf

>  <i_m_source_file_index>  (224) 
9

>  <i_lp_mmshare_version>  (224) 
48012

>  <i_f3d_flags>  (224) 
0

>  <s_epik_input>  (224) 
W0NIM11bQ0BIXTFbQ0BIXShbQ0gzXSlbQ0gyXVtDSDJdW0NAQF0oW0NIM10pKFtDSDJdMilbQ0BIXTFDKD1bQ0hdW0NIXT0zKVtDQEhdMltDQEBdKEMzW0NAXTQ1NikoW0NIMl02KVtDQEhdKFtPSF0pT1tDQEhdNVtDQEBIXShbQ0gyXTQpW09IXQ==

>  <s_epik_cmdline>  (224) 
J2VwaWtfcHl0aG9uJywgJy1waHQnLCAnMi4wJywgJy1waCcsICc3LjAnLCAnLXRuJywgJzgnLCAnLW1hJywgJzIwMCcsICctaW1hZScsICc8aW5maWxlLm1hZT4nLCAnLW9tYWUnLCAnPG91dGZpbGUubWFlPic=

>  <r_lp_tautomer_probability>  (224) 
1

>  <r_epik_Ionization_Penalty>  (224) 
1.02568e-07

>  <r_epik_Ionization_Penalty_Charging>  (224) 
0

>  <r_epik_Ionization_Penalty_Neutral>  (224) 
1.02568e-07

>  <r_epik_State_Penalty>  (224) 
-0

>  <r_epik_Charging_Adjusted_Penalty>  (224) 
0

>  <i_epik_Tot_Q>  (224) 
0

>  <i_epik_Tot_abs_Q>  (224) 
0

>  <s_epik_Chemistry_Notes>  (224) 
This compound contains an acetal/aminal-like group ( X-CH(R)-Y where X, Y are N, S, or O) that may be acid/base labile, releasing an aldehyde.

>  <s_lp_Force_Field>  (224) 
OPLS3e

>  <r_lp_Energy>  (224) 
90.8126

>  <b_lp_Chiralities_Consistent>  (224) 
1

>  <s_lp_Variant>  (224) 
63:0-1

>  <s_i_glide_gridfile>  (224) 
pfpi4k_grid

>  <i_i_glide_lignum>  (224) 
9

>  <i_i_glide_rotatable_bonds>  (224) 
2

>  <r_i_docking_score>  (224) 
-3.66086

>  <r_i_glide_ligand_efficiency>  (224) 
-0.146434

>  <r_i_glide_ligand_efficiency_sa>  (224) 
-0.428177

>  <r_i_glide_ligand_efficiency_ln>  (224) 
-0.867733

>  <r_i_glide_gscore>  (224) 
-3.66086

>  <r_i_glide_lipo>  (224) 
-0.290005

>  <r_i_glide_hbond>  (224) 
-0.176737

>  <r_i_glide_metal>  (224) 
-0

>  <r_i_glide_rewards>  (224) 
-1.18297

>  <r_i_glide_evdw>  (224) 
-22.9229

>  <r_i_glide_ecoul>  (224) 
-5.76667

>  <r_i_glide_erotb>  (224) 
0

>  <r_i_glide_esite>  (224) 
0

>  <r_i_glide_emodel>  (224) 
-34.9516

>  <r_i_glide_energy>  (224) 
-28.6896

>  <r_i_glide_einternal>  (224) 
0.765557

>  <r_i_glide_intrahb_reward>  (224) 
-0

>  <i_i_glide_confnum>  (224) 
2

>  <i_i_glide_posenum>  (224) 
28

>  <r_i_glide_eff_state_penalty>  (224) 
0

>  <ligand_id>  (224) 
63

>  <original_smiles>  (224) 
CC1CCC2(C)CC3C(=CC=C4C56CC(O)C5OC(O)C43C6)C2C1C

>  <smiles>  (224) 
[H]OC1([H])OC2([H])C([H])(O[H])C([H])([H])C23C2=C([H])C([H])=C4C([H])(C([H])([H])C5(C([H])([H])[H])C([H])([H])C([H])([H])C([H])(C([H])([H])[H])C([H])(C([H])([H])[H])C45[H])C21C3([H])[H]

$$$$
63:0:1
     RDKit          3D

 55 60  0  0  1  0  0  0  0  0999 V2000
   -1.3865   -9.3043    2.4688 C   0  0  0  0  0  0  0  0  0  0  0  0
    0.0396   -8.8388    2.7939 C   0  0  2  0  0  0  0  0  0  0  0  0
    0.9853  -10.0274    2.9492 C   0  0  0  0  0  0  0  0  0  0  0  0
    2.4366   -9.5501    2.9773 C   0  0  0  0  0  0  0  0  0  0  0  0
    2.7670   -8.4181    4.0039 C   0  0  1  0  0  0  0  0  0  0  0  0
    3.2874   -9.0342    5.3235 C   0  0  0  0  0  0  0  0  0  0  0  0
    3.8651   -7.5370    3.3499 C   0  0  0  0  0  0  0  0  0  0  0  0
    3.0902   -6.5337    2.4911 C   0  0  1  0  0  0  0  0  0  0  0  0
    1.9665   -6.1677    3.4458 C   0  0  0  0  0  0  0  0  0  0  0  0
    1.6790   -4.8882    3.8023 C   0  0  0  0  0  0  0  0  0  0  0  0
    2.4877   -3.7814    3.3182 C   0  0  0  0  0  0  0  0  0  0  0  0
    3.5012   -4.0487    2.4900 C   0  0  0  0  0  0  0  0  0  0  0  0
    4.7878   -3.4471    1.9694 C   0  0  2  0  0  0  0  0  0  0  0  0
    5.2093   -2.0227    2.3003 C   0  0  0  0  0  0  0  0  0  0  0  0
    4.6471   -1.6492    0.9005 C   0  0  1  0  0  0  0  0  0  0  0  0
    5.3867   -0.6913    0.1553 O   0  0  0  0  0  0  0  0  0  0  0  0
    4.7923   -3.1324    0.4863 C   0  0  2  0  0  0  0  0  0  0  0  0
    3.6949   -3.8751   -0.0709 O   0  0  0  0  0  0  0  0  0  0  0  0
    3.6190   -5.2315    0.3489 C   0  0  1  0  0  0  0  0  0  0  0  0
    4.5402   -6.0449   -0.3190 O   0  0  0  0  0  0  0  0  0  0  0  0
    3.8923   -5.3526    1.8786 C   0  0  2  0  0  0  0  0  0  0  0  0
    5.2853   -4.8381    2.3909 C   0  0  0  0  0  0  0  0  0  0  0  0
    1.5902   -7.4083    4.2550 C   0  0  1  0  0  0  0  0  0  0  0  0
    0.1560   -7.9890    4.0722 C   0  0  1  0  0  0  0  0  0  0  0  0
   -0.9515   -6.9337    4.2076 C   0  0  0  0  0  0  0  0  0  0  0  0
   -1.8389   -9.8497    3.2850 H   0  0  0  0  0  0  0  0  0  0  0  0
   -1.3826   -9.9864    1.6235 H   0  0  0  0  0  0  0  0  0  0  0  0
   -2.0365   -8.4725    2.2022 H   0  0  0  0  0  0  0  0  0  0  0  0
    0.3807   -8.2516    1.9412 H   0  0  0  0  0  0  0  0  0  0  0  0
    0.7513  -10.6075    3.8451 H   0  0  0  0  0  0  0  0  0  0  0  0
    0.8600  -10.7026    2.1052 H   0  0  0  0  0  0  0  0  0  0  0  0
    3.0758  -10.4096    3.1673 H   0  0  0  0  0  0  0  0  0  0  0  0
    2.6964   -9.2417    1.9604 H   0  0  0  0  0  0  0  0  0  0  0  0
    3.5819   -8.2681    6.0412 H   0  0  0  0  0  0  0  0  0  0  0  0
    4.1681   -9.6538    5.1554 H   0  0  0  0  0  0  0  0  0  0  0  0
    2.5393   -9.6619    5.8052 H   0  0  0  0  0  0  0  0  0  0  0  0
    4.4280   -7.0092    4.1207 H   0  0  0  0  0  0  0  0  0  0  0  0
    4.5811   -8.1083    2.7560 H   0  0  0  0  0  0  0  0  0  0  0  0
    2.5881   -7.0844    1.6968 H   0  0  0  0  0  0  0  0  0  0  0  0
    0.9730   -4.7095    4.5998 H   0  0  0  0  0  0  0  0  0  0  0  0
    2.3831   -2.7906    3.7497 H   0  0  0  0  0  0  0  0  0  0  0  0
    4.6986   -1.5525    3.1422 H   0  0  0  0  0  0  0  0  0  0  0  0
    6.2945   -1.9207    2.3522 H   0  0  0  0  0  0  0  0  0  0  0  0
    3.5962   -1.3617    0.9497 H   0  0  0  0  0  0  0  0  0  0  0  0
    4.8420    0.0782    0.0691 H   0  0  0  0  0  0  0  0  0  0  0  0
    5.7614   -3.3474    0.0397 H   0  0  0  0  0  0  0  0  0  0  0  0
    2.6291   -5.5966    0.0470 H   0  0  0  0  0  0  0  0  0  0  0  0
    4.2886   -6.0741   -1.2256 H   0  0  0  0  0  0  0  0  0  0  0  0
    6.0996   -5.1879    1.7685 H   0  0  0  0  0  0  0  0  0  0  0  0
    5.4838   -4.9643    3.4579 H   0  0  0  0  0  0  0  0  0  0  0  0
    1.6507   -7.0818    5.2968 H   0  0  0  0  0  0  0  0  0  0  0  0
   -0.0108   -8.6793    4.9047 H   0  0  0  0  0  0  0  0  0  0  0  0
   -0.9619   -6.2650    3.3502 H   0  0  0  0  0  0  0  0  0  0  0  0
   -0.8253   -6.3378    5.1120 H   0  0  0  0  0  0  0  0  0  0  0  0
   -1.9337   -7.4038    4.2833 H   0  0  0  0  0  0  0  0  0  0  0  0
  1  2  1  0
  1 26  1  0
  1 27  1  0
  1 28  1  0
  2 24  1  0
  2  3  1  0
  2 29  1  6
  3  4  1  0
  3 30  1  0
  3 31  1  0
  4  5  1  0
  4 32  1  0
  4 33  1  0
  5 23  1  0
  5  6  1  1
  5  7  1  0
  6 34  1  0
  6 35  1  0
  6 36  1  0
  7  8  1  0
  7 37  1  0
  7 38  1  0
  8 21  1  0
  8  9  1  0
  8 39  1  6
  9 10  2  0
  9 23  1  0
 10 11  1  0
 10 40  1  0
 11 12  2  0
 11 41  1  0
 12 21  1  0
 12 13  1  0
 13 17  1  0
 13 22  1  0
 13 14  1  1
 14 15  1  0
 14 42  1  0
 14 43  1  0
 15 16  1  0
 15 17  1  0
 15 44  1  1
 16 45  1  0
 17 18  1  0
 17 46  1  6
 18 19  1  0
 19 20  1  0
 19 21  1  0
 19 47  1  1
 20 48  1  0
 21 22  1  6
 22 49  1  0
 22 50  1  0
 23 24  1  0
 23 51  1  1
 24 25  1  0
 24 52  1  1
 25 53  1  0
 25 54  1  0
 25 55  1  0
M  END
>  <i_m_ct_stereo_status>  (225) 
1

>  <s_m_source_file>  (225) 
/var/tmp/pbs.5076255.sched01/tmp4185l44a/86vs10_z9v.sdf

>  <i_m_source_file_index>  (225) 
9

>  <i_lp_mmshare_version>  (225) 
48012

>  <i_f3d_flags>  (225) 
0

>  <s_epik_input>  (225) 
W0NIM11bQ0BIXTFbQ0BIXShbQ0gzXSlbQ0gyXVtDSDJdW0NAQF0oW0NIM10pKFtDSDJdMilbQ0BIXTFDKD1bQ0hdW0NIXT0zKVtDQEhdMltDQEBdKEMzW0NAXTQ1NikoW0NIMl02KVtDQEhdKFtPSF0pT1tDQEhdNVtDQEBIXShbQ0gyXTQpW09IXQ==

>  <s_epik_cmdline>  (225) 
J2VwaWtfcHl0aG9uJywgJy1waHQnLCAnMi4wJywgJy1waCcsICc3LjAnLCAnLXRuJywgJzgnLCAnLW1hJywgJzIwMCcsICctaW1hZScsICc8aW5maWxlLm1hZT4nLCAnLW9tYWUnLCAnPG91dGZpbGUubWFlPic=

>  <r_lp_tautomer_probability>  (225) 
1

>  <r_epik_Ionization_Penalty>  (225) 
1.02568e-07

>  <r_epik_Ionization_Penalty_Charging>  (225) 
0

>  <r_epik_Ionization_Penalty_Neutral>  (225) 
1.02568e-07

>  <r_epik_State_Penalty>  (225) 
-0

>  <r_epik_Charging_Adjusted_Penalty>  (225) 
0

>  <i_epik_Tot_Q>  (225) 
0

>  <i_epik_Tot_abs_Q>  (225) 
0

>  <s_epik_Chemistry_Notes>  (225) 
This compound contains an acetal/aminal-like group ( X-CH(R)-Y where X, Y are N, S, or O) that may be acid/base labile, releasing an aldehyde.

>  <s_lp_Force_Field>  (225) 
OPLS3e

>  <r_lp_Energy>  (225) 
90.8126

>  <b_lp_Chiralities_Consistent>  (225) 
1

>  <s_lp_Variant>  (225) 
63:0-1

>  <s_i_glide_gridfile>  (225) 
pfpi4k_grid

>  <i_i_glide_lignum>  (225) 
9

>  <i_i_glide_rotatable_bonds>  (225) 
2

>  <r_i_docking_score>  (225) 
-3.40691

>  <r_i_glide_ligand_efficiency>  (225) 
-0.136277

>  <r_i_glide_ligand_efficiency_sa>  (225) 
-0.398475

>  <r_i_glide_ligand_efficiency_ln>  (225) 
-0.807541

>  <r_i_glide_gscore>  (225) 
-3.40691

>  <r_i_glide_lipo>  (225) 
-0.516297

>  <r_i_glide_hbond>  (225) 
-0.0317155

>  <r_i_glide_metal>  (225) 
-0

>  <r_i_glide_rewards>  (225) 
-1.07406

>  <r_i_glide_evdw>  (225) 
-24.9043

>  <r_i_glide_ecoul>  (225) 
-3.54344

>  <r_i_glide_erotb>  (225) 
0

>  <r_i_glide_esite>  (225) 
-0.00811431

>  <r_i_glide_emodel>  (225) 
-33.7163

>  <r_i_glide_energy>  (225) 
-28.4478

>  <r_i_glide_einternal>  (225) 
1.85465

>  <r_i_glide_intrahb_reward>  (225) 
-0

>  <i_i_glide_confnum>  (225) 
1

>  <i_i_glide_posenum>  (225) 
8

>  <r_i_glide_eff_state_penalty>  (225) 
0

>  <ligand_id>  (225) 
63

>  <original_smiles>  (225) 
CC1CCC2(C)CC3C(=CC=C4C56CC(O)C5OC(O)C43C6)C2C1C

>  <smiles>  (225) 
[H]OC1([H])OC2([H])C([H])(O[H])C([H])([H])C23C2=C([H])C([H])=C4C([H])(C([H])([H])C5(C([H])([H])[H])C([H])([H])C([H])([H])C([H])(C([H])([H])[H])C([H])(C([H])([H])[H])C45[H])C21C3([H])[H]

$$$$
63:0:2
     RDKit          3D

 55 60  0  0  1  0  0  0  0  0999 V2000
    0.2163   -8.9119    6.6175 C   0  0  0  0  0  0  0  0  0  0  0  0
    1.1897   -8.9121    5.4275 C   0  0  2  0  0  0  0  0  0  0  0  0
    1.0218  -10.1876    4.5981 C   0  0  0  0  0  0  0  0  0  0  0  0
    1.7718  -10.0548    3.2740 C   0  0  0  0  0  0  0  0  0  0  0  0
    3.2720   -9.6302    3.3686 C   0  0  1  0  0  0  0  0  0  0  0  0
    4.1760  -10.8825    3.3853 C   0  0  0  0  0  0  0  0  0  0  0  0
    3.5623   -8.7687    2.1084 C   0  0  0  0  0  0  0  0  0  0  0  0
    3.1355   -7.3498    2.5087 C   0  0  1  0  0  0  0  0  0  0  0  0
    3.7137   -7.2796    3.9122 C   0  0  0  0  0  0  0  0  0  0  0  0
    4.5552   -6.2976    4.3286 C   0  0  0  0  0  0  0  0  0  0  0  0
    4.9960   -5.2639    3.3984 C   0  0  0  0  0  0  0  0  0  0  0  0
    4.5362   -5.2903    2.1527 C   0  0  0  0  0  0  0  0  0  0  0  0
    4.8523   -4.7629    0.7671 C   0  0  2  0  0  0  0  0  0  0  0  0
    5.9780   -3.7719    0.5133 C   0  0  0  0  0  0  0  0  0  0  0  0
    4.8694   -2.6800    0.5123 C   0  0  1  0  0  0  0  0  0  0  0  0
    5.0032   -1.6501   -0.4522 O   0  0  0  0  0  0  0  0  0  0  0  0
    3.8345   -3.7878    0.2134 C   0  0  2  0  0  0  0  0  0  0  0  0
    2.6570   -3.9500    1.0189 O   0  0  0  0  0  0  0  0  0  0  0  0
    2.2591   -5.2947    1.2273 C   0  0  1  0  0  0  0  0  0  0  0  0
    1.5687   -5.8153    0.1087 O   0  0  0  0  0  0  0  0  0  0  0  0
    3.5045   -6.1959    1.5360 C   0  0  2  0  0  0  0  0  0  0  0  0
    4.6437   -6.2530    0.4593 C   0  0  0  0  0  0  0  0  0  0  0  0
    3.5964   -8.6597    4.5603 C   0  0  1  0  0  0  0  0  0  0  0  0
    2.6799   -8.7967    5.8135 C   0  0  1  0  0  0  0  0  0  0  0  0
    2.9656   -7.7416    6.8984 C   0  0  0  0  0  0  0  0  0  0  0  0
    0.4613   -9.6968    7.3345 H   0  0  0  0  0  0  0  0  0  0  0  0
   -0.8053   -9.0748    6.2732 H   0  0  0  0  0  0  0  0  0  0  0  0
    0.2292   -7.9538    7.1348 H   0  0  0  0  0  0  0  0  0  0  0  0
    0.9265   -8.0603    4.8016 H   0  0  0  0  0  0  0  0  0  0  0  0
    1.3630  -11.0632    5.1553 H   0  0  0  0  0  0  0  0  0  0  0  0
   -0.0337  -10.3616    4.3837 H   0  0  0  0  0  0  0  0  0  0  0  0
    1.6984  -11.0044    2.7475 H   0  0  0  0  0  0  0  0  0  0  0  0
    1.2065   -9.3551    2.6517 H   0  0  0  0  0  0  0  0  0  0  0  0
    5.2330  -10.6195    3.3870 H   0  0  0  0  0  0  0  0  0  0  0  0
    4.0152  -11.4997    2.4986 H   0  0  0  0  0  0  0  0  0  0  0  0
    3.9945  -11.5079    4.2577 H   0  0  0  0  0  0  0  0  0  0  0  0
    4.6289   -8.7855    1.8826 H   0  0  0  0  0  0  0  0  0  0  0  0
    3.0365   -9.1162    1.2175 H   0  0  0  0  0  0  0  0  0  0  0  0
    2.0581   -7.3538    2.6756 H   0  0  0  0  0  0  0  0  0  0  0  0
    5.0439   -6.3891    5.2873 H   0  0  0  0  0  0  0  0  0  0  0  0
    5.8127   -4.5977    3.6761 H   0  0  0  0  0  0  0  0  0  0  0  0
    6.7183   -3.6708    1.3096 H   0  0  0  0  0  0  0  0  0  0  0  0
    6.4291   -3.9139   -0.4716 H   0  0  0  0  0  0  0  0  0  0  0  0
    4.7209   -2.2529    1.5012 H   0  0  0  0  0  0  0  0  0  0  0  0
    4.2001   -1.1465   -0.4262 H   0  0  0  0  0  0  0  0  0  0  0  0
    3.6892   -3.9402   -0.8540 H   0  0  0  0  0  0  0  0  0  0  0  0
    1.5306   -5.2820    2.0429 H   0  0  0  0  0  0  0  0  0  0  0  0
    2.1806   -5.8664   -0.6028 H   0  0  0  0  0  0  0  0  0  0  0  0
    4.2581   -6.4111   -0.5412 H   0  0  0  0  0  0  0  0  0  0  0  0
    5.4907   -6.9030    0.6867 H   0  0  0  0  0  0  0  0  0  0  0  0
    4.6078   -8.8858    4.9051 H   0  0  0  0  0  0  0  0  0  0  0  0
    2.9380   -9.7514    6.2783 H   0  0  0  0  0  0  0  0  0  0  0  0
    2.6268   -6.7481    6.6060 H   0  0  0  0  0  0  0  0  0  0  0  0
    4.0293   -7.6922    7.1321 H   0  0  0  0  0  0  0  0  0  0  0  0
    2.4647   -8.0026    7.8320 H   0  0  0  0  0  0  0  0  0  0  0  0
  1  2  1  0
  1 26  1  0
  1 27  1  0
  1 28  1  0
  2 24  1  0
  2  3  1  0
  2 29  1  6
  3  4  1  0
  3 30  1  0
  3 31  1  0
  4  5  1  0
  4 32  1  0
  4 33  1  0
  5 23  1  0
  5  6  1  1
  5  7  1  0
  6 34  1  0
  6 35  1  0
  6 36  1  0
  7  8  1  0
  7 37  1  0
  7 38  1  0
  8 21  1  0
  8  9  1  0
  8 39  1  1
  9 10  2  0
  9 23  1  0
 10 11  1  0
 10 40  1  0
 11 12  2  0
 11 41  1  0
 12 21  1  0
 12 13  1  0
 13 17  1  0
 13 22  1  0
 13 14  1  1
 14 15  1  0
 14 42  1  0
 14 43  1  0
 15 16  1  0
 15 17  1  0
 15 44  1  1
 16 45  1  0
 17 18  1  0
 17 46  1  6
 18 19  1  0
 19 20  1  0
 19 21  1  0
 19 47  1  1
 20 48  1  0
 21 22  1  6
 22 49  1  0
 22 50  1  0
 23 24  1  0
 23 51  1  1
 24 25  1  0
 24 52  1  1
 25 53  1  0
 25 54  1  0
 25 55  1  0
M  END
>  <i_m_ct_stereo_status>  (226) 
1

>  <s_m_source_file>  (226) 
/var/tmp/pbs.5076255.sched01/tmp4185l44a/86vs10_z9v.sdf

>  <i_m_source_file_index>  (226) 
9

>  <i_lp_mmshare_version>  (226) 
48012

>  <i_f3d_flags>  (226) 
0

>  <s_epik_input>  (226) 
W0NIM11bQ0BIXTFbQ0BIXShbQ0gzXSlbQ0gyXVtDSDJdW0NAQF0oW0NIM10pKFtDSDJdMilbQ0BIXTFDKD1bQ0hdW0NIXT0zKVtDQEhdMltDQEBdKEMzW0NAXTQ1NikoW0NIMl02KVtDQEhdKFtPSF0pT1tDQEhdNVtDQEBIXShbQ0gyXTQpW09IXQ==

>  <s_epik_cmdline>  (226) 
J2VwaWtfcHl0aG9uJywgJy1waHQnLCAnMi4wJywgJy1waCcsICc3LjAnLCAnLXRuJywgJzgnLCAnLW1hJywgJzIwMCcsICctaW1hZScsICc8aW5maWxlLm1hZT4nLCAnLW9tYWUnLCAnPG91dGZpbGUubWFlPic=

>  <r_lp_tautomer_probability>  (226) 
1

>  <r_epik_Ionization_Penalty>  (226) 
1.02568e-07

>  <r_epik_Ionization_Penalty_Charging>  (226) 
0

>  <r_epik_Ionization_Penalty_Neutral>  (226) 
1.02568e-07

>  <r_epik_State_Penalty>  (226) 
-0

>  <r_epik_Charging_Adjusted_Penalty>  (226) 
0

>  <i_epik_Tot_Q>  (226) 
0

>  <i_epik_Tot_abs_Q>  (226) 
0

>  <s_epik_Chemistry_Notes>  (226) 
This compound contains an acetal/aminal-like group ( X-CH(R)-Y where X, Y are N, S, or O) that may be acid/base labile, releasing an aldehyde.

>  <s_lp_Force_Field>  (226) 
OPLS3e

>  <r_lp_Energy>  (226) 
90.8126

>  <b_lp_Chiralities_Consistent>  (226) 
1

>  <s_lp_Variant>  (226) 
63:0-1

>  <s_i_glide_gridfile>  (226) 
pfpi4k_grid

>  <i_i_glide_lignum>  (226) 
9

>  <i_i_glide_rotatable_bonds>  (226) 
2

>  <r_i_docking_score>  (226) 
-3.37632

>  <r_i_glide_ligand_efficiency>  (226) 
-0.135053

>  <r_i_glide_ligand_efficiency_sa>  (226) 
-0.394897

>  <r_i_glide_ligand_efficiency_ln>  (226) 
-0.800289

>  <r_i_glide_gscore>  (226) 
-3.37632

>  <r_i_glide_lipo>  (226) 
-0.395051

>  <r_i_glide_hbond>  (226) 
0

>  <r_i_glide_metal>  (226) 
-0

>  <r_i_glide_rewards>  (226) 
-1.07406

>  <r_i_glide_evdw>  (226) 
-23.349

>  <r_i_glide_ecoul>  (226) 
-4.67028

>  <r_i_glide_erotb>  (226) 
0

>  <r_i_glide_esite>  (226) 
-0.0392215

>  <r_i_glide_emodel>  (226) 
-33.6255

>  <r_i_glide_energy>  (226) 
-28.0192

>  <r_i_glide_einternal>  (226) 
1.24615

>  <r_i_glide_intrahb_reward>  (226) 
-0

>  <i_i_glide_confnum>  (226) 
2

>  <i_i_glide_posenum>  (226) 
27

>  <r_i_glide_eff_state_penalty>  (226) 
0

>  <ligand_id>  (226) 
63

>  <original_smiles>  (226) 
CC1CCC2(C)CC3C(=CC=C4C56CC(O)C5OC(O)C43C6)C2C1C

>  <smiles>  (226) 
[H]OC1([H])OC2([H])C([H])(O[H])C([H])([H])C23C2=C([H])C([H])=C4C([H])(C([H])([H])C5(C([H])([H])[H])C([H])([H])C([H])([H])C([H])(C([H])([H])[H])C([H])(C([H])([H])[H])C45[H])C21C3([H])[H]

$$$$
65:0:0
     RDKit          3D

 27 31  0  0  1  0  0  0  0  0999 V2000
    3.1944   -3.4543   -3.9120 O   0  0  0  0  0  0  0  0  0  0  0  0
    4.1729   -2.6747   -3.2574 C   0  0  2  0  0  0  0  0  0  0  0  0
    5.4507   -3.4548   -2.8768 C   0  0  0  0  0  0  0  0  0  0  0  0
    5.9674   -2.7751   -1.6099 C   0  0  1  0  0  0  0  0  0  0  0  0
    5.0627   -1.5764   -1.3489 C   0  0  2  0  0  0  0  0  0  0  0  0
    5.2965   -1.7963    0.1589 C   0  0  1  0  0  0  0  0  0  0  0  0
    4.0366   -1.6267    1.0117 C   0  0  0  0  0  0  0  0  0  0  0  0
    3.1738   -2.7799    0.5298 C   0  0  1  0  0  0  0  0  0  0  0  0
    3.0527   -3.0075   -0.9741 C   0  0  1  0  0  0  0  0  0  0  0  0
    3.7043   -2.0003   -1.9508 C   0  0  2  0  0  0  0  0  0  0  0  0
    4.0548   -3.7857   -0.1485 C   0  0  2  0  0  0  0  0  0  0  0  0
    3.7602   -5.1445    0.0798 O   0  0  0  0  0  0  0  0  0  0  0  0
    5.4720   -3.2755   -0.2306 C   0  0  1  0  0  0  0  0  0  0  0  0
    2.9437   -4.1719   -3.3457 H   0  0  0  0  0  0  0  0  0  0  0  0
    4.4562   -1.8801   -3.9499 H   0  0  0  0  0  0  0  0  0  0  0  0
    5.2119   -4.5007   -2.6732 H   0  0  0  0  0  0  0  0  0  0  0  0
    6.1843   -3.4525   -3.6804 H   0  0  0  0  0  0  0  0  0  0  0  0
    7.0319   -2.5376   -1.6007 H   0  0  0  0  0  0  0  0  0  0  0  0
    5.4708   -0.6425   -1.7389 H   0  0  0  0  0  0  0  0  0  0  0  0
    6.2049   -1.3127    0.5243 H   0  0  0  0  0  0  0  0  0  0  0  0
    4.2362   -1.7131    2.0818 H   0  0  0  0  0  0  0  0  0  0  0  0
    3.5238   -0.6810    0.8252 H   0  0  0  0  0  0  0  0  0  0  0  0
    2.3892   -3.1471    1.1877 H   0  0  0  0  0  0  0  0  0  0  0  0
    2.1540   -3.5139   -1.3182 H   0  0  0  0  0  0  0  0  0  0  0  0
    3.0294   -1.1575   -2.1219 H   0  0  0  0  0  0  0  0  0  0  0  0
    3.7966   -5.5942   -0.7563 H   0  0  0  0  0  0  0  0  0  0  0  0
    6.2128   -3.7921    0.3832 H   0  0  0  0  0  0  0  0  0  0  0  0
  1  2  1  0
  1 14  1  0
  2 10  1  0
  2  3  1  0
  2 15  1  6
  3  4  1  0
  3 16  1  0
  3 17  1  0
  4 13  1  0
  4  5  1  0
  4 18  1  1
  5 10  1  0
  5  6  1  0
  5 19  1  6
  6 13  1  0
  6  7  1  0
  6 20  1  1
  7  8  1  0
  7 21  1  0
  7 22  1  0
  8 11  1  0
  8  9  1  0
  8 23  1  1
  9 10  1  0
  9 11  1  0
  9 24  1  6
 10 25  1  6
 11 12  1  1
 11 13  1  0
 12 26  1  0
 13 27  1  1
M  END
>  <i_m_ct_stereo_status>  (227) 
1

>  <s_m_source_file>  (227) 
/var/tmp/pbs.5076255.sched01/tmp4185l44a/86vs10_z9v.sdf

>  <i_m_source_file_index>  (227) 
11

>  <i_lp_mmshare_version>  (227) 
48012

>  <i_f3d_flags>  (227) 
0

>  <s_epik_input>  (227) 
W09IXVtDQEBIXTFbQ0gyXVtDQEhdKFtDQEhdMltDQEBIXTNbQ0gyXTQpW0NASF0zW0NAQEhdMVtDQEBIXTVbQ0BIXTRbQ0BdMjVbT0hd

>  <s_epik_cmdline>  (227) 
J2VwaWtfcHl0aG9uJywgJy1waHQnLCAnMi4wJywgJy1waCcsICc3LjAnLCAnLXRuJywgJzgnLCAnLW1hJywgJzIwMCcsICctaW1hZScsICc8aW5maWxlLm1hZT4nLCAnLW9tYWUnLCAnPG91dGZpbGUubWFlPic=

>  <r_lp_tautomer_probability>  (227) 
1

>  <r_epik_Ionization_Penalty>  (227) 
4.846e-06

>  <r_epik_Ionization_Penalty_Charging>  (227) 
0

>  <r_epik_Ionization_Penalty_Neutral>  (227) 
4.846e-06

>  <r_epik_State_Penalty>  (227) 
-0

>  <r_epik_Charging_Adjusted_Penalty>  (227) 
0

>  <i_epik_Tot_Q>  (227) 
0

>  <i_epik_Tot_abs_Q>  (227) 
0

>  <s_lp_Force_Field>  (227) 
OPLS3e

>  <r_lp_Energy>  (227) 
46.1701

>  <b_lp_Chiralities_Consistent>  (227) 
1

>  <s_lp_Variant>  (227) 
65:0-1

>  <s_i_glide_gridfile>  (227) 
pfpi4k_grid

>  <i_i_glide_lignum>  (227) 
11

>  <i_i_glide_rotatable_bonds>  (227) 
2

>  <r_i_docking_score>  (227) 
-5.08064

>  <r_i_glide_ligand_efficiency>  (227) 
-0.390818

>  <r_i_glide_ligand_efficiency_sa>  (227) 
-0.918945

>  <r_i_glide_ligand_efficiency_ln>  (227) 
-1.42516

>  <r_i_glide_gscore>  (227) 
-5.08064

>  <r_i_glide_lipo>  (227) 
-0.424127

>  <r_i_glide_hbond>  (227) 
-0.566007

>  <r_i_glide_metal>  (227) 
-0

>  <r_i_glide_rewards>  (227) 
-2.1939

>  <r_i_glide_evdw>  (227) 
-21.1161

>  <r_i_glide_ecoul>  (227) 
-5.60532

>  <r_i_glide_erotb>  (227) 
0

>  <r_i_glide_esite>  (227) 
0

>  <r_i_glide_emodel>  (227) 
-34.8186

>  <r_i_glide_energy>  (227) 
-26.7214

>  <r_i_glide_einternal>  (227) 
0.299561

>  <r_i_glide_intrahb_reward>  (227) 
-0

>  <i_i_glide_confnum>  (227) 
1

>  <i_i_glide_posenum>  (227) 
31

>  <r_i_glide_eff_state_penalty>  (227) 
0

>  <ligand_id>  (227) 
65

>  <original_smiles>  (227) 
OC1CC2C3C4CC5C(C13)C5(O)C24

>  <smiles>  (227) 
[H]OC1([H])C([H])([H])C2([H])C3([H])C4([H])C([H])([H])C5([H])C([H])(C13[H])C5(O[H])C24[H]

$$$$
65:0:1
     RDKit          3D

 27 31  0  0  1  0  0  0  0  0999 V2000
    4.6045   -1.8122   -3.2218 O   0  0  0  0  0  0  0  0  0  0  0  0
    5.5062   -2.3624   -2.2738 C   0  0  2  0  0  0  0  0  0  0  0  0
    5.2236   -3.8268   -1.9360 C   0  0  0  0  0  0  0  0  0  0  0  0
    5.6612   -3.9767   -0.4723 C   0  0  1  0  0  0  0  0  0  0  0  0
    6.2365   -2.6425   -0.0238 C   0  0  2  0  0  0  0  0  0  0  0  0
    5.6788   -2.9274    1.3806 C   0  0  1  0  0  0  0  0  0  0  0  0
    5.0520   -1.6975    2.0624 C   0  0  0  0  0  0  0  0  0  0  0  0
    3.8677   -1.4347    1.1509 C   0  0  1  0  0  0  0  0  0  0  0  0
    4.1059   -1.4446   -0.3574 C   0  0  1  0  0  0  0  0  0  0  0  0
    5.5275   -1.6150   -0.9252 C   0  0  2  0  0  0  0  0  0  0  0  0
    3.5828   -2.6831    0.3470 C   0  0  2  0  0  0  0  0  0  0  0  0
    2.2474   -3.0416    0.0393 O   0  0  0  0  0  0  0  0  0  0  0  0
    4.6118   -3.7281    0.6213 C   0  0  1  0  0  0  0  0  0  0  0  0
    3.7417   -1.8166   -2.8613 H   0  0  0  0  0  0  0  0  0  0  0  0
    6.5164   -2.3143   -2.6749 H   0  0  0  0  0  0  0  0  0  0  0  0
    4.1730   -4.0645   -2.0612 H   0  0  0  0  0  0  0  0  0  0  0  0
    5.7869   -4.4647   -2.6141 H   0  0  0  0  0  0  0  0  0  0  0  0
    6.2720   -4.8323   -0.2124 H   0  0  0  0  0  0  0  0  0  0  0  0
    7.3293   -2.6621   -0.0610 H   0  0  0  0  0  0  0  0  0  0  0  0
    6.3428   -3.5545    1.9736 H   0  0  0  0  0  0  0  0  0  0  0  0
    4.7181   -1.9029    3.0778 H   0  0  0  0  0  0  0  0  0  0  0  0
    5.7198   -0.8322    2.0749 H   0  0  0  0  0  0  0  0  0  0  0  0
    3.0457   -0.8319    1.5158 H   0  0  0  0  0  0  0  0  0  0  0  0
    3.4168   -0.8518   -0.9427 H   0  0  0  0  0  0  0  0  0  0  0  0
    6.0291   -0.6491   -0.9409 H   0  0  0  0  0  0  0  0  0  0  0  0
    1.8230   -2.2439   -0.2863 H   0  0  0  0  0  0  0  0  0  0  0  0
    4.2818   -4.6108    1.1679 H   0  0  0  0  0  0  0  0  0  0  0  0
  1  2  1  0
  1 14  1  0
  2 10  1  0
  2  3  1  0
  2 15  1  6
  3  4  1  0
  3 16  1  0
  3 17  1  0
  4 13  1  0
  4  5  1  0
  4 18  1  6
  5 10  1  0
  5  6  1  0
  5 19  1  1
  6 13  1  0
  6  7  1  0
  6 20  1  1
  7  8  1  0
  7 21  1  0
  7 22  1  0
  8 11  1  0
  8  9  1  0
  8 23  1  1
  9 10  1  0
  9 11  1  0
  9 24  1  6
 10 25  1  6
 11 12  1  6
 11 13  1  0
 12 26  1  0
 13 27  1  1
M  END
>  <i_m_ct_stereo_status>  (228) 
1

>  <s_m_source_file>  (228) 
/var/tmp/pbs.5076255.sched01/tmp4185l44a/86vs10_z9v.sdf

>  <i_m_source_file_index>  (228) 
11

>  <i_lp_mmshare_version>  (228) 
48012

>  <i_f3d_flags>  (228) 
0

>  <s_epik_input>  (228) 
W09IXVtDQEBIXTFbQ0gyXVtDQEhdKFtDQEhdMltDQEBIXTNbQ0gyXTQpW0NASF0zW0NAQEhdMVtDQEBIXTVbQ0BIXTRbQ0BdMjVbT0hd

>  <s_epik_cmdline>  (228) 
J2VwaWtfcHl0aG9uJywgJy1waHQnLCAnMi4wJywgJy1waCcsICc3LjAnLCAnLXRuJywgJzgnLCAnLW1hJywgJzIwMCcsICctaW1hZScsICc8aW5maWxlLm1hZT4nLCAnLW9tYWUnLCAnPG91dGZpbGUubWFlPic=

>  <r_lp_tautomer_probability>  (228) 
1

>  <r_epik_Ionization_Penalty>  (228) 
4.846e-06

>  <r_epik_Ionization_Penalty_Charging>  (228) 
0

>  <r_epik_Ionization_Penalty_Neutral>  (228) 
4.846e-06

>  <r_epik_State_Penalty>  (228) 
-0

>  <r_epik_Charging_Adjusted_Penalty>  (228) 
0

>  <i_epik_Tot_Q>  (228) 
0

>  <i_epik_Tot_abs_Q>  (228) 
0

>  <s_lp_Force_Field>  (228) 
OPLS3e

>  <r_lp_Energy>  (228) 
46.1701

>  <b_lp_Chiralities_Consistent>  (228) 
1

>  <s_lp_Variant>  (228) 
65:0-1

>  <s_i_glide_gridfile>  (228) 
pfpi4k_grid

>  <i_i_glide_lignum>  (228) 
11

>  <i_i_glide_rotatable_bonds>  (228) 
2

>  <r_i_docking_score>  (228) 
-3.98944

>  <r_i_glide_ligand_efficiency>  (228) 
-0.30688

>  <r_i_glide_ligand_efficiency_sa>  (228) 
-0.721578

>  <r_i_glide_ligand_efficiency_ln>  (228) 
-1.11907

>  <r_i_glide_gscore>  (228) 
-3.98944

>  <r_i_glide_lipo>  (228) 
-0.295656

>  <r_i_glide_hbond>  (228) 
-0.181173

>  <r_i_glide_metal>  (228) 
-0

>  <r_i_glide_rewards>  (228) 
-2.1939

>  <r_i_glide_evdw>  (228) 
-12.9418

>  <r_i_glide_ecoul>  (228) 
-4.47748

>  <r_i_glide_erotb>  (228) 
0

>  <r_i_glide_esite>  (228) 
0

>  <r_i_glide_emodel>  (228) 
-23.6347

>  <r_i_glide_energy>  (228) 
-17.4193

>  <r_i_glide_einternal>  (228) 
0.276732

>  <r_i_glide_intrahb_reward>  (228) 
-0

>  <i_i_glide_confnum>  (228) 
1

>  <i_i_glide_posenum>  (228) 
1

>  <r_i_glide_eff_state_penalty>  (228) 
0

>  <ligand_id>  (228) 
65

>  <original_smiles>  (228) 
OC1CC2C3C4CC5C(C13)C5(O)C24

>  <smiles>  (228) 
[H]OC1([H])C([H])([H])C2([H])C3([H])C4([H])C([H])([H])C5([H])C([H])(C13[H])C5(O[H])C24[H]

$$$$
65:0:2
     RDKit          3D

 27 31  0  0  1  0  0  0  0  0999 V2000
    4.1289   -0.9110    1.8630 O   0  0  0  0  0  0  0  0  0  0  0  0
    4.4916   -2.1773    1.3606 C   0  0  2  0  0  0  0  0  0  0  0  0
    5.9453   -2.2273    0.8212 C   0  0  0  0  0  0  0  0  0  0  0  0
    5.8936   -3.2055   -0.3531 C   0  0  1  0  0  0  0  0  0  0  0  0
    4.4809   -3.7807   -0.3963 C   0  0  2  0  0  0  0  0  0  0  0  0
    4.6174   -3.8579   -1.9240 C   0  0  1  0  0  0  0  0  0  0  0  0
    3.3559   -3.4422   -2.6918 C   0  0  0  0  0  0  0  0  0  0  0  0
    3.2738   -1.9876   -2.3496 C   0  0  1  0  0  0  0  0  0  0  0  0
    3.4423   -1.5880   -0.8895 C   0  0  1  0  0  0  0  0  0  0  0  0
    3.6008   -2.6632    0.1987 C   0  0  2  0  0  0  0  0  0  0  0  0
    4.5958   -1.5170   -1.8456 C   0  0  2  0  0  0  0  0  0  0  0  0
    4.9516   -0.2572   -2.3195 O   0  0  0  0  0  0  0  0  0  0  0  0
    5.5692   -2.6716   -1.7647 C   0  0  1  0  0  0  0  0  0  0  0  0
    3.2027   -0.9251    2.0706 H   0  0  0  0  0  0  0  0  0  0  0  0
    4.4024   -2.9092    2.1655 H   0  0  0  0  0  0  0  0  0  0  0  0
    6.2605   -1.2409    0.4758 H   0  0  0  0  0  0  0  0  0  0  0  0
    6.6417   -2.5378    1.6021 H   0  0  0  0  0  0  0  0  0  0  0  0
    6.6627   -3.9777   -0.3665 H   0  0  0  0  0  0  0  0  0  0  0  0
    4.4021   -4.7491    0.1054 H   0  0  0  0  0  0  0  0  0  0  0  0
    5.0768   -4.7881   -2.2429 H   0  0  0  0  0  0  0  0  0  0  0  0
    3.4356   -3.6048   -3.7684 H   0  0  0  0  0  0  0  0  0  0  0  0
    2.4414   -3.9132   -2.3212 H   0  0  0  0  0  0  0  0  0  0  0  0
    2.7153   -1.3333   -3.0141 H   0  0  0  0  0  0  0  0  0  0  0  0
    3.0160   -0.6511   -0.5727 H   0  0  0  0  0  0  0  0  0  0  0  0
    2.6174   -3.0089    0.5219 H   0  0  0  0  0  0  0  0  0  0  0  0
    4.9656    0.3625   -1.6000 H   0  0  0  0  0  0  0  0  0  0  0  0
    6.3829   -2.6973   -2.4912 H   0  0  0  0  0  0  0  0  0  0  0  0
  1  2  1  0
  1 14  1  0
  2 10  1  0
  2  3  1  0
  2 15  1  1
  3  4  1  0
  3 16  1  0
  3 17  1  0
  4 13  1  0
  4  5  1  0
  4 18  1  6
  5 10  1  0
  5  6  1  0
  5 19  1  1
  6 13  1  0
  6  7  1  0
  6 20  1  1
  7  8  1  0
  7 21  1  0
  7 22  1  0
  8 11  1  0
  8  9  1  0
  8 23  1  6
  9 10  1  0
  9 11  1  0
  9 24  1  1
 10 25  1  1
 11 12  1  6
 11 13  1  0
 12 26  1  0
 13 27  1  6
M  END
>  <i_m_ct_stereo_status>  (229) 
1

>  <s_m_source_file>  (229) 
/var/tmp/pbs.5076255.sched01/tmp4185l44a/86vs10_z9v.sdf

>  <i_m_source_file_index>  (229) 
11

>  <i_lp_mmshare_version>  (229) 
48012

>  <i_f3d_flags>  (229) 
0

>  <s_epik_input>  (229) 
W09IXVtDQEBIXTFbQ0gyXVtDQEhdKFtDQEhdMltDQEBIXTNbQ0gyXTQpW0NASF0zW0NAQEhdMVtDQEBIXTVbQ0BIXTRbQ0BdMjVbT0hd

>  <s_epik_cmdline>  (229) 
J2VwaWtfcHl0aG9uJywgJy1waHQnLCAnMi4wJywgJy1waCcsICc3LjAnLCAnLXRuJywgJzgnLCAnLW1hJywgJzIwMCcsICctaW1hZScsICc8aW5maWxlLm1hZT4nLCAnLW9tYWUnLCAnPG91dGZpbGUubWFlPic=

>  <r_lp_tautomer_probability>  (229) 
1

>  <r_epik_Ionization_Penalty>  (229) 
4.846e-06

>  <r_epik_Ionization_Penalty_Charging>  (229) 
0

>  <r_epik_Ionization_Penalty_Neutral>  (229) 
4.846e-06

>  <r_epik_State_Penalty>  (229) 
-0

>  <r_epik_Charging_Adjusted_Penalty>  (229) 
0

>  <i_epik_Tot_Q>  (229) 
0

>  <i_epik_Tot_abs_Q>  (229) 
0

>  <s_lp_Force_Field>  (229) 
OPLS3e

>  <r_lp_Energy>  (229) 
46.1701

>  <b_lp_Chiralities_Consistent>  (229) 
1

>  <s_lp_Variant>  (229) 
65:0-1

>  <s_i_glide_gridfile>  (229) 
pfpi4k_grid

>  <i_i_glide_lignum>  (229) 
11

>  <i_i_glide_rotatable_bonds>  (229) 
2

>  <r_i_docking_score>  (229) 
-3.89189

>  <r_i_glide_ligand_efficiency>  (229) 
-0.299376

>  <r_i_glide_ligand_efficiency_sa>  (229) 
-0.703934

>  <r_i_glide_ligand_efficiency_ln>  (229) 
-1.09171

>  <r_i_glide_gscore>  (229) 
-3.89189

>  <r_i_glide_lipo>  (229) 
-0.178134

>  <r_i_glide_hbond>  (229) 
-0.272304

>  <r_i_glide_metal>  (229) 
-0

>  <r_i_glide_rewards>  (229) 
-2.1939

>  <r_i_glide_evdw>  (229) 
-12.1404

>  <r_i_glide_ecoul>  (229) 
-4.2702

>  <r_i_glide_erotb>  (229) 
0

>  <r_i_glide_esite>  (229) 
0

>  <r_i_glide_emodel>  (229) 
-22.0052

>  <r_i_glide_energy>  (229) 
-16.4106

>  <r_i_glide_einternal>  (229) 
1.12663

>  <r_i_glide_intrahb_reward>  (229) 
-0

>  <i_i_glide_confnum>  (229) 
1

>  <i_i_glide_posenum>  (229) 
32

>  <r_i_glide_eff_state_penalty>  (229) 
0

>  <ligand_id>  (229) 
65

>  <original_smiles>  (229) 
OC1CC2C3C4CC5C(C13)C5(O)C24

>  <smiles>  (229) 
[H]OC1([H])C([H])([H])C2([H])C3([H])C4([H])C([H])([H])C5([H])C([H])(C13[H])C5(O[H])C24[H]

$$$$
66:0:0
     RDKit          3D

 56 59  0  0  1  0  0  0  0  0999 V2000
    7.2627   -2.7613   -1.5800 C   0  0  0  0  0  0  0  0  0  0  0  0
    6.3119   -2.1008   -0.5598 C   0  0  2  0  0  0  0  0  0  0  0  0
    6.7693   -2.3260    0.9141 C   0  0  0  0  0  0  0  0  0  0  0  0
    5.8859   -3.1612    1.9379 C   0  0  2  0  0  0  0  0  0  0  0  0
    5.9071   -4.7620    1.8632 C   0  0  0  0  0  0  0  0  0  0  0  0
    6.7087   -5.3065    0.6682 C   0  0  0  0  0  0  0  0  0  0  0  0
    6.5920   -5.4302    3.0883 C   0  0  0  0  0  0  0  0  0  0  0  0
    4.4775   -5.3307    1.7690 C   0  0  0  0  0  0  0  0  0  0  0  0
    4.2736   -6.4572    1.3551 O   0  0  0  0  0  0  0  0  0  0  0  0
    3.3186   -4.4658    2.2943 C   0  0  1  0  0  0  0  0  0  0  0  0
    3.8373   -3.5164    3.3727 C   0  0  0  0  0  0  0  0  0  0  0  0
    4.5733   -2.4665    2.5265 C   0  0  1  0  0  0  0  0  0  0  0  0
    4.9374   -1.2433    3.4213 C   0  0  0  0  0  0  0  0  0  0  0  0
    3.4537   -2.1388    1.4679 C   0  0  1  0  0  0  0  0  0  0  0  0
    2.3892   -1.1390    2.0069 C   0  0  0  0  0  0  0  0  0  0  0  0
    4.0487   -1.4713    0.2342 C   0  0  0  0  0  0  0  0  0  0  0  0
    4.8344   -2.4708   -0.6359 C   0  0  1  0  0  0  0  0  0  0  0  0
    4.0610   -2.8624   -1.9027 C   0  0  1  0  0  0  0  0  0  0  0  0
    4.0144   -1.7651   -2.9758 C   0  0  0  0  0  0  0  0  0  0  0  0
    4.6585   -3.9783   -2.5209 O   0  0  0  0  0  0  0  0  0  0  0  0
    2.6398   -3.2850   -1.4717 C   0  0  0  0  0  0  0  0  0  0  0  0
    2.4604   -4.1016   -0.1590 C   0  0  0  0  0  0  0  0  0  0  0  0
    1.8757   -5.1956   -0.1909 O   0  0  0  0  0  0  0  0  0  0  0  0
    2.7139   -3.4954    1.2523 C   0  0  1  0  0  0  0  0  0  0  0  0
    7.2375   -3.8464   -1.5558 H   0  0  0  0  0  0  0  0  0  0  0  0
    8.3044   -2.4644   -1.4286 H   0  0  0  0  0  0  0  0  0  0  0  0
    6.9909   -2.4809   -2.5949 H   0  0  0  0  0  0  0  0  0  0  0  0
    6.3956   -1.0324   -0.7501 H   0  0  0  0  0  0  0  0  0  0  0  0
    7.7790   -2.7413    0.8962 H   0  0  0  0  0  0  0  0  0  0  0  0
    6.9215   -1.3311    1.3453 H   0  0  0  0  0  0  0  0  0  0  0  0
    6.5317   -2.9798    2.7742 H   0  0  0  0  0  0  0  0  0  0  0  0
    7.7167   -4.8882    0.5954 H   0  0  0  0  0  0  0  0  0  0  0  0
    6.1853   -5.1391   -0.2713 H   0  0  0  0  0  0  0  0  0  0  0  0
    6.8397   -6.3882    0.7393 H   0  0  0  0  0  0  0  0  0  0  0  0
    7.6700   -5.3045    3.0469 H   0  0  0  0  0  0  0  0  0  0  0  0
    6.4158   -6.5042    3.1328 H   0  0  0  0  0  0  0  0  0  0  0  0
    6.2661   -5.0175    4.0391 H   0  0  0  0  0  0  0  0  0  0  0  0
    2.5630   -5.1348    2.7121 H   0  0  0  0  0  0  0  0  0  0  0  0
    2.9939   -3.0871    3.9238 H   0  0  0  0  0  0  0  0  0  0  0  0
    4.4593   -3.9840    4.1400 H   0  0  0  0  0  0  0  0  0  0  0  0
    4.0722   -0.8712    3.9769 H   0  0  0  0  0  0  0  0  0  0  0  0
    5.3366   -0.4140    2.8394 H   0  0  0  0  0  0  0  0  0  0  0  0
    5.6743   -1.5122    4.1792 H   0  0  0  0  0  0  0  0  0  0  0  0
    1.5674   -1.0335    1.2921 H   0  0  0  0  0  0  0  0  0  0  0  0
    2.7887   -0.1347    2.1593 H   0  0  0  0  0  0  0  0  0  0  0  0
    1.9223   -1.4566    2.9373 H   0  0  0  0  0  0  0  0  0  0  0  0
    3.2782   -0.9581   -0.3445 H   0  0  0  0  0  0  0  0  0  0  0  0
    4.6790   -0.6371    0.5637 H   0  0  0  0  0  0  0  0  0  0  0  0
    4.8607   -3.4359   -0.1805 H   0  0  0  0  0  0  0  0  0  0  0  0
    3.5481   -0.8468   -2.6225 H   0  0  0  0  0  0  0  0  0  0  0  0
    3.4507   -2.1028   -3.8411 H   0  0  0  0  0  0  0  0  0  0  0  0
    5.0052   -1.5061   -3.3266 H   0  0  0  0  0  0  0  0  0  0  0  0
    4.0428   -4.7057   -2.5272 H   0  0  0  0  0  0  0  0  0  0  0  0
    2.1343   -2.3463   -1.3296 H   0  0  0  0  0  0  0  0  0  0  0  0
    2.1105   -3.7844   -2.2754 H   0  0  0  0  0  0  0  0  0  0  0  0
    1.7133   -3.3363    1.6527 H   0  0  0  0  0  0  0  0  0  0  0  0
  1  2  1  0
  1 25  1  0
  1 26  1  0
  1 27  1  0
  2 17  1  0
  2  3  1  0
  2 28  1  6
  3  4  1  0
  3 29  1  0
  3 30  1  0
  4 12  1  0
  4  5  1  0
  4 31  1  1
  5  6  1  0
  5  7  1  0
  5  8  1  0
  6 32  1  0
  6 33  1  0
  6 34  1  0
  7 35  1  0
  7 36  1  0
  7 37  1  0
  8  9  2  0
  8 10  1  0
 10 24  1  0
 10 11  1  0
 10 38  1  1
 11 12  1  0
 11 39  1  0
 11 40  1  0
 12 13  1  1
 12 14  1  0
 13 41  1  0
 13 42  1  0
 13 43  1  0
 14 24  1  0
 14 15  1  1
 14 16  1  0
 15 44  1  0
 15 45  1  0
 15 46  1  0
 16 17  1  0
 16 47  1  0
 16 48  1  0
 17 18  1  0
 17 49  1  1
 18 19  1  0
 18 20  1  6
 18 21  1  0
 19 50  1  0
 19 51  1  0
 19 52  1  0
 20 53  1  0
 21 22  1  0
 21 54  1  0
 21 55  1  0
 22 23  2  0
 22 24  1  0
 24 56  1  1
M  END
>  <i_m_ct_stereo_status>  (230) 
1

>  <s_m_source_file>  (230) 
/var/tmp/pbs.5076255.sched01/tmp4185l44a/86vs10_z9v.sdf

>  <i_m_source_file_index>  (230) 
12

>  <i_lp_mmshare_version>  (230) 
48012

>  <i_f3d_flags>  (230) 
0

>  <s_epik_input>  (230) 
W0NIM11bQ0BAXTEyW0NAQEhdM1tDSDJdW0NAQEhdKFtDSDNdKVtDQEhdNFtDSDJdW0NAQF0yKFtDSDNdKVtDQEhdKFtDQEhdKFtDSDJdMSlDKD1PKUMzKFtDSDNdKVtDSDNdKUMoPU8pW0NIMl1bQ0BdNChbQ0gzXSlbT0hd

>  <s_epik_cmdline>  (230) 
J2VwaWtfcHl0aG9uJywgJy1waHQnLCAnMi4wJywgJy1waCcsICc3LjAnLCAnLXRuJywgJzgnLCAnLW1hJywgJzIwMCcsICctaW1hZScsICc8aW5maWxlLm1hZT4nLCAnLW9tYWUnLCAnPG91dGZpbGUubWFlPic=

>  <r_lp_tautomer_probability>  (230) 
1

>  <r_epik_Ionization_Penalty>  (230) 
7.69453e-08

>  <r_epik_Ionization_Penalty_Charging>  (230) 
0

>  <r_epik_Ionization_Penalty_Neutral>  (230) 
7.69453e-08

>  <r_epik_State_Penalty>  (230) 
-0

>  <r_epik_Charging_Adjusted_Penalty>  (230) 
0

>  <i_epik_Tot_Q>  (230) 
0

>  <i_epik_Tot_abs_Q>  (230) 
0

>  <s_lp_Force_Field>  (230) 
OPLS3e

>  <r_lp_Energy>  (230) 
89.7246

>  <b_lp_Chiralities_Consistent>  (230) 
1

>  <s_lp_Variant>  (230) 
66:0-1

>  <s_i_glide_gridfile>  (230) 
pfpi4k_grid

>  <i_i_glide_lignum>  (230) 
12

>  <i_i_glide_rotatable_bonds>  (230) 
1

>  <r_i_docking_score>  (230) 
-4.00171

>  <r_i_glide_ligand_efficiency>  (230) 
-0.166738

>  <r_i_glide_ligand_efficiency_sa>  (230) 
-0.480956

>  <r_i_glide_ligand_efficiency_ln>  (230) 
-0.957794

>  <r_i_glide_gscore>  (230) 
-4.00171

>  <r_i_glide_lipo>  (230) 
-0.532657

>  <r_i_glide_hbond>  (230) 
-0.364247

>  <r_i_glide_metal>  (230) 
-0

>  <r_i_glide_rewards>  (230) 
-1.16986

>  <r_i_glide_evdw>  (230) 
-17.2559

>  <r_i_glide_ecoul>  (230) 
-6.80813

>  <r_i_glide_erotb>  (230) 
0

>  <r_i_glide_esite>  (230) 
-0.0509371

>  <r_i_glide_emodel>  (230) 
-29.5832

>  <r_i_glide_energy>  (230) 
-24.064

>  <r_i_glide_einternal>  (230) 
1.20974

>  <r_i_glide_intrahb_reward>  (230) 
-0

>  <i_i_glide_confnum>  (230) 
2

>  <i_i_glide_posenum>  (230) 
37

>  <r_i_glide_eff_state_penalty>  (230) 
0

>  <ligand_id>  (230) 
66

>  <original_smiles>  (230) 
CC1CC2C(C)(C)C(=O)C3CC2(C)C2(C)CC1C(C)(O)CC(=O)C32

>  <smiles>  (230) 
[H]OC1(C([H])([H])[H])C([H])([H])C(=O)C2([H])C3([H])C(=O)C(C([H])([H])[H])(C([H])([H])[H])C4([H])C([H])([H])C([H])(C([H])([H])[H])C1([H])C([H])([H])C2(C([H])([H])[H])C4(C([H])([H])[H])C3([H])[H]

$$$$
66:0:1
     RDKit          3D

 56 59  0  0  1  0  0  0  0  0999 V2000
    1.4586   -5.9997    0.3834 C   0  0  0  0  0  0  0  0  0  0  0  0
    2.9861   -6.1390    0.5159 C   0  0  2  0  0  0  0  0  0  0  0  0
    3.4267   -7.1239    1.6492 C   0  0  0  0  0  0  0  0  0  0  0  0
    4.2799   -6.6279    2.8825 C   0  0  2  0  0  0  0  0  0  0  0  0
    3.5177   -5.7798    4.0063 C   0  0  0  0  0  0  0  0  0  0  0  0
    2.0306   -5.4785    3.6990 C   0  0  0  0  0  0  0  0  0  0  0  0
    3.4987   -6.5707    5.3395 C   0  0  0  0  0  0  0  0  0  0  0  0
    4.1905   -4.4190    4.2754 C   0  0  0  0  0  0  0  0  0  0  0  0
    3.5881   -3.4979    4.8355 O   0  0  0  0  0  0  0  0  0  0  0  0
    5.6397   -4.2426    3.8566 C   0  0  1  0  0  0  0  0  0  0  0  0
    6.3581   -5.5987    3.8681 C   0  0  0  0  0  0  0  0  0  0  0  0
    5.8127   -6.2391    2.5866 C   0  0  1  0  0  0  0  0  0  0  0  0
    6.6274   -7.5196    2.2565 C   0  0  0  0  0  0  0  0  0  0  0  0
    6.0893   -5.0568    1.5635 C   0  0  1  0  0  0  0  0  0  0  0  0
    7.5679   -5.0090    1.0668 C   0  0  0  0  0  0  0  0  0  0  0  0
    5.2605   -5.2149    0.3027 C   0  0  0  0  0  0  0  0  0  0  0  0
    3.8026   -4.8515    0.5909 C   0  0  1  0  0  0  0  0  0  0  0  0
    3.4696   -3.4645   -0.0224 C   0  0  1  0  0  0  0  0  0  0  0  0
    3.2672   -3.4520   -1.5419 C   0  0  0  0  0  0  0  0  0  0  0  0
    2.2849   -2.9888    0.5390 O   0  0  0  0  0  0  0  0  0  0  0  0
    4.5579   -2.4400    0.4093 C   0  0  0  0  0  0  0  0  0  0  0  0
    4.9938   -2.5354    1.8904 C   0  0  0  0  0  0  0  0  0  0  0  0
    4.7505   -1.6034    2.6452 O   0  0  0  0  0  0  0  0  0  0  0  0
    5.8321   -3.7494    2.3886 C   0  0  1  0  0  0  0  0  0  0  0  0
    1.0123   -5.4956    1.2240 H   0  0  0  0  0  0  0  0  0  0  0  0
    0.9817   -6.9759    0.3095 H   0  0  0  0  0  0  0  0  0  0  0  0
    1.1899   -5.4533   -0.5189 H   0  0  0  0  0  0  0  0  0  0  0  0
    3.3310   -6.6193   -0.3855 H   0  0  0  0  0  0  0  0  0  0  0  0
    2.5478   -7.6542    2.0213 H   0  0  0  0  0  0  0  0  0  0  0  0
    3.9979   -7.9147    1.1648 H   0  0  0  0  0  0  0  0  0  0  0  0
    4.4046   -7.5877    3.3853 H   0  0  0  0  0  0  0  0  0  0  0  0
    1.4666   -6.3621    3.4103 H   0  0  0  0  0  0  0  0  0  0  0  0
    1.9295   -4.7109    2.9313 H   0  0  0  0  0  0  0  0  0  0  0  0
    1.5287   -5.0675    4.5741 H   0  0  0  0  0  0  0  0  0  0  0  0
    2.8184   -7.4167    5.2807 H   0  0  0  0  0  0  0  0  0  0  0  0
    3.1715   -5.9418    6.1688 H   0  0  0  0  0  0  0  0  0  0  0  0
    4.4710   -6.9742    5.6157 H   0  0  0  0  0  0  0  0  0  0  0  0
    6.1096   -3.5624    4.5648 H   0  0  0  0  0  0  0  0  0  0  0  0
    7.4383   -5.4559    3.8216 H   0  0  0  0  0  0  0  0  0  0  0  0
    6.1954   -6.1859    4.7659 H   0  0  0  0  0  0  0  0  0  0  0  0
    7.7046   -7.3386    2.2593 H   0  0  0  0  0  0  0  0  0  0  0  0
    6.3650   -7.9249    1.2791 H   0  0  0  0  0  0  0  0  0  0  0  0
    6.4583   -8.3026    2.9981 H   0  0  0  0  0  0  0  0  0  0  0  0
    7.7498   -4.1191    0.4597 H   0  0  0  0  0  0  0  0  0  0  0  0
    7.8193   -5.8683    0.4406 H   0  0  0  0  0  0  0  0  0  0  0  0
    8.2962   -4.9789    1.8791 H   0  0  0  0  0  0  0  0  0  0  0  0
    5.6685   -4.6265   -0.5168 H   0  0  0  0  0  0  0  0  0  0  0  0
    5.3835   -6.2362   -0.0593 H   0  0  0  0  0  0  0  0  0  0  0  0
    3.6472   -4.6299    1.6279 H   0  0  0  0  0  0  0  0  0  0  0  0
    4.1622   -3.7580   -2.0817 H   0  0  0  0  0  0  0  0  0  0  0  0
    3.0041   -2.4574   -1.8986 H   0  0  0  0  0  0  0  0  0  0  0  0
    2.4587   -4.1113   -1.8446 H   0  0  0  0  0  0  0  0  0  0  0  0
    2.0196   -2.1781    0.1077 H   0  0  0  0  0  0  0  0  0  0  0  0
    5.4527   -2.5450   -0.2024 H   0  0  0  0  0  0  0  0  0  0  0  0
    4.1982   -1.4273    0.2232 H   0  0  0  0  0  0  0  0  0  0  0  0
    6.7802   -3.2325    2.3771 H   0  0  0  0  0  0  0  0  0  0  0  0
  1  2  1  0
  1 25  1  0
  1 26  1  0
  1 27  1  0
  2 17  1  0
  2  3  1  0
  2 28  1  6
  3  4  1  0
  3 29  1  0
  3 30  1  0
  4 12  1  0
  4  5  1  0
  4 31  1  1
  5  6  1  0
  5  7  1  0
  5  8  1  0
  6 32  1  0
  6 33  1  0
  6 34  1  0
  7 35  1  0
  7 36  1  0
  7 37  1  0
  8  9  2  0
  8 10  1  0
 10 24  1  0
 10 11  1  0
 10 38  1  1
 11 12  1  0
 11 39  1  0
 11 40  1  0
 12 13  1  6
 12 14  1  0
 13 41  1  0
 13 42  1  0
 13 43  1  0
 14 24  1  0
 14 15  1  6
 14 16  1  0
 15 44  1  0
 15 45  1  0
 15 46  1  0
 16 17  1  0
 16 47  1  0
 16 48  1  0
 17 18  1  0
 17 49  1  1
 18 19  1  0
 18 20  1  1
 18 21  1  0
 19 50  1  0
 19 51  1  0
 19 52  1  0
 20 53  1  0
 21 22  1  0
 21 54  1  0
 21 55  1  0
 22 23  2  0
 22 24  1  0
 24 56  1  1
M  END
>  <i_m_ct_stereo_status>  (231) 
1

>  <s_m_source_file>  (231) 
/var/tmp/pbs.5076255.sched01/tmp4185l44a/86vs10_z9v.sdf

>  <i_m_source_file_index>  (231) 
12

>  <i_lp_mmshare_version>  (231) 
48012

>  <i_f3d_flags>  (231) 
0

>  <s_epik_input>  (231) 
W0NIM11bQ0BAXTEyW0NAQEhdM1tDSDJdW0NAQEhdKFtDSDNdKVtDQEhdNFtDSDJdW0NAQF0yKFtDSDNdKVtDQEhdKFtDQEhdKFtDSDJdMSlDKD1PKUMzKFtDSDNdKVtDSDNdKUMoPU8pW0NIMl1bQ0BdNChbQ0gzXSlbT0hd

>  <s_epik_cmdline>  (231) 
J2VwaWtfcHl0aG9uJywgJy1waHQnLCAnMi4wJywgJy1waCcsICc3LjAnLCAnLXRuJywgJzgnLCAnLW1hJywgJzIwMCcsICctaW1hZScsICc8aW5maWxlLm1hZT4nLCAnLW9tYWUnLCAnPG91dGZpbGUubWFlPic=

>  <r_lp_tautomer_probability>  (231) 
1

>  <r_epik_Ionization_Penalty>  (231) 
7.69453e-08

>  <r_epik_Ionization_Penalty_Charging>  (231) 
0

>  <r_epik_Ionization_Penalty_Neutral>  (231) 
7.69453e-08

>  <r_epik_State_Penalty>  (231) 
-0

>  <r_epik_Charging_Adjusted_Penalty>  (231) 
0

>  <i_epik_Tot_Q>  (231) 
0

>  <i_epik_Tot_abs_Q>  (231) 
0

>  <s_lp_Force_Field>  (231) 
OPLS3e

>  <r_lp_Energy>  (231) 
89.7246

>  <b_lp_Chiralities_Consistent>  (231) 
1

>  <s_lp_Variant>  (231) 
66:0-1

>  <s_i_glide_gridfile>  (231) 
pfpi4k_grid

>  <i_i_glide_lignum>  (231) 
12

>  <i_i_glide_rotatable_bonds>  (231) 
1

>  <r_i_docking_score>  (231) 
-2.63303

>  <r_i_glide_ligand_efficiency>  (231) 
-0.10971

>  <r_i_glide_ligand_efficiency_sa>  (231) 
-0.316457

>  <r_i_glide_ligand_efficiency_ln>  (231) 
-0.630205

>  <r_i_glide_gscore>  (231) 
-2.63303

>  <r_i_glide_lipo>  (231) 
-0.499972

>  <r_i_glide_hbond>  (231) 
-0.165938

>  <r_i_glide_metal>  (231) 
-0

>  <r_i_glide_rewards>  (231) 
-1.20397

>  <r_i_glide_evdw>  (231) 
-10.6697

>  <r_i_glide_ecoul>  (231) 
-1.53108

>  <r_i_glide_erotb>  (231) 
0

>  <r_i_glide_esite>  (231) 
0

>  <r_i_glide_emodel>  (231) 
-16.2049

>  <r_i_glide_energy>  (231) 
-12.2008

>  <r_i_glide_einternal>  (231) 
0.0534218

>  <r_i_glide_intrahb_reward>  (231) 
-0

>  <i_i_glide_confnum>  (231) 
1

>  <i_i_glide_posenum>  (231) 
2

>  <r_i_glide_eff_state_penalty>  (231) 
0

>  <ligand_id>  (231) 
66

>  <original_smiles>  (231) 
CC1CC2C(C)(C)C(=O)C3CC2(C)C2(C)CC1C(C)(O)CC(=O)C32

>  <smiles>  (231) 
[H]OC1(C([H])([H])[H])C([H])([H])C(=O)C2([H])C3([H])C(=O)C(C([H])([H])[H])(C([H])([H])[H])C4([H])C([H])([H])C([H])(C([H])([H])[H])C1([H])C([H])([H])C2(C([H])([H])[H])C4(C([H])([H])[H])C3([H])[H]

$$$$
66:0:2
     RDKit          3D

 56 59  0  0  1  0  0  0  0  0999 V2000
    4.4774   -4.5011   -0.5105 C   0  0  0  0  0  0  0  0  0  0  0  0
    4.9484   -4.3027    0.9451 C   0  0  2  0  0  0  0  0  0  0  0  0
    5.2109   -5.6493    1.7213 C   0  0  0  0  0  0  0  0  0  0  0  0
    4.3572   -6.0670    2.9983 C   0  0  2  0  0  0  0  0  0  0  0  0
    2.8669   -6.6002    2.7597 C   0  0  0  0  0  0  0  0  0  0  0  0
    2.3996   -6.5645    1.2848 C   0  0  0  0  0  0  0  0  0  0  0  0
    2.7619   -8.0988    3.1601 C   0  0  0  0  0  0  0  0  0  0  0  0
    1.8168   -5.8083    3.5826 C   0  0  0  0  0  0  0  0  0  0  0  0
    0.6210   -5.8335    3.2773 O   0  0  0  0  0  0  0  0  0  0  0  0
    2.2857   -5.0247    4.8204 C   0  0  1  0  0  0  0  0  0  0  0  0
    3.5490   -5.6865    5.3754 C   0  0  0  0  0  0  0  0  0  0  0  0
    4.6089   -5.2440    4.3564 C   0  0  1  0  0  0  0  0  0  0  0  0
    6.0237   -5.5749    4.9037 C   0  0  0  0  0  0  0  0  0  0  0  0
    4.3051   -3.6866    4.3371 C   0  0  1  0  0  0  0  0  0  0  0  0
    4.9530   -2.9206    5.5249 C   0  0  0  0  0  0  0  0  0  0  0  0
    4.8890   -3.0399    3.0835 C   0  0  0  0  0  0  0  0  0  0  0  0
    4.0810   -3.3976    1.8355 C   0  0  1  0  0  0  0  0  0  0  0  0
    3.2095   -2.2007    1.3856 C   0  0  1  0  0  0  0  0  0  0  0  0
    4.0003   -1.0800    0.6783 C   0  0  0  0  0  0  0  0  0  0  0  0
    2.2304   -2.6620    0.4773 O   0  0  0  0  0  0  0  0  0  0  0  0
    2.4527   -1.6446    2.6400 C   0  0  0  0  0  0  0  0  0  0  0  0
    1.8511   -2.6898    3.6149 C   0  0  0  0  0  0  0  0  0  0  0  0
    0.6254   -2.7655    3.7137 O   0  0  0  0  0  0  0  0  0  0  0  0
    2.7485   -3.5631    4.5532 C   0  0  1  0  0  0  0  0  0  0  0  0
    3.4749   -4.9075   -0.5968 H   0  0  0  0  0  0  0  0  0  0  0  0
    5.1428   -5.1736   -1.0516 H   0  0  0  0  0  0  0  0  0  0  0  0
    4.4766   -3.5586   -1.0552 H   0  0  0  0  0  0  0  0  0  0  0  0
    5.9183   -3.8158    0.8252 H   0  0  0  0  0  0  0  0  0  0  0  0
    5.1861   -6.4704    1.0056 H   0  0  0  0  0  0  0  0  0  0  0  0
    6.2571   -5.6351    2.0316 H   0  0  0  0  0  0  0  0  0  0  0  0
    4.8664   -7.0023    3.2261 H   0  0  0  0  0  0  0  0  0  0  0  0
    3.1183   -7.0171    0.6059 H   0  0  0  0  0  0  0  0  0  0  0  0
    2.1899   -5.5493    0.9571 H   0  0  0  0  0  0  0  0  0  0  0  0
    1.4652   -7.1124    1.1541 H   0  0  0  0  0  0  0  0  0  0  0  0
    3.2818   -8.7364    2.4466 H   0  0  0  0  0  0  0  0  0  0  0  0
    1.7246   -8.4358    3.1929 H   0  0  0  0  0  0  0  0  0  0  0  0
    3.1903   -8.3209    4.1347 H   0  0  0  0  0  0  0  0  0  0  0  0
    1.4881   -5.0473    5.5574 H   0  0  0  0  0  0  0  0  0  0  0  0
    3.7575   -5.3061    6.3743 H   0  0  0  0  0  0  0  0  0  0  0  0
    3.4754   -6.7635    5.4955 H   0  0  0  0  0  0  0  0  0  0  0  0
    6.1735   -5.2024    5.9175 H   0  0  0  0  0  0  0  0  0  0  0  0
    6.8073   -5.1497    4.2788 H   0  0  0  0  0  0  0  0  0  0  0  0
    6.1959   -6.6514    4.9572 H   0  0  0  0  0  0  0  0  0  0  0  0
    4.6248   -1.8799    5.5329 H   0  0  0  0  0  0  0  0  0  0  0  0
    6.0416   -2.9088    5.4645 H   0  0  0  0  0  0  0  0  0  0  0  0
    4.6821   -3.3342    6.4961 H   0  0  0  0  0  0  0  0  0  0  0  0
    4.9856   -1.9637    3.2046 H   0  0  0  0  0  0  0  0  0  0  0  0
    5.9219   -3.3603    2.9804 H   0  0  0  0  0  0  0  0  0  0  0  0
    3.2994   -4.0884    2.0872 H   0  0  0  0  0  0  0  0  0  0  0  0
    4.7550   -0.6288    1.3256 H   0  0  0  0  0  0  0  0  0  0  0  0
    3.3271   -0.2786    0.3682 H   0  0  0  0  0  0  0  0  0  0  0  0
    4.5074   -1.4398   -0.2173 H   0  0  0  0  0  0  0  0  0  0  0  0
    1.7882   -1.9167    0.0568 H   0  0  0  0  0  0  0  0  0  0  0  0
    3.1159   -1.0133    3.2318 H   0  0  0  0  0  0  0  0  0  0  0  0
    1.6530   -0.9832    2.3051 H   0  0  0  0  0  0  0  0  0  0  0  0
    2.6064   -3.0629    5.5113 H   0  0  0  0  0  0  0  0  0  0  0  0
  1  2  1  0
  1 25  1  0
  1 26  1  0
  1 27  1  0
  2 17  1  0
  2  3  1  0
  2 28  1  6
  3  4  1  0
  3 29  1  0
  3 30  1  0
  4 12  1  0
  4  5  1  0
  4 31  1  1
  5  6  1  0
  5  7  1  0
  5  8  1  0
  6 32  1  0
  6 33  1  0
  6 34  1  0
  7 35  1  0
  7 36  1  0
  7 37  1  0
  8  9  2  0
  8 10  1  0
 10 24  1  0
 10 11  1  0
 10 38  1  1
 11 12  1  0
 11 39  1  0
 11 40  1  0
 12 13  1  1
 12 14  1  0
 13 41  1  0
 13 42  1  0
 13 43  1  0
 14 24  1  0
 14 15  1  1
 14 16  1  0
 15 44  1  0
 15 45  1  0
 15 46  1  0
 16 17  1  0
 16 47  1  0
 16 48  1  0
 17 18  1  0
 17 49  1  1
 18 19  1  0
 18 20  1  6
 18 21  1  0
 19 50  1  0
 19 51  1  0
 19 52  1  0
 20 53  1  0
 21 22  1  0
 21 54  1  0
 21 55  1  0
 22 23  2  0
 22 24  1  0
 24 56  1  1
M  END
>  <i_m_ct_stereo_status>  (232) 
1

>  <s_m_source_file>  (232) 
/var/tmp/pbs.5076255.sched01/tmp4185l44a/86vs10_z9v.sdf

>  <i_m_source_file_index>  (232) 
12

>  <i_lp_mmshare_version>  (232) 
48012

>  <i_f3d_flags>  (232) 
0

>  <s_epik_input>  (232) 
W0NIM11bQ0BAXTEyW0NAQEhdM1tDSDJdW0NAQEhdKFtDSDNdKVtDQEhdNFtDSDJdW0NAQF0yKFtDSDNdKVtDQEhdKFtDQEhdKFtDSDJdMSlDKD1PKUMzKFtDSDNdKVtDSDNdKUMoPU8pW0NIMl1bQ0BdNChbQ0gzXSlbT0hd

>  <s_epik_cmdline>  (232) 
J2VwaWtfcHl0aG9uJywgJy1waHQnLCAnMi4wJywgJy1waCcsICc3LjAnLCAnLXRuJywgJzgnLCAnLW1hJywgJzIwMCcsICctaW1hZScsICc8aW5maWxlLm1hZT4nLCAnLW9tYWUnLCAnPG91dGZpbGUubWFlPic=

>  <r_lp_tautomer_probability>  (232) 
1

>  <r_epik_Ionization_Penalty>  (232) 
7.69453e-08

>  <r_epik_Ionization_Penalty_Charging>  (232) 
0

>  <r_epik_Ionization_Penalty_Neutral>  (232) 
7.69453e-08

>  <r_epik_State_Penalty>  (232) 
-0

>  <r_epik_Charging_Adjusted_Penalty>  (232) 
0

>  <i_epik_Tot_Q>  (232) 
0

>  <i_epik_Tot_abs_Q>  (232) 
0

>  <s_lp_Force_Field>  (232) 
OPLS3e

>  <r_lp_Energy>  (232) 
89.7246

>  <b_lp_Chiralities_Consistent>  (232) 
1

>  <s_lp_Variant>  (232) 
66:0-1

>  <s_i_glide_gridfile>  (232) 
pfpi4k_grid

>  <i_i_glide_lignum>  (232) 
12

>  <i_i_glide_rotatable_bonds>  (232) 
1

>  <r_i_docking_score>  (232) 
-2.62594

>  <r_i_glide_ligand_efficiency>  (232) 
-0.109414

>  <r_i_glide_ligand_efficiency_sa>  (232) 
-0.315605

>  <r_i_glide_ligand_efficiency_ln>  (232) 
-0.628508

>  <r_i_glide_gscore>  (232) 
-2.62594

>  <r_i_glide_lipo>  (232) 
-0.146976

>  <r_i_glide_hbond>  (232) 
-0.195966

>  <r_i_glide_metal>  (232) 
-0

>  <r_i_glide_rewards>  (232) 
-1.16282

>  <r_i_glide_evdw>  (232) 
-15.7522

>  <r_i_glide_ecoul>  (232) 
-2.17492

>  <r_i_glide_erotb>  (232) 
0

>  <r_i_glide_esite>  (232) 
-0.00633349

>  <r_i_glide_emodel>  (232) 
-22.1017

>  <r_i_glide_energy>  (232) 
-17.9271

>  <r_i_glide_einternal>  (232) 
0.189047

>  <r_i_glide_intrahb_reward>  (232) 
-0

>  <i_i_glide_confnum>  (232) 
1

>  <i_i_glide_posenum>  (232) 
6

>  <r_i_glide_eff_state_penalty>  (232) 
0

>  <ligand_id>  (232) 
66

>  <original_smiles>  (232) 
CC1CC2C(C)(C)C(=O)C3CC2(C)C2(C)CC1C(C)(O)CC(=O)C32

>  <smiles>  (232) 
[H]OC1(C([H])([H])[H])C([H])([H])C(=O)C2([H])C3([H])C(=O)C(C([H])([H])[H])(C([H])([H])[H])C4([H])C([H])([H])C([H])(C([H])([H])[H])C1([H])C([H])([H])C2(C([H])([H])[H])C4(C([H])([H])[H])C3([H])[H]

$$$$
67:0:0
     RDKit          3D

 21 23  0  0  1  0  0  0  0  0999 V2000
    1.0201   -6.2300    0.6257 N   0  0  0  0  0  0  0  0  0  0  0  0
    1.9071   -5.8030    1.6340 C   0  0  0  0  0  0  0  0  0  0  0  0
    1.9512   -6.3646    2.8136 N   0  0  0  0  0  0  0  0  0  0  0  0
    2.8756   -5.5983    3.5427 O   0  0  0  0  0  0  0  0  0  0  0  0
    3.3923   -4.5613    2.7563 N   0  0  0  0  0  0  0  0  0  0  0  0
    2.8070   -4.6911    1.5932 C   0  0  0  0  0  0  0  0  0  0  0  0
    3.0923   -3.7453    0.5022 C   0  0  0  0  0  0  0  0  0  0  0  0
    3.9219   -2.6888    0.5434 N   0  0  0  0  0  0  0  0  0  0  0  0
    3.8342   -2.1726   -0.7330 C   0  0  0  0  0  0  0  0  0  0  0  0
    4.4439   -1.0598   -1.3493 C   0  0  0  0  0  0  0  0  0  0  0  0
    4.1628   -0.7459   -2.6977 C   0  0  0  0  0  0  0  0  0  0  0  0
    3.2828   -1.5500   -3.4523 C   0  0  0  0  0  0  0  0  0  0  0  0
    2.6664   -2.6719   -2.8513 C   0  0  0  0  0  0  0  0  0  0  0  0
    2.9506   -2.9568   -1.5058 C   0  0  0  0  0  0  0  0  0  0  0  0
    2.4503   -3.9538   -0.6955 O   0  0  0  0  0  0  0  0  0  0  0  0
    1.1723   -5.8937   -0.3219 H   0  0  0  0  0  0  0  0  0  0  0  0
    5.0937   -0.4437   -0.7495 H   0  0  0  0  0  0  0  0  0  0  0  0
    4.6073    0.1428   -3.1255 H   0  0  0  0  0  0  0  0  0  0  0  0
    3.0410   -1.2847   -4.4774 H   0  0  0  0  0  0  0  0  0  0  0  0
    1.9609   -3.2842   -3.3977 H   0  0  0  0  0  0  0  0  0  0  0  0
    0.5536   -7.1284    0.6967 H   0  0  0  0  0  0  0  0  0  0  0  0
  1  2  1  0
  1 16  1  0
  1 21  1  0
  2  6  1  0
  2  3  2  0
  3  4  1  0
  4  5  1  0
  5  6  2  0
  6  7  1  0
  7 15  1  0
  7  8  2  0
  8  9  1  0
  9 14  2  0
  9 10  1  0
 10 11  2  0
 10 17  1  0
 11 12  1  0
 11 18  1  0
 12 13  2  0
 12 19  1  0
 13 14  1  0
 13 20  1  0
 14 15  1  0
M  END
>  <i_m_ct_stereo_status>  (233) 
1

>  <s_m_source_file>  (233) 
/var/tmp/pbs.5076255.sched01/tmp4185l44a/86vs10_z9v.sdf

>  <i_m_source_file_index>  (233) 
13

>  <i_lp_mmshare_version>  (233) 
48012

>  <i_f3d_flags>  (233) 
0

>  <s_epik_input>  (233) 
W0hdL049YzFcW25IXW9uYzEtYyhuMilvYyhjMjMpW2NIXVtjSF1bY0hdW2NIXTM=

>  <s_epik_cmdline>  (233) 
J2VwaWtfcHl0aG9uJywgJy1waHQnLCAnMi4wJywgJy1waCcsICc3LjAnLCAnLXRuJywgJzgnLCAnLW1hJywgJzIwMCcsICctaW1hZScsICc8aW5maWxlLm1hZT4nLCAnLW9tYWUnLCAnPG91dGZpbGUubWFlPic=

>  <r_lp_tautomer_probability>  (233) 
1

>  <r_epik_Ionization_Penalty>  (233) 
0.000131624

>  <r_epik_Ionization_Penalty_Charging>  (233) 
0

>  <r_epik_Ionization_Penalty_Neutral>  (233) 
0.000131624

>  <r_epik_State_Penalty>  (233) 
-0

>  <r_epik_Charging_Adjusted_Penalty>  (233) 
0

>  <i_epik_Tot_Q>  (233) 
0

>  <i_epik_Tot_abs_Q>  (233) 
0

>  <s_lp_Force_Field>  (233) 
OPLS3e

>  <r_lp_Energy>  (233) 
11.837

>  <b_lp_Chiralities_Consistent>  (233) 
1

>  <s_lp_Variant>  (233) 
67:0-1

>  <s_i_glide_gridfile>  (233) 
pfpi4k_grid

>  <i_i_glide_lignum>  (233) 
13

>  <i_i_glide_rotatable_bonds>  (233) 
1

>  <r_i_docking_score>  (233) 
-3.97307

>  <r_i_glide_ligand_efficiency>  (233) 
-0.264872

>  <r_i_glide_ligand_efficiency_sa>  (233) 
-0.653229

>  <r_i_glide_ligand_efficiency_ln>  (233) 
-1.07147

>  <r_i_glide_gscore>  (233) 
-3.97307

>  <r_i_glide_lipo>  (233) 
-0.25398

>  <r_i_glide_hbond>  (233) 
0

>  <r_i_glide_metal>  (233) 
-0

>  <r_i_glide_rewards>  (233) 
-2.53066

>  <r_i_glide_evdw>  (233) 
-19.1154

>  <r_i_glide_ecoul>  (233) 
-3.47744

>  <r_i_glide_erotb>  (233) 
0.401051

>  <r_i_glide_esite>  (233) 
-0.112097

>  <r_i_glide_emodel>  (233) 
-32.3822

>  <r_i_glide_energy>  (233) 
-22.5928

>  <r_i_glide_einternal>  (233) 
1.8064

>  <r_i_glide_intrahb_reward>  (233) 
-0.5

>  <i_i_glide_confnum>  (233) 
2

>  <i_i_glide_posenum>  (233) 
10

>  <r_i_glide_eff_state_penalty>  (233) 
0

>  <ligand_id>  (233) 
67

>  <original_smiles>  (233) 
N=c1[nH]onc1-c1nc2ccccc2o1

>  <smiles>  (233) 
[H]c1c([H])c([H])c2oc(-c3nonc3N([H])[H])nc2c1[H]

$$$$
67:0:1
     RDKit          3D

 21 23  0  0  1  0  0  0  0  0999 V2000
   -0.6513    3.0703    3.6636 N   0  0  0  0  0  0  0  0  0  0  0  0
   -0.9951    1.8138    4.1901 C   0  0  0  0  0  0  0  0  0  0  0  0
   -0.9829    0.7181    3.4752 N   0  0  0  0  0  0  0  0  0  0  0  0
   -1.3879   -0.2907    4.3641 O   0  0  0  0  0  0  0  0  0  0  0  0
   -1.6514    0.2392    5.6375 N   0  0  0  0  0  0  0  0  0  0  0  0
   -1.4008    1.5207    5.5219 C   0  0  0  0  0  0  0  0  0  0  0  0
   -1.5525    2.4375    6.6569 C   0  0  0  0  0  0  0  0  0  0  0  0
   -1.3203    3.7593    6.6648 N   0  0  0  0  0  0  0  0  0  0  0  0
   -1.6019    4.1204    7.9648 C   0  0  0  0  0  0  0  0  0  0  0  0
   -1.5544    5.3624    8.6325 C   0  0  0  0  0  0  0  0  0  0  0  0
   -1.9136    5.4448    9.9946 C   0  0  0  0  0  0  0  0  0  0  0  0
   -2.3122    4.2894   10.7014 C   0  0  0  0  0  0  0  0  0  0  0  0
   -2.3692    3.0416   10.0494 C   0  0  0  0  0  0  0  0  0  0  0  0
   -2.0120    2.9836    8.6950 C   0  0  0  0  0  0  0  0  0  0  0  0
   -1.9807    1.8943    7.8454 O   0  0  0  0  0  0  0  0  0  0  0  0
   -0.6196    3.9002    4.2374 H   0  0  0  0  0  0  0  0  0  0  0  0
   -1.2400    6.2436    8.0955 H   0  0  0  0  0  0  0  0  0  0  0  0
   -1.8815    6.4006   10.4994 H   0  0  0  0  0  0  0  0  0  0  0  0
   -2.5815    4.3518   11.7485 H   0  0  0  0  0  0  0  0  0  0  0  0
   -2.6746    2.1570   10.5900 H   0  0  0  0  0  0  0  0  0  0  0  0
   -0.3572    3.1919    2.6984 H   0  0  0  0  0  0  0  0  0  0  0  0
  1  2  1  0
  1 16  1  0
  1 21  1  0
  2  6  1  0
  2  3  2  0
  3  4  1  0
  4  5  1  0
  5  6  2  0
  6  7  1  0
  7 15  1  0
  7  8  2  0
  8  9  1  0
  9 14  2  0
  9 10  1  0
 10 11  2  0
 10 17  1  0
 11 12  1  0
 11 18  1  0
 12 13  2  0
 12 19  1  0
 13 14  1  0
 13 20  1  0
 14 15  1  0
M  END
>  <i_m_ct_stereo_status>  (234) 
1

>  <s_m_source_file>  (234) 
/var/tmp/pbs.5076255.sched01/tmp4185l44a/86vs10_z9v.sdf

>  <i_m_source_file_index>  (234) 
13

>  <i_lp_mmshare_version>  (234) 
48012

>  <i_f3d_flags>  (234) 
0

>  <s_epik_input>  (234) 
W0hdL049YzFcW25IXW9uYzEtYyhuMilvYyhjMjMpW2NIXVtjSF1bY0hdW2NIXTM=

>  <s_epik_cmdline>  (234) 
J2VwaWtfcHl0aG9uJywgJy1waHQnLCAnMi4wJywgJy1waCcsICc3LjAnLCAnLXRuJywgJzgnLCAnLW1hJywgJzIwMCcsICctaW1hZScsICc8aW5maWxlLm1hZT4nLCAnLW9tYWUnLCAnPG91dGZpbGUubWFlPic=

>  <r_lp_tautomer_probability>  (234) 
1

>  <r_epik_Ionization_Penalty>  (234) 
0.000131624

>  <r_epik_Ionization_Penalty_Charging>  (234) 
0

>  <r_epik_Ionization_Penalty_Neutral>  (234) 
0.000131624

>  <r_epik_State_Penalty>  (234) 
-0

>  <r_epik_Charging_Adjusted_Penalty>  (234) 
0

>  <i_epik_Tot_Q>  (234) 
0

>  <i_epik_Tot_abs_Q>  (234) 
0

>  <s_lp_Force_Field>  (234) 
OPLS3e

>  <r_lp_Energy>  (234) 
11.837

>  <b_lp_Chiralities_Consistent>  (234) 
1

>  <s_lp_Variant>  (234) 
67:0-1

>  <s_i_glide_gridfile>  (234) 
pfpi4k_grid

>  <i_i_glide_lignum>  (234) 
13

>  <i_i_glide_rotatable_bonds>  (234) 
1

>  <r_i_docking_score>  (234) 
-3.12425

>  <r_i_glide_ligand_efficiency>  (234) 
-0.208283

>  <r_i_glide_ligand_efficiency_sa>  (234) 
-0.51367

>  <r_i_glide_ligand_efficiency_ln>  (234) 
-0.842558

>  <r_i_glide_gscore>  (234) 
-3.12425

>  <r_i_glide_lipo>  (234) 
-0.0138583

>  <r_i_glide_hbond>  (234) 
-0.054704

>  <r_i_glide_metal>  (234) 
-0

>  <r_i_glide_rewards>  (234) 
-2.03066

>  <r_i_glide_evdw>  (234) 
-17.7617

>  <r_i_glide_ecoul>  (234) 
-2.27181

>  <r_i_glide_erotb>  (234) 
0.401051

>  <r_i_glide_esite>  (234) 
-0.197218

>  <r_i_glide_emodel>  (234) 
-24.5724

>  <r_i_glide_energy>  (234) 
-20.0335

>  <r_i_glide_einternal>  (234) 
0.00138109

>  <r_i_glide_intrahb_reward>  (234) 
-0

>  <i_i_glide_confnum>  (234) 
1

>  <i_i_glide_posenum>  (234) 
21

>  <r_i_glide_eff_state_penalty>  (234) 
0

>  <ligand_id>  (234) 
67

>  <original_smiles>  (234) 
N=c1[nH]onc1-c1nc2ccccc2o1

>  <smiles>  (234) 
[H]c1c([H])c([H])c2oc(-c3nonc3N([H])[H])nc2c1[H]

$$$$
67:0:2
     RDKit          3D

 21 23  0  0  1  0  0  0  0  0999 V2000
    4.1623   -4.0694    3.4455 N   0  0  0  0  0  0  0  0  0  0  0  0
    3.2245   -4.9376    2.8643 C   0  0  0  0  0  0  0  0  0  0  0  0
    2.6903   -5.9358    3.5187 N   0  0  0  0  0  0  0  0  0  0  0  0
    1.8140   -6.5354    2.5983 O   0  0  0  0  0  0  0  0  0  0  0  0
    1.8403   -5.8561    1.3684 N   0  0  0  0  0  0  0  0  0  0  0  0
    2.7044   -4.8828    1.5401 C   0  0  0  0  0  0  0  0  0  0  0  0
    3.0145   -3.9221    0.4746 C   0  0  0  0  0  0  0  0  0  0  0  0
    3.8815   -2.8972    0.5372 N   0  0  0  0  0  0  0  0  0  0  0  0
    3.7889   -2.3345   -0.7205 C   0  0  0  0  0  0  0  0  0  0  0  0
    4.4330   -1.2298   -1.3143 C   0  0  0  0  0  0  0  0  0  0  0  0
    4.1406   -0.8731   -2.6492 C   0  0  0  0  0  0  0  0  0  0  0  0
    3.2169   -1.6232   -3.4093 C   0  0  0  0  0  0  0  0  0  0  0  0
    2.5673   -2.7321   -2.8324 C   0  0  0  0  0  0  0  0  0  0  0  0
    2.8590   -3.0567   -1.4978 C   0  0  0  0  0  0  0  0  0  0  0  0
    2.3373   -4.0664   -0.7100 O   0  0  0  0  0  0  0  0  0  0  0  0
    4.5673   -3.2983    2.9301 H   0  0  0  0  0  0  0  0  0  0  0  0
    5.1232   -0.6534   -0.7211 H   0  0  0  0  0  0  0  0  0  0  0  0
    4.6062   -0.0036   -3.0829 H   0  0  0  0  0  0  0  0  0  0  0  0
    2.9807   -1.3259   -4.4207 H   0  0  0  0  0  0  0  0  0  0  0  0
    1.8346   -3.3066   -3.3827 H   0  0  0  0  0  0  0  0  0  0  0  0
    4.4755   -4.1921    4.3967 H   0  0  0  0  0  0  0  0  0  0  0  0
  1  2  1  0
  1 16  1  0
  1 21  1  0
  2  6  1  0
  2  3  2  0
  3  4  1  0
  4  5  1  0
  5  6  2  0
  6  7  1  0
  7 15  1  0
  7  8  2  0
  8  9  1  0
  9 14  2  0
  9 10  1  0
 10 11  2  0
 10 17  1  0
 11 12  1  0
 11 18  1  0
 12 13  2  0
 12 19  1  0
 13 14  1  0
 13 20  1  0
 14 15  1  0
M  END
>  <i_m_ct_stereo_status>  (235) 
1

>  <s_m_source_file>  (235) 
/var/tmp/pbs.5076255.sched01/tmp4185l44a/86vs10_z9v.sdf

>  <i_m_source_file_index>  (235) 
13

>  <i_lp_mmshare_version>  (235) 
48012

>  <i_f3d_flags>  (235) 
0

>  <s_epik_input>  (235) 
W0hdL049YzFcW25IXW9uYzEtYyhuMilvYyhjMjMpW2NIXVtjSF1bY0hdW2NIXTM=

>  <s_epik_cmdline>  (235) 
J2VwaWtfcHl0aG9uJywgJy1waHQnLCAnMi4wJywgJy1waCcsICc3LjAnLCAnLXRuJywgJzgnLCAnLW1hJywgJzIwMCcsICctaW1hZScsICc8aW5maWxlLm1hZT4nLCAnLW9tYWUnLCAnPG91dGZpbGUubWFlPic=

>  <r_lp_tautomer_probability>  (235) 
1

>  <r_epik_Ionization_Penalty>  (235) 
0.000131624

>  <r_epik_Ionization_Penalty_Charging>  (235) 
0

>  <r_epik_Ionization_Penalty_Neutral>  (235) 
0.000131624

>  <r_epik_State_Penalty>  (235) 
-0

>  <r_epik_Charging_Adjusted_Penalty>  (235) 
0

>  <i_epik_Tot_Q>  (235) 
0

>  <i_epik_Tot_abs_Q>  (235) 
0

>  <s_lp_Force_Field>  (235) 
OPLS3e

>  <r_lp_Energy>  (235) 
11.837

>  <b_lp_Chiralities_Consistent>  (235) 
1

>  <s_lp_Variant>  (235) 
67:0-1

>  <s_i_glide_gridfile>  (235) 
pfpi4k_grid

>  <i_i_glide_lignum>  (235) 
13

>  <i_i_glide_rotatable_bonds>  (235) 
1

>  <r_i_docking_score>  (235) 
-3.11848

>  <r_i_glide_ligand_efficiency>  (235) 
-0.207898

>  <r_i_glide_ligand_efficiency_sa>  (235) 
-0.512721

>  <r_i_glide_ligand_efficiency_ln>  (235) 
-0.841001

>  <r_i_glide_gscore>  (235) 
-3.11848

>  <r_i_glide_lipo>  (235) 
-0.198669

>  <r_i_glide_hbond>  (235) 
0

>  <r_i_glide_metal>  (235) 
-0

>  <r_i_glide_rewards>  (235) 
-2.03066

>  <r_i_glide_evdw>  (235) 
-19.0605

>  <r_i_glide_ecoul>  (235) 
-1.75097

>  <r_i_glide_erotb>  (235) 
0.401051

>  <r_i_glide_esite>  (235) 
-0.0745225

>  <r_i_glide_emodel>  (235) 
-25.346

>  <r_i_glide_energy>  (235) 
-20.8115

>  <r_i_glide_einternal>  (235) 
9.57505e-06

>  <r_i_glide_intrahb_reward>  (235) 
-0

>  <i_i_glide_confnum>  (235) 
3

>  <i_i_glide_posenum>  (235) 
40

>  <r_i_glide_eff_state_penalty>  (235) 
0

>  <ligand_id>  (235) 
67

>  <original_smiles>  (235) 
N=c1[nH]onc1-c1nc2ccccc2o1

>  <smiles>  (235) 
[H]c1c([H])c([H])c2oc(-c3nonc3N([H])[H])nc2c1[H]

$$$$
68:0:0
     RDKit          3D

 67 71  0  0  1  0  0  0  0  0999 V2000
    0.9297   -0.0765    6.8282 C   0  0  0  0  0  0  0  0  0  0  0  0
    1.6463   -1.4507    6.9228 C   0  0  0  0  0  0  0  0  0  0  0  0
    2.7358   -1.2855    8.0082 C   0  0  0  0  0  0  0  0  0  0  0  0
    0.6545   -2.5717    7.3437 C   0  0  1  0  0  0  0  0  0  0  0  0
   -0.0272   -2.2469    8.5376 O   0  0  0  0  0  0  0  0  0  0  0  0
   -0.3963   -2.8596    6.2659 C   0  0  0  0  0  0  0  0  0  0  0  0
    0.2500   -3.1573    4.9110 C   0  0  0  0  0  0  0  0  0  0  0  0
    1.2394   -2.0707    4.4408 C   0  0  2  0  0  0  0  0  0  0  0  0
    1.8514   -2.3993    3.0471 C   0  0  1  0  0  0  0  0  0  0  0  0
    2.3159   -1.1266    2.2830 C   0  0  0  0  0  0  0  0  0  0  0  0
    3.2173   -1.4209    1.0582 C   0  0  0  0  0  0  0  0  0  0  0  0
    3.0175   -2.8493    0.5513 C   0  0  1  0  0  0  0  0  0  0  0  0
    3.5856   -3.1798   -0.8229 C   0  0  2  0  0  0  0  0  0  0  0  0
    5.0888   -3.1791   -0.6352 C   0  0  1  0  0  0  0  0  0  0  0  0
    5.3964   -4.5323   -0.0531 C   0  0  0  0  0  0  0  0  0  0  0  0
    4.8971   -4.4872    1.4169 C   0  0  1  0  0  0  0  0  0  0  0  0
    5.8727   -3.7074    2.0481 O   0  0  0  0  0  0  0  0  0  0  0  0
    3.4069   -3.9564    1.6110 C   0  0  2  0  0  0  0  0  0  0  0  0
    2.5451   -5.2042    1.2891 C   0  0  0  0  0  0  0  0  0  0  0  0
    2.9538   -3.4969    3.0777 C   0  0  1  0  0  0  0  0  0  0  0  0
    3.9963   -3.1820    4.1907 C   0  0  1  0  0  0  0  0  0  0  0  0
    4.7795   -2.0537    3.9010 O   0  0  0  0  0  0  0  0  0  0  0  0
    3.3305   -2.9476    5.5623 C   0  0  0  0  0  0  0  0  0  0  0  0
    2.3021   -1.7892    5.5374 C   0  0  2  0  0  0  0  0  0  0  0  0
    4.5125   -2.6330   -1.9039 C   0  0  0  0  0  0  0  0  0  0  0  0
    4.7497   -3.4130   -3.1796 C   0  0  0  0  0  0  0  0  0  0  0  0
    4.5081   -1.1516   -2.1998 C   0  0  0  0  0  0  0  0  0  0  0  0
    0.5608    0.2654    7.7974 H   0  0  0  0  0  0  0  0  0  0  0  0
    0.0688   -0.0968    6.1616 H   0  0  0  0  0  0  0  0  0  0  0  0
    1.5980    0.7026    6.4508 H   0  0  0  0  0  0  0  0  0  0  0  0
    3.1792   -2.2433    8.2784 H   0  0  0  0  0  0  0  0  0  0  0  0
    2.3366   -0.8552    8.9297 H   0  0  0  0  0  0  0  0  0  0  0  0
    3.5422   -0.6295    7.6691 H   0  0  0  0  0  0  0  0  0  0  0  0
    1.2199   -3.4836    7.5284 H   0  0  0  0  0  0  0  0  0  0  0  0
    0.6257   -2.1677    9.2297 H   0  0  0  0  0  0  0  0  0  0  0  0
   -0.9964   -3.7131    6.5798 H   0  0  0  0  0  0  0  0  0  0  0  0
   -1.0887   -2.0256    6.1708 H   0  0  0  0  0  0  0  0  0  0  0  0
    0.7381   -4.1299    4.9628 H   0  0  0  0  0  0  0  0  0  0  0  0
   -0.5464   -3.2386    4.1774 H   0  0  0  0  0  0  0  0  0  0  0  0
    0.6471   -1.1659    4.2935 H   0  0  0  0  0  0  0  0  0  0  0  0
    1.0164   -2.7935    2.4681 H   0  0  0  0  0  0  0  0  0  0  0  0
    1.4199   -0.6248    1.9092 H   0  0  0  0  0  0  0  0  0  0  0  0
    2.7992   -0.4009    2.9452 H   0  0  0  0  0  0  0  0  0  0  0  0
    2.9885   -0.6848    0.2812 H   0  0  0  0  0  0  0  0  0  0  0  0
    4.2537   -1.2605    1.3543 H   0  0  0  0  0  0  0  0  0  0  0  0
    1.9446   -2.9128    0.3790 H   0  0  0  0  0  0  0  0  0  0  0  0
    3.0960   -4.0466   -1.2211 H   0  0  0  0  0  0  0  0  0  0  0  0
    5.5666   -2.3848   -0.0945 H   0  0  0  0  0  0  0  0  0  0  0  0
    4.9049   -5.3033   -0.6266 H   0  0  0  0  0  0  0  0  0  0  0  0
    6.4681   -4.7179   -0.1279 H   0  0  0  0  0  0  0  0  0  0  0  0
    4.9860   -5.4853    1.8423 H   0  0  0  0  0  0  0  0  0  0  0  0
    6.7034   -4.1709    1.9917 H   0  0  0  0  0  0  0  0  0  0  0  0
    2.7337   -6.0090    1.9971 H   0  0  0  0  0  0  0  0  0  0  0  0
    2.7469   -5.6156    0.3024 H   0  0  0  0  0  0  0  0  0  0  0  0
    1.4820   -4.9957    1.3441 H   0  0  0  0  0  0  0  0  0  0  0  0
    2.4547   -4.3675    3.4989 H   0  0  0  0  0  0  0  0  0  0  0  0
    4.6642   -4.0361    4.2912 H   0  0  0  0  0  0  0  0  0  0  0  0
    5.2608   -2.2760    3.1050 H   0  0  0  0  0  0  0  0  0  0  0  0
    2.8444   -3.8760    5.8627 H   0  0  0  0  0  0  0  0  0  0  0  0
    4.1186   -2.7700    6.2938 H   0  0  0  0  0  0  0  0  0  0  0  0
    2.8585   -0.9000    5.2401 H   0  0  0  0  0  0  0  0  0  0  0  0
    5.7240   -3.1536   -3.5928 H   0  0  0  0  0  0  0  0  0  0  0  0
    3.9690   -3.2115   -3.9130 H   0  0  0  0  0  0  0  0  0  0  0  0
    4.7574   -4.4846   -2.9690 H   0  0  0  0  0  0  0  0  0  0  0  0
    5.4124   -0.8682   -2.7391 H   0  0  0  0  0  0  0  0  0  0  0  0
    4.4996   -0.5759   -1.2795 H   0  0  0  0  0  0  0  0  0  0  0  0
    3.6390   -0.8812   -2.7983 H   0  0  0  0  0  0  0  0  0  0  0  0
  1  2  1  0
  1 28  1  0
  1 29  1  0
  1 30  1  0
  2 24  1  0
  2  3  1  0
  2  4  1  0
  3 31  1  0
  3 32  1  0
  3 33  1  0
  4  5  1  0
  4  6  1  0
  4 34  1  1
  5 35  1  0
  6  7  1  0
  6 36  1  0
  6 37  1  0
  7  8  1  0
  7 38  1  0
  7 39  1  0
  8 24  1  0
  8  9  1  0
  8 40  1  6
  9 20  1  0
  9 10  1  0
  9 41  1  6
 10 11  1  0
 10 42  1  0
 10 43  1  0
 11 12  1  0
 11 44  1  0
 11 45  1  0
 12 18  1  0
 12 13  1  0
 12 46  1  6
 13 25  1  0
 13 14  1  0
 13 47  1  6
 14 15  1  0
 14 25  1  0
 14 48  1  1
 15 16  1  0
 15 49  1  0
 15 50  1  0
 16 17  1  0
 16 18  1  0
 16 51  1  1
 17 52  1  0
 18 19  1  6
 18 20  1  0
 19 53  1  0
 19 54  1  0
 19 55  1  0
 20 21  1  0
 20 56  1  1
 21 22  1  0
 21 23  1  0
 21 57  1  1
 22 58  1  0
 23 24  1  0
 23 59  1  0
 23 60  1  0
 24 61  1  6
 25 26  1  0
 25 27  1  0
 26 62  1  0
 26 63  1  0
 26 64  1  0
 27 65  1  0
 27 66  1  0
 27 67  1  0
M  END
>  <i_m_ct_stereo_status>  (236) 
1

>  <s_m_source_file>  (236) 
/var/tmp/pbs.5076255.sched01/tmp4185l44a/86vs10_z9v.sdf

>  <i_m_source_file_index>  (236) 
14

>  <i_lp_mmshare_version>  (236) 
48012

>  <i_f3d_flags>  (236) 
0

>  <s_epik_input>  (236) 
W0NIMl0xW0NIMl1bQ0BIXShbT0hdKUMoW0NIM10pKFtDSDNdKVtDQEBIXShbQ0gyXVtDQEBIXShbQ0BASF0yMylbT0hdKVtDQEhdMVtDQEhdMltDSDJdW0NIMl1bQ0BIXShbQ0BdMzRbQ0gzXSlbQ0BASF01W0NASF0oQzUoW0NIM10pW0NIM10pW0NIMl1bQ0BIXTRbT0hd

>  <s_epik_cmdline>  (236) 
J2VwaWtfcHl0aG9uJywgJy1waHQnLCAnMi4wJywgJy1waCcsICc3LjAnLCAnLXRuJywgJzgnLCAnLW1hJywgJzIwMCcsICctaW1hZScsICc8aW5maWxlLm1hZT4nLCAnLW9tYWUnLCAnPG91dGZpbGUubWFlPic=

>  <r_lp_tautomer_probability>  (236) 
1

>  <r_epik_Ionization_Penalty>  (236) 
7.92879e-06

>  <r_epik_Ionization_Penalty_Charging>  (236) 
0

>  <r_epik_Ionization_Penalty_Neutral>  (236) 
7.92879e-06

>  <r_epik_State_Penalty>  (236) 
-0

>  <r_epik_Charging_Adjusted_Penalty>  (236) 
0

>  <i_epik_Tot_Q>  (236) 
0

>  <i_epik_Tot_abs_Q>  (236) 
0

>  <s_lp_Force_Field>  (236) 
OPLS3e

>  <r_lp_Energy>  (236) 
90.9837

>  <b_lp_Chiralities_Consistent>  (236) 
1

>  <s_lp_Variant>  (236) 
68:0-1

>  <s_i_glide_gridfile>  (236) 
pfpi4k_grid

>  <i_i_glide_lignum>  (236) 
14

>  <i_i_glide_rotatable_bonds>  (236) 
3

>  <r_i_docking_score>  (236) 
-3.63601

>  <r_i_glide_ligand_efficiency>  (236) 
-0.134667

>  <r_i_glide_ligand_efficiency_sa>  (236) 
-0.404001

>  <r_i_glide_ligand_efficiency_ln>  (236) 
-0.846402

>  <r_i_glide_gscore>  (236) 
-3.63601

>  <r_i_glide_lipo>  (236) 
-0.321082

>  <r_i_glide_hbond>  (236) 
-0.159543

>  <r_i_glide_metal>  (236) 
-0

>  <r_i_glide_rewards>  (236) 
-1.34155

>  <r_i_glide_evdw>  (236) 
-23.6682

>  <r_i_glide_ecoul>  (236) 
-4.20279

>  <r_i_glide_erotb>  (236) 
0

>  <r_i_glide_esite>  (236) 
0

>  <r_i_glide_emodel>  (236) 
-38.6895

>  <r_i_glide_energy>  (236) 
-27.871

>  <r_i_glide_einternal>  (236) 
0.996208

>  <r_i_glide_intrahb_reward>  (236) 
-0.5

>  <i_i_glide_confnum>  (236) 
1

>  <i_i_glide_posenum>  (236) 
7

>  <r_i_glide_eff_state_penalty>  (236) 
0

>  <ligand_id>  (236) 
68

>  <original_smiles>  (236) 
CC1(C)C(O)CCC2C3CCC4C5C(CC(O)C4(C)C3C(O)CC21)C5(C)C

>  <smiles>  (236) 
[H]OC1([H])C([H])([H])C2([H])C([H])(C([H])([H])C([H])([H])C([H])(O[H])C2(C([H])([H])[H])C([H])([H])[H])C2([H])C([H])([H])C([H])([H])C3([H])C4([H])C([H])(C([H])([H])C([H])(O[H])C3(C([H])([H])[H])C12[H])C4(C([H])([H])[H])C([H])([H])[H]

$$$$
68:0:1
     RDKit          3D

 67 71  0  0  1  0  0  0  0  0999 V2000
    0.8620    0.2722    6.6465 C   0  0  0  0  0  0  0  0  0  0  0  0
    1.7219   -1.0103    6.8085 C   0  0  0  0  0  0  0  0  0  0  0  0
    2.8326   -0.6739    7.8287 C   0  0  0  0  0  0  0  0  0  0  0  0
    0.8635   -2.1912    7.3478 C   0  0  1  0  0  0  0  0  0  0  0  0
    0.2121   -1.8409    8.5522 O   0  0  0  0  0  0  0  0  0  0  0  0
   -0.2001   -2.6645    6.3468 C   0  0  0  0  0  0  0  0  0  0  0  0
    0.4112   -3.0048    4.9825 C   0  0  0  0  0  0  0  0  0  0  0  0
    1.2699   -1.8601    4.3970 C   0  0  2  0  0  0  0  0  0  0  0  0
    1.8686   -2.2178    3.0038 C   0  0  1  0  0  0  0  0  0  0  0  0
    2.1622   -0.9711    2.1301 C   0  0  0  0  0  0  0  0  0  0  0  0
    3.0639   -1.2639    0.9093 C   0  0  0  0  0  0  0  0  0  0  0  0
    2.9740   -2.7438    0.4887 C   0  0  1  0  0  0  0  0  0  0  0  0
    3.5068   -3.1186   -0.8939 C   0  0  2  0  0  0  0  0  0  0  0  0
    5.0147   -2.9517   -0.7717 C   0  0  1  0  0  0  0  0  0  0  0  0
    5.4711   -4.2301   -0.1169 C   0  0  0  0  0  0  0  0  0  0  0  0
    5.0403   -4.1403    1.3734 C   0  0  1  0  0  0  0  0  0  0  0  0
    5.9932   -3.2679    1.9209 O   0  0  0  0  0  0  0  0  0  0  0  0
    3.5140   -3.7289    1.6049 C   0  0  2  0  0  0  0  0  0  0  0  0
    2.7525   -5.0690    1.4118 C   0  0  0  0  0  0  0  0  0  0  0  0
    3.0772   -3.2079    3.0580 C   0  0  1  0  0  0  0  0  0  0  0  0
    4.1280   -2.7113    4.0928 C   0  0  1  0  0  0  0  0  0  0  0  0
    4.7725   -1.5135    3.7125 O   0  0  0  0  0  0  0  0  0  0  0  0
    3.4888   -2.4524    5.4726 C   0  0  0  0  0  0  0  0  0  0  0  0
    2.3488   -1.3971    5.4188 C   0  0  2  0  0  0  0  0  0  0  0  0
    4.3349   -2.5693   -2.0409 C   0  0  0  0  0  0  0  0  0  0  0  0
    4.5944   -3.4198   -3.2715 C   0  0  0  0  0  0  0  0  0  0  0  0
    4.1829   -1.1162   -2.4474 C   0  0  0  0  0  0  0  0  0  0  0  0
    0.5050    0.6413    7.6098 H   0  0  0  0  0  0  0  0  0  0  0  0
   -0.0177    0.1174    6.0251 H   0  0  0  0  0  0  0  0  0  0  0  0
    1.4386    1.0787    6.1939 H   0  0  0  0  0  0  0  0  0  0  0  0
    3.3761   -1.5639    8.1455 H   0  0  0  0  0  0  0  0  0  0  0  0
    2.4256   -0.2158    8.7336 H   0  0  0  0  0  0  0  0  0  0  0  0
    3.5514    0.0311    7.4075 H   0  0  0  0  0  0  0  0  0  0  0  0
    1.5180   -3.0335    7.5758 H   0  0  0  0  0  0  0  0  0  0  0  0
    0.8781   -1.6506    9.2004 H   0  0  0  0  0  0  0  0  0  0  0  0
   -0.7034   -3.5446    6.7471 H   0  0  0  0  0  0  0  0  0  0  0  0
   -0.9731   -1.9088    6.2253 H   0  0  0  0  0  0  0  0  0  0  0  0
    1.0022   -3.9141    5.0839 H   0  0  0  0  0  0  0  0  0  0  0  0
   -0.3955   -3.2352    4.2930 H   0  0  0  0  0  0  0  0  0  0  0  0
    0.5869   -1.0295    4.2161 H   0  0  0  0  0  0  0  0  0  0  0  0
    1.0633   -2.7358    2.4839 H   0  0  0  0  0  0  0  0  0  0  0  0
    1.2094   -0.5867    1.7656 H   0  0  0  0  0  0  0  0  0  0  0  0
    2.5944   -0.1589    2.7195 H   0  0  0  0  0  0  0  0  0  0  0  0
    2.7256   -0.6219    0.0975 H   0  0  0  0  0  0  0  0  0  0  0  0
    4.0931   -0.9888    1.1333 H   0  0  0  0  0  0  0  0  0  0  0  0
    1.9051   -2.9172    0.3824 H   0  0  0  0  0  0  0  0  0  0  0  0
    3.0802   -4.0728   -1.1969 H   0  0  0  0  0  0  0  0  0  0  0  0
    5.4420   -2.0697   -0.2942 H   0  0  0  0  0  0  0  0  0  0  0  0
    5.0368   -5.1000   -0.6086 H   0  0  0  0  0  0  0  0  0  0  0  0
    6.5509   -4.3255   -0.2211 H   0  0  0  0  0  0  0  0  0  0  0  0
    5.2330   -5.1006    1.8546 H   0  0  0  0  0  0  0  0  0  0  0  0
    5.7996   -2.3839    1.6431 H   0  0  0  0  0  0  0  0  0  0  0  0
    3.0402   -5.7996    2.1653 H   0  0  0  0  0  0  0  0  0  0  0  0
    2.9545   -5.5317    0.4494 H   0  0  0  0  0  0  0  0  0  0  0  0
    1.6749   -4.9454    1.4941 H   0  0  0  0  0  0  0  0  0  0  0  0
    2.6790   -4.0860    3.5663 H   0  0  0  0  0  0  0  0  0  0  0  0
    4.8817   -3.4855    4.2209 H   0  0  0  0  0  0  0  0  0  0  0  0
    4.1109   -0.8506    3.5802 H   0  0  0  0  0  0  0  0  0  0  0  0
    3.1073   -3.3952    5.8637 H   0  0  0  0  0  0  0  0  0  0  0  0
    4.2747   -2.1458    6.1581 H   0  0  0  0  0  0  0  0  0  0  0  0
    2.7942   -0.4766    5.0386 H   0  0  0  0  0  0  0  0  0  0  0  0
    5.5107   -3.0956   -3.7646 H   0  0  0  0  0  0  0  0  0  0  0  0
    3.7630   -3.3493   -3.9759 H   0  0  0  0  0  0  0  0  0  0  0  0
    4.7205   -4.4669   -2.9888 H   0  0  0  0  0  0  0  0  0  0  0  0
    5.0090   -0.7950   -3.0777 H   0  0  0  0  0  0  0  0  0  0  0  0
    4.1702   -0.4767   -1.5646 H   0  0  0  0  0  0  0  0  0  0  0  0
    3.2508   -0.9736   -3.0004 H   0  0  0  0  0  0  0  0  0  0  0  0
  1  2  1  0
  1 28  1  0
  1 29  1  0
  1 30  1  0
  2 24  1  0
  2  3  1  0
  2  4  1  0
  3 31  1  0
  3 32  1  0
  3 33  1  0
  4  5  1  0
  4  6  1  0
  4 34  1  1
  5 35  1  0
  6  7  1  0
  6 36  1  0
  6 37  1  0
  7  8  1  0
  7 38  1  0
  7 39  1  0
  8 24  1  0
  8  9  1  0
  8 40  1  6
  9 20  1  0
  9 10  1  0
  9 41  1  6
 10 11  1  0
 10 42  1  0
 10 43  1  0
 11 12  1  0
 11 44  1  0
 11 45  1  0
 12 18  1  0
 12 13  1  0
 12 46  1  6
 13 25  1  0
 13 14  1  0
 13 47  1  6
 14 15  1  0
 14 25  1  0
 14 48  1  1
 15 16  1  0
 15 49  1  0
 15 50  1  0
 16 17  1  0
 16 18  1  0
 16 51  1  1
 17 52  1  0
 18 19  1  6
 18 20  1  0
 19 53  1  0
 19 54  1  0
 19 55  1  0
 20 21  1  0
 20 56  1  1
 21 22  1  0
 21 23  1  0
 21 57  1  1
 22 58  1  0
 23 24  1  0
 23 59  1  0
 23 60  1  0
 24 61  1  6
 25 26  1  0
 25 27  1  0
 26 62  1  0
 26 63  1  0
 26 64  1  0
 27 65  1  0
 27 66  1  0
 27 67  1  0
M  END
>  <i_m_ct_stereo_status>  (237) 
1

>  <s_m_source_file>  (237) 
/var/tmp/pbs.5076255.sched01/tmp4185l44a/86vs10_z9v.sdf

>  <i_m_source_file_index>  (237) 
14

>  <i_lp_mmshare_version>  (237) 
48012

>  <i_f3d_flags>  (237) 
0

>  <s_epik_input>  (237) 
W0NIMl0xW0NIMl1bQ0BIXShbT0hdKUMoW0NIM10pKFtDSDNdKVtDQEBIXShbQ0gyXVtDQEBIXShbQ0BASF0yMylbT0hdKVtDQEhdMVtDQEhdMltDSDJdW0NIMl1bQ0BIXShbQ0BdMzRbQ0gzXSlbQ0BASF01W0NASF0oQzUoW0NIM10pW0NIM10pW0NIMl1bQ0BIXTRbT0hd

>  <s_epik_cmdline>  (237) 
J2VwaWtfcHl0aG9uJywgJy1waHQnLCAnMi4wJywgJy1waCcsICc3LjAnLCAnLXRuJywgJzgnLCAnLW1hJywgJzIwMCcsICctaW1hZScsICc8aW5maWxlLm1hZT4nLCAnLW9tYWUnLCAnPG91dGZpbGUubWFlPic=

>  <r_lp_tautomer_probability>  (237) 
1

>  <r_epik_Ionization_Penalty>  (237) 
7.92879e-06

>  <r_epik_Ionization_Penalty_Charging>  (237) 
0

>  <r_epik_Ionization_Penalty_Neutral>  (237) 
7.92879e-06

>  <r_epik_State_Penalty>  (237) 
-0

>  <r_epik_Charging_Adjusted_Penalty>  (237) 
0

>  <i_epik_Tot_Q>  (237) 
0

>  <i_epik_Tot_abs_Q>  (237) 
0

>  <s_lp_Force_Field>  (237) 
OPLS3e

>  <r_lp_Energy>  (237) 
90.9837

>  <b_lp_Chiralities_Consistent>  (237) 
1

>  <s_lp_Variant>  (237) 
68:0-1

>  <s_i_glide_gridfile>  (237) 
pfpi4k_grid

>  <i_i_glide_lignum>  (237) 
14

>  <i_i_glide_rotatable_bonds>  (237) 
3

>  <r_i_docking_score>  (237) 
-3.03378

>  <r_i_glide_ligand_efficiency>  (237) 
-0.112362

>  <r_i_glide_ligand_efficiency_sa>  (237) 
-0.337087

>  <r_i_glide_ligand_efficiency_ln>  (237) 
-0.706215

>  <r_i_glide_gscore>  (237) 
-3.03378

>  <r_i_glide_lipo>  (237) 
-0.276278

>  <r_i_glide_hbond>  (237) 
-0.109821

>  <r_i_glide_metal>  (237) 
-0

>  <r_i_glide_rewards>  (237) 
-0.84155

>  <r_i_glide_evdw>  (237) 
-24.5751

>  <r_i_glide_ecoul>  (237) 
-3.84917

>  <r_i_glide_erotb>  (237) 
0

>  <r_i_glide_esite>  (237) 
0

>  <r_i_glide_emodel>  (237) 
-33.5336

>  <r_i_glide_energy>  (237) 
-28.4243

>  <r_i_glide_einternal>  (237) 
0.345086

>  <r_i_glide_intrahb_reward>  (237) 
-0

>  <i_i_glide_confnum>  (237) 
2

>  <i_i_glide_posenum>  (237) 
15

>  <r_i_glide_eff_state_penalty>  (237) 
0

>  <ligand_id>  (237) 
68

>  <original_smiles>  (237) 
CC1(C)C(O)CCC2C3CCC4C5C(CC(O)C4(C)C3C(O)CC21)C5(C)C

>  <smiles>  (237) 
[H]OC1([H])C([H])([H])C2([H])C([H])(C([H])([H])C([H])([H])C([H])(O[H])C2(C([H])([H])[H])C([H])([H])[H])C2([H])C([H])([H])C([H])([H])C3([H])C4([H])C([H])(C([H])([H])C([H])(O[H])C3(C([H])([H])[H])C12[H])C4(C([H])([H])[H])C([H])([H])[H]

$$$$
68:0:2
     RDKit          3D

 67 71  0  0  1  0  0  0  0  0999 V2000
    2.0630    0.7199    6.5914 C   0  0  0  0  0  0  0  0  0  0  0  0
    2.9304   -0.5669    6.6591 C   0  0  0  0  0  0  0  0  0  0  0  0
    4.1880   -0.1827    7.4734 C   0  0  0  0  0  0  0  0  0  0  0  0
    2.1701   -1.7161    7.3723 C   0  0  1  0  0  0  0  0  0  0  0  0
    1.7377   -1.3242    8.6538 O   0  0  0  0  0  0  0  0  0  0  0  0
    0.9634   -2.2179    6.5685 C   0  0  0  0  0  0  0  0  0  0  0  0
    1.3503   -2.6156    5.1383 C   0  0  0  0  0  0  0  0  0  0  0  0
    2.1059   -1.5001    4.3808 C   0  0  2  0  0  0  0  0  0  0  0  0
    2.4695   -1.9243    2.9262 C   0  0  1  0  0  0  0  0  0  0  0  0
    2.6463   -0.7051    1.9813 C   0  0  0  0  0  0  0  0  0  0  0  0
    3.3422   -1.0595    0.6448 C   0  0  0  0  0  0  0  0  0  0  0  0
    3.1810   -2.5402    0.3056 C   0  0  1  0  0  0  0  0  0  0  0  0
    3.4870   -2.9573   -1.1296 C   0  0  2  0  0  0  0  0  0  0  0  0
    4.9867   -2.8047   -1.2578 C   0  0  1  0  0  0  0  0  0  0  0  0
    5.5488   -4.0492   -0.6310 C   0  0  0  0  0  0  0  0  0  0  0  0
    5.3573   -3.9008    0.9000 C   0  0  1  0  0  0  0  0  0  0  0  0
    6.3697   -2.9983    1.2429 O   0  0  0  0  0  0  0  0  0  0  0  0
    3.8861   -3.4804    1.3526 C   0  0  2  0  0  0  0  0  0  0  0  0
    3.1029   -4.8190    1.3263 C   0  0  0  0  0  0  0  0  0  0  0  0
    3.6789   -2.9008    2.8311 C   0  0  1  0  0  0  0  0  0  0  0  0
    4.8720   -2.3569    3.6690 C   0  0  1  0  0  0  0  0  0  0  0  0
    5.4223   -1.1678    3.1728 O   0  0  0  0  0  0  0  0  0  0  0  0
    4.4649   -2.0496    5.1215 C   0  0  0  0  0  0  0  0  0  0  0  0
    3.3265   -1.0005    5.2060 C   0  0  2  0  0  0  0  0  0  0  0  0
    4.1227   -2.4576   -2.4282 C   0  0  0  0  0  0  0  0  0  0  0  0
    4.1801   -3.3462   -3.6501 C   0  0  0  0  0  0  0  0  0  0  0  0
    3.9016   -1.0269   -2.8648 C   0  0  0  0  0  0  0  0  0  0  0  0
    1.8613    1.1384    7.5797 H   0  0  0  0  0  0  0  0  0  0  0  0
    1.0940    0.5482    6.1236 H   0  0  0  0  0  0  0  0  0  0  0  0
    2.5536    1.5080    6.0135 H   0  0  0  0  0  0  0  0  0  0  0  0
    4.7777   -1.0614    7.7336 H   0  0  0  0  0  0  0  0  0  0  0  0
    3.9294    0.3023    8.4178 H   0  0  0  0  0  0  0  0  0  0  0  0
    4.8347    0.5044    6.9211 H   0  0  0  0  0  0  0  0  0  0  0  0
    2.8581   -2.5507    7.5157 H   0  0  0  0  0  0  0  0  0  0  0  0
    1.3259   -0.4673    8.5931 H   0  0  0  0  0  0  0  0  0  0  0  0
    0.5403   -3.0818    7.0800 H   0  0  0  0  0  0  0  0  0  0  0  0
    0.1766   -1.4663    6.5456 H   0  0  0  0  0  0  0  0  0  0  0  0
    1.9552   -3.5197    5.1832 H   0  0  0  0  0  0  0  0  0  0  0  0
    0.4423   -2.8801    4.5942 H   0  0  0  0  0  0  0  0  0  0  0  0
    1.4002   -0.6715    4.2772 H   0  0  0  0  0  0  0  0  0  0  0  0
    1.5898   -2.4522    2.5495 H   0  0  0  0  0  0  0  0  0  0  0  0
    1.6443   -0.3360    1.7400 H   0  0  0  0  0  0  0  0  0  0  0  0
    3.1447    0.1411    2.4635 H   0  0  0  0  0  0  0  0  0  0  0  0
    2.8783   -0.4507   -0.1260 H   0  0  0  0  0  0  0  0  0  0  0  0
    4.3912   -0.7740    0.7005 H   0  0  0  0  0  0  0  0  0  0  0  0
    2.1079   -2.7102    0.3693 H   0  0  0  0  0  0  0  0  0  0  0  0
    3.0231   -3.9043   -1.3423 H   0  0  0  0  0  0  0  0  0  0  0  0
    5.4710   -1.9130   -0.8966 H   0  0  0  0  0  0  0  0  0  0  0  0
    5.0449   -4.9217   -1.0214 H   0  0  0  0  0  0  0  0  0  0  0  0
    6.5973   -4.1354   -0.9037 H   0  0  0  0  0  0  0  0  0  0  0  0
    5.6276   -4.8378    1.3819 H   0  0  0  0  0  0  0  0  0  0  0  0
    7.2167   -3.3940    1.0573 H   0  0  0  0  0  0  0  0  0  0  0  0
    3.5055   -5.5233    2.0529 H   0  0  0  0  0  0  0  0  0  0  0  0
    3.1566   -5.3191    0.3616 H   0  0  0  0  0  0  0  0  0  0  0  0
    2.0512   -4.6825    1.5665 H   0  0  0  0  0  0  0  0  0  0  0  0
    3.3727   -3.7615    3.4251 H   0  0  0  0  0  0  0  0  0  0  0  0
    5.6488   -3.1258    3.6976 H   0  0  0  0  0  0  0  0  0  0  0  0
    4.7240   -0.5254    3.0743 H   0  0  0  0  0  0  0  0  0  0  0  0
    4.1569   -2.9803    5.5988 H   0  0  0  0  0  0  0  0  0  0  0  0
    5.3553   -1.7222    5.6572 H   0  0  0  0  0  0  0  0  0  0  0  0
    3.7053   -0.0967    4.7304 H   0  0  0  0  0  0  0  0  0  0  0  0
    5.0044   -3.0449   -4.2998 H   0  0  0  0  0  0  0  0  0  0  0  0
    3.2463   -3.3072   -4.2084 H   0  0  0  0  0  0  0  0  0  0  0  0
    4.3699   -4.3760   -3.3538 H   0  0  0  0  0  0  0  0  0  0  0  0
    4.6222   -0.7333   -3.6239 H   0  0  0  0  0  0  0  0  0  0  0  0
    4.0175   -0.3551   -2.0147 H   0  0  0  0  0  0  0  0  0  0  0  0
    2.8946   -0.9058   -3.2716 H   0  0  0  0  0  0  0  0  0  0  0  0
  1  2  1  0
  1 28  1  0
  1 29  1  0
  1 30  1  0
  2 24  1  0
  2  3  1  0
  2  4  1  0
  3 31  1  0
  3 32  1  0
  3 33  1  0
  4  5  1  0
  4  6  1  0
  4 34  1  1
  5 35  1  0
  6  7  1  0
  6 36  1  0
  6 37  1  0
  7  8  1  0
  7 38  1  0
  7 39  1  0
  8 24  1  0
  8  9  1  0
  8 40  1  6
  9 20  1  0
  9 10  1  0
  9 41  1  6
 10 11  1  0
 10 42  1  0
 10 43  1  0
 11 12  1  0
 11 44  1  0
 11 45  1  0
 12 18  1  0
 12 13  1  0
 12 46  1  1
 13 25  1  0
 13 14  1  0
 13 47  1  6
 14 15  1  0
 14 25  1  0
 14 48  1  1
 15 16  1  0
 15 49  1  0
 15 50  1  0
 16 17  1  0
 16 18  1  0
 16 51  1  1
 17 52  1  0
 18 19  1  1
 18 20  1  0
 19 53  1  0
 19 54  1  0
 19 55  1  0
 20 21  1  0
 20 56  1  1
 21 22  1  0
 21 23  1  0
 21 57  1  1
 22 58  1  0
 23 24  1  0
 23 59  1  0
 23 60  1  0
 24 61  1  6
 25 26  1  0
 25 27  1  0
 26 62  1  0
 26 63  1  0
 26 64  1  0
 27 65  1  0
 27 66  1  0
 27 67  1  0
M  END
>  <i_m_ct_stereo_status>  (238) 
1

>  <s_m_source_file>  (238) 
/var/tmp/pbs.5076255.sched01/tmp4185l44a/86vs10_z9v.sdf

>  <i_m_source_file_index>  (238) 
14

>  <i_lp_mmshare_version>  (238) 
48012

>  <i_f3d_flags>  (238) 
0

>  <s_epik_input>  (238) 
W0NIMl0xW0NIMl1bQ0BIXShbT0hdKUMoW0NIM10pKFtDSDNdKVtDQEBIXShbQ0gyXVtDQEBIXShbQ0BASF0yMylbT0hdKVtDQEhdMVtDQEhdMltDSDJdW0NIMl1bQ0BIXShbQ0BdMzRbQ0gzXSlbQ0BASF01W0NASF0oQzUoW0NIM10pW0NIM10pW0NIMl1bQ0BIXTRbT0hd

>  <s_epik_cmdline>  (238) 
J2VwaWtfcHl0aG9uJywgJy1waHQnLCAnMi4wJywgJy1waCcsICc3LjAnLCAnLXRuJywgJzgnLCAnLW1hJywgJzIwMCcsICctaW1hZScsICc8aW5maWxlLm1hZT4nLCAnLW9tYWUnLCAnPG91dGZpbGUubWFlPic=

>  <r_lp_tautomer_probability>  (238) 
1

>  <r_epik_Ionization_Penalty>  (238) 
7.92879e-06

>  <r_epik_Ionization_Penalty_Charging>  (238) 
0

>  <r_epik_Ionization_Penalty_Neutral>  (238) 
7.92879e-06

>  <r_epik_State_Penalty>  (238) 
-0

>  <r_epik_Charging_Adjusted_Penalty>  (238) 
0

>  <i_epik_Tot_Q>  (238) 
0

>  <i_epik_Tot_abs_Q>  (238) 
0

>  <s_lp_Force_Field>  (238) 
OPLS3e

>  <r_lp_Energy>  (238) 
90.9837

>  <b_lp_Chiralities_Consistent>  (238) 
1

>  <s_lp_Variant>  (238) 
68:0-1

>  <s_i_glide_gridfile>  (238) 
pfpi4k_grid

>  <i_i_glide_lignum>  (238) 
14

>  <i_i_glide_rotatable_bonds>  (238) 
3

>  <r_i_docking_score>  (238) 
-2.61485

>  <r_i_glide_ligand_efficiency>  (238) 
-0.0968463

>  <r_i_glide_ligand_efficiency_sa>  (238) 
-0.290539

>  <r_i_glide_ligand_efficiency_ln>  (238) 
-0.608694

>  <r_i_glide_gscore>  (238) 
-2.61485

>  <r_i_glide_lipo>  (238) 
-0.450115

>  <r_i_glide_hbond>  (238) 
0

>  <r_i_glide_metal>  (238) 
-0

>  <r_i_glide_rewards>  (238) 
-0.84155

>  <r_i_glide_evdw>  (238) 
-24.6176

>  <r_i_glide_ecoul>  (238) 
-0.615355

>  <r_i_glide_erotb>  (238) 
0

>  <r_i_glide_esite>  (238) 
0

>  <r_i_glide_emodel>  (238) 
-29.3107

>  <r_i_glide_energy>  (238) 
-25.233

>  <r_i_glide_einternal>  (238) 
0.556517

>  <r_i_glide_intrahb_reward>  (238) 
-0

>  <i_i_glide_confnum>  (238) 
1

>  <i_i_glide_posenum>  (238) 
9

>  <r_i_glide_eff_state_penalty>  (238) 
0

>  <ligand_id>  (238) 
68

>  <original_smiles>  (238) 
CC1(C)C(O)CCC2C3CCC4C5C(CC(O)C4(C)C3C(O)CC21)C5(C)C

>  <smiles>  (238) 
[H]OC1([H])C([H])([H])C2([H])C([H])(C([H])([H])C([H])([H])C([H])(O[H])C2(C([H])([H])[H])C([H])([H])[H])C2([H])C([H])([H])C([H])([H])C3([H])C4([H])C([H])(C([H])([H])C([H])(O[H])C3(C([H])([H])[H])C12[H])C4(C([H])([H])[H])C([H])([H])[H]

$$$$
70:0:0
     RDKit          3D

 91 97  0  0  1  0  0  0  0  0999 V2000
    0.5493   -8.0895    6.5238 C   0  0  0  0  0  0  0  0  0  0  0  0
    0.5992   -7.1282    5.3218 C   0  0  2  0  0  0  0  0  0  0  0  0
   -0.8221   -6.9972    4.7306 C   0  0  0  0  0  0  0  0  0  0  0  0
   -1.1646   -7.3048    3.4693 C   0  0  0  0  0  0  0  0  0  0  0  0
   -0.1766   -7.7972    2.5179 C   0  0  0  0  0  0  0  0  0  0  0  0
   -0.2789   -7.6023    1.3132 O   0  0  0  0  0  0  0  0  0  0  0  0
    1.0766   -8.5076    3.1203 C   0  0  0  0  0  0  0  0  0  0  0  0
    0.6393   -9.8846    3.6775 C   0  0  0  0  0  0  0  0  0  0  0  0
    2.1226   -8.8156    2.0164 C   0  0  0  0  0  0  0  0  0  0  0  0
    1.6671   -7.5938    4.2637 C   0  0  1  0  0  0  0  0  0  0  0  0
    2.4789   -6.3626    3.7492 C   0  0  0  0  0  0  0  0  0  0  0  0
    3.5612   -5.8754    4.7599 C   0  0  1  0  0  0  0  0  0  0  0  0
    4.7472   -6.5225    4.3433 O   0  0  0  0  0  0  0  0  0  0  0  0
    3.7616   -4.3223    4.9553 C   0  0  2  0  0  0  0  0  0  0  0  0
    3.7307   -3.6562    3.5586 C   0  0  0  0  0  0  0  0  0  0  0  0
    5.2144   -4.1368    5.5028 C   0  0  0  0  0  0  0  0  0  0  0  0
    5.5263   -2.7752    6.1049 C   0  0  0  0  0  0  0  0  0  0  0  0
    4.5591   -2.5353    7.2471 C   0  0  0  0  0  0  0  0  0  0  0  0
    3.0795   -2.3872    6.7808 C   0  0  2  0  0  0  0  0  0  0  0  0
    2.2868   -2.2607    8.1223 C   0  0  0  0  0  0  0  0  0  0  0  0
    2.7125   -3.7312    6.0245 C   0  0  1  0  0  0  0  0  0  0  0  0
    1.2353   -3.7230    5.5810 C   0  0  0  0  0  0  0  0  0  0  0  0
    0.4901   -4.7446    5.4641 N   0  0  0  0  0  0  0  0  0  0  0  0
    1.0552   -5.9321    5.9837 O   0  0  0  0  0  0  0  0  0  0  0  0
    0.5365   -2.3702    5.4360 C   0  0  0  0  0  0  0  0  0  0  0  0
    1.3593   -1.0383    5.2201 C   0  0  1  0  0  0  0  0  0  0  0  0
    1.4745   -0.8892    3.6779 C   0  0  0  0  0  0  0  0  0  0  0  0
    0.5126    0.1889    5.7989 C   0  0  2  0  0  0  0  0  0  0  0  0
   -0.9856    0.1547    5.4736 C   0  0  0  0  0  0  0  0  0  0  0  0
   -1.8109   -0.5362    6.0772 O   0  0  0  0  0  0  0  0  0  0  0  0
   -1.3781    1.1778    4.4263 C   0  0  0  0  0  0  0  0  0  0  0  0
   -0.0943    1.9747    4.1595 C   0  0  1  0  0  0  0  0  0  0  0  0
   -0.3717    3.4477    3.8304 C   0  0  0  0  0  0  0  0  0  0  0  0
    0.5315    4.5503    3.8831 C   0  0  0  0  0  0  0  0  0  0  0  0
   -0.1318    5.6478    3.4214 C   0  0  0  0  0  0  0  0  0  0  0  0
   -1.3823    5.3240    3.0644 O   0  0  0  0  0  0  0  0  0  0  0  0
   -1.5256    3.9903    3.3146 C   0  0  0  0  0  0  0  0  0  0  0  0
    0.8311    1.6726    5.3798 C   0  0  1  0  0  0  0  0  0  0  0  0
    0.4627    2.6039    6.5697 C   0  0  0  0  0  0  0  0  0  0  0  0
    2.3076    1.9501    5.0302 C   0  0  0  0  0  0  0  0  0  0  0  0
    3.4135    1.3160    5.4598 C   0  0  0  0  0  0  0  0  0  0  0  0
    3.3748    0.2116    6.3929 C   0  0  0  0  0  0  0  0  0  0  0  0
    3.7783    0.3363    7.5508 O   0  0  0  0  0  0  0  0  0  0  0  0
    2.8123   -1.1356    5.8653 C   0  0  1  0  0  0  0  0  0  0  0  0
    0.2189   -9.0963    6.2724 H   0  0  0  0  0  0  0  0  0  0  0  0
   -0.1335   -7.7127    7.2835 H   0  0  0  0  0  0  0  0  0  0  0  0
    1.5284   -8.1768    6.9982 H   0  0  0  0  0  0  0  0  0  0  0  0
   -1.5613   -6.5879    5.3924 H   0  0  0  0  0  0  0  0  0  0  0  0
   -2.1847   -7.1873    3.1137 H   0  0  0  0  0  0  0  0  0  0  0  0
    1.4224  -10.3433    4.2909 H   0  0  0  0  0  0  0  0  0  0  0  0
    0.4075  -10.5899    2.8733 H   0  0  0  0  0  0  0  0  0  0  0  0
   -0.2595   -9.8233    4.2829 H   0  0  0  0  0  0  0  0  0  0  0  0
    3.0887   -9.0951    2.4462 H   0  0  0  0  0  0  0  0  0  0  0  0
    2.2826   -7.9726    1.3467 H   0  0  0  0  0  0  0  0  0  0  0  0
    1.8041   -9.6435    1.3778 H   0  0  0  0  0  0  0  0  0  0  0  0
    2.3990   -8.2186    4.7893 H   0  0  0  0  0  0  0  0  0  0  0  0
    2.9882   -6.5669    2.8092 H   0  0  0  0  0  0  0  0  0  0  0  0
    1.7716   -5.5866    3.4733 H   0  0  0  0  0  0  0  0  0  0  0  0
    3.3758   -6.3005    5.7426 H   0  0  0  0  0  0  0  0  0  0  0  0
    4.5957   -7.4650    4.4037 H   0  0  0  0  0  0  0  0  0  0  0  0
    4.0330   -2.6130    3.5752 H   0  0  0  0  0  0  0  0  0  0  0  0
    2.7548   -3.7167    3.0885 H   0  0  0  0  0  0  0  0  0  0  0  0
    4.4244   -4.1570    2.8774 H   0  0  0  0  0  0  0  0  0  0  0  0
    5.4411   -4.9110    6.2505 H   0  0  0  0  0  0  0  0  0  0  0  0
    5.9281   -4.2934    4.6997 H   0  0  0  0  0  0  0  0  0  0  0  0
    6.5401   -2.7852    6.4936 H   0  0  0  0  0  0  0  0  0  0  0  0
    5.4904   -1.9809    5.3634 H   0  0  0  0  0  0  0  0  0  0  0  0
    4.6256   -3.3915    7.9117 H   0  0  0  0  0  0  0  0  0  0  0  0
    4.9199   -1.7105    7.8641 H   0  0  0  0  0  0  0  0  0  0  0  0
    1.2630   -1.9293    7.9963 H   0  0  0  0  0  0  0  0  0  0  0  0
    2.7463   -1.5317    8.7870 H   0  0  0  0  0  0  0  0  0  0  0  0
    2.2689   -3.1993    8.6722 H   0  0  0  0  0  0  0  0  0  0  0  0
    2.7581   -4.4573    6.8342 H   0  0  0  0  0  0  0  0  0  0  0  0
   -0.2267   -2.4695    4.6569 H   0  0  0  0  0  0  0  0  0  0  0  0
   -0.0277   -2.2835    6.3567 H   0  0  0  0  0  0  0  0  0  0  0  0
    2.1454   -0.0863    3.3771 H   0  0  0  0  0  0  0  0  0  0  0  0
    0.5110   -0.7188    3.1919 H   0  0  0  0  0  0  0  0  0  0  0  0
    1.8626   -1.7893    3.2264 H   0  0  0  0  0  0  0  0  0  0  0  0
    0.5539    0.1139    6.8903 H   0  0  0  0  0  0  0  0  0  0  0  0
   -1.7916    0.7247    3.5189 H   0  0  0  0  0  0  0  0  0  0  0  0
   -2.1608    1.8008    4.8646 H   0  0  0  0  0  0  0  0  0  0  0  0
    0.3438    1.5549    3.2572 H   0  0  0  0  0  0  0  0  0  0  0  0
    1.5723    4.5777    4.1882 H   0  0  0  0  0  0  0  0  0  0  0  0
    0.1942    6.6547    3.2625 H   0  0  0  0  0  0  0  0  0  0  0  0
   -2.4910    3.5815    3.0309 H   0  0  0  0  0  0  0  0  0  0  0  0
   -0.5979    2.5657    6.8291 H   0  0  0  0  0  0  0  0  0  0  0  0
    0.6872    3.6438    6.3619 H   0  0  0  0  0  0  0  0  0  0  0  0
    1.0229    2.3481    7.4695 H   0  0  0  0  0  0  0  0  0  0  0  0
    2.4526    2.7506    4.3259 H   0  0  0  0  0  0  0  0  0  0  0  0
    4.3995    1.7047    5.1225 H   0  0  0  0  0  0  0  0  0  0  0  0
    3.4516   -1.2950    5.0022 H   0  0  0  0  0  0  0  0  0  0  0  0
  2  1  1  1
  1 45  1  0
  1 46  1  0
  1 47  1  0
  2 10  1  0
  2 24  1  0
  2  3  1  0
  3  4  2  0
  3 48  1  0
  4  5  1  0
  4 49  1  0
  5  6  2  0
  5  7  1  0
  7  8  1  0
  7  9  1  0
  7 10  1  0
  8 50  1  0
  8 51  1  0
  8 52  1  0
  9 53  1  0
  9 54  1  0
  9 55  1  0
 10 11  1  0
 10 56  1  1
 11 12  1  0
 11 57  1  0
 11 58  1  0
 12 13  1  0
 12 14  1  0
 12 59  1  1
 13 60  1  0
 14 21  1  0
 14 15  1  6
 14 16  1  0
 15 61  1  0
 15 62  1  0
 15 63  1  0
 16 17  1  0
 16 64  1  0
 16 65  1  0
 17 18  1  0
 17 66  1  0
 17 67  1  0
 18 19  1  0
 18 68  1  0
 18 69  1  0
 19 44  1  0
 19 20  1  1
 19 21  1  0
 20 70  1  0
 20 71  1  0
 20 72  1  0
 21 22  1  0
 21 73  1  1
 22 23  2  3
 22 25  1  0
 23 24  1  0
 25 26  1  0
 25 74  1  0
 25 75  1  0
 26 44  1  0
 26 27  1  6
 26 28  1  0
 27 76  1  0
 27 77  1  0
 27 78  1  0
 28 38  1  0
 28 29  1  0
 28 79  1  1
 29 30  2  0
 29 31  1  0
 31 32  1  0
 31 80  1  0
 31 81  1  0
 32 33  1  0
 32 38  1  0
 32 82  1  6
 33 37  2  0
 33 34  1  0
 34 35  2  0
 34 83  1  0
 35 36  1  0
 35 84  1  0
 36 37  1  0
 37 85  1  0
 38 39  1  1
 38 40  1  0
 39 86  1  0
 39 87  1  0
 39 88  1  0
 40 41  2  0
 40 89  1  0
 41 42  1  0
 41 90  1  0
 42 43  2  0
 42 44  1  0
 44 91  1  6
M  END
>  <i_m_ct_stereo_status>  (239) 
1

>  <s_m_source_file>  (239) 
/var/tmp/pbs.5076255.sched01/tmp4185l44a/86vs10_z9v.sdf

>  <i_m_source_file_index>  (239) 
16

>  <i_lp_mmshare_version>  (239) 
48012

>  <i_f3d_flags>  (239) 
0

>  <s_epik_input>  (239) 
W0NIXTE9W0NIXUMoPU8pQyhbQ0gzXSkoW0NIM10pW0NASF0oW0NAXTEyW0NIM10pW0NIMl1bQ0BASF0oW09IXSlbQ0BAXTMoW0NIM10pW0NASF00W0NAQF0oW0NIM10pKFtDSDJdW0NIMl1bQ0gyXTMpW0NASF01W0NAQF0oW0NIM10pKFtDSDJdQ1w0PU5cTzIpW0NASF02W0NAQF0oW0NIM10pKFtDSF09W0NIXUM1PU8pW0NAQEhdKFtDSDJdQzY9TyljN1tjSF1bY0hdb1tjSF03

>  <s_epik_cmdline>  (239) 
J2VwaWtfcHl0aG9uJywgJy1waHQnLCAnMi4wJywgJy1waCcsICc3LjAnLCAnLXRuJywgJzgnLCAnLW1hJywgJzIwMCcsICctaW1hZScsICc8aW5maWxlLm1hZT4nLCAnLW9tYWUnLCAnPG91dGZpbGUubWFlPic=

>  <r_lp_tautomer_probability>  (239) 
1

>  <r_epik_Ionization_Penalty>  (239) 
2.94445e-07

>  <r_epik_Ionization_Penalty_Charging>  (239) 
0

>  <r_epik_Ionization_Penalty_Neutral>  (239) 
2.94445e-07

>  <r_epik_State_Penalty>  (239) 
-0

>  <r_epik_Charging_Adjusted_Penalty>  (239) 
0

>  <i_epik_Tot_Q>  (239) 
0

>  <i_epik_Tot_abs_Q>  (239) 
0

>  <s_epik_Chemistry_Notes>  (239) 
This compound has an imine and may undergo hydrolysis.

>  <s_lp_Force_Field>  (239) 
OPLS3e

>  <r_lp_Energy>  (239) 
103.661

>  <b_lp_Chiralities_Consistent>  (239) 
1

>  <s_lp_Variant>  (239) 
70:0-1

>  <s_i_glide_gridfile>  (239) 
pfpi4k_grid

>  <i_i_glide_lignum>  (239) 
16

>  <i_i_glide_rotatable_bonds>  (239) 
2

>  <r_i_docking_score>  (239) 
-2.82954

>  <r_i_glide_ligand_efficiency>  (239) 
-0.0643078

>  <r_i_glide_ligand_efficiency_sa>  (239) 
-0.227029

>  <r_i_glide_ligand_efficiency_ln>  (239) 
-0.591436

>  <r_i_glide_gscore>  (239) 
-2.82954

>  <r_i_glide_lipo>  (239) 
-0.0306546

>  <r_i_glide_hbond>  (239) 
-0.277843

>  <r_i_glide_metal>  (239) 
-0

>  <r_i_glide_rewards>  (239) 
0

>  <r_i_glide_evdw>  (239) 
-32.3719

>  <r_i_glide_ecoul>  (239) 
-5.76765

>  <r_i_glide_erotb>  (239) 
0.0580147

>  <r_i_glide_esite>  (239) 
-0.0953161

>  <r_i_glide_emodel>  (239) 
-43.7215

>  <r_i_glide_energy>  (239) 
-38.1395

>  <r_i_glide_einternal>  (239) 
1.26436

>  <r_i_glide_intrahb_reward>  (239) 
-0

>  <i_i_glide_confnum>  (239) 
1

>  <i_i_glide_posenum>  (239) 
10

>  <r_i_glide_eff_state_penalty>  (239) 
0

>  <ligand_id>  (239) 
70

>  <original_smiles>  (239) 
CC12C=CC(=O)C(C)(C)C1CC(O)C1(C)CCCC3(C)C1C(=NO2)CC1(C)C2C(=O)CC(c4ccoc4)C2(C)C=CC(=O)C13

>  <smiles>  (239) 
[H]OC1([H])C([H])([H])C2([H])C(C([H])([H])[H])(ON=C3C([H])([H])C4(C([H])([H])[H])C5([H])C(=O)C([H])([H])C([H])(c6c([H])oc([H])c6[H])C5(C([H])([H])[H])C([H])=C([H])C(=O)C4([H])C4(C([H])([H])[H])C([H])([H])C([H])([H])C([H])([H])C1(C([H])([H])[H])C34[H])C([H])=C([H])C(=O)C2(C([H])([H])[H])C([H])([H])[H]

$$$$
70:0:1
     RDKit          3D

 91 97  0  0  1  0  0  0  0  0999 V2000
    0.5743   -8.0886    6.5177 C   0  0  0  0  0  0  0  0  0  0  0  0
    0.6189   -7.1260    5.3185 C   0  0  2  0  0  0  0  0  0  0  0  0
   -0.8055   -6.9943    4.7414 C   0  0  0  0  0  0  0  0  0  0  0  0
   -1.1587   -7.3052    3.4798 C   0  0  0  0  0  0  0  0  0  0  0  0
   -0.1689   -7.7928    2.5343 C   0  0  0  0  0  0  0  0  0  0  0  0
   -0.2672   -7.5767    1.3285 O   0  0  0  0  0  0  0  0  0  0  0  0
    1.0827   -8.5046    3.1174 C   0  0  0  0  0  0  0  0  0  0  0  0
    0.6519   -9.8857    3.6758 C   0  0  0  0  0  0  0  0  0  0  0  0
    2.1246   -8.8209    2.0111 C   0  0  0  0  0  0  0  0  0  0  0  0
    1.6848   -7.5920    4.2574 C   0  0  1  0  0  0  0  0  0  0  0  0
    2.4921   -6.3625    3.7341 C   0  0  0  0  0  0  0  0  0  0  0  0
    3.5837   -5.8789    4.7372 C   0  0  1  0  0  0  0  0  0  0  0  0
    4.7730   -6.5448    4.3484 O   0  0  0  0  0  0  0  0  0  0  0  0
    3.7788   -4.3250    4.9345 C   0  0  2  0  0  0  0  0  0  0  0  0
    3.7434   -3.6580    3.5368 C   0  0  0  0  0  0  0  0  0  0  0  0
    5.2309   -4.1379    5.4812 C   0  0  0  0  0  0  0  0  0  0  0  0
    5.5477   -2.7767    6.0753 C   0  0  0  0  0  0  0  0  0  0  0  0
    4.5868   -2.5330    7.2216 C   0  0  0  0  0  0  0  0  0  0  0  0
    3.1054   -2.3873    6.7616 C   0  0  2  0  0  0  0  0  0  0  0  0
    2.3176   -2.2608    8.1066 C   0  0  0  0  0  0  0  0  0  0  0  0
    2.7348   -3.7332    6.0056 C   0  0  1  0  0  0  0  0  0  0  0  0
    1.2573   -3.7218    5.5703 C   0  0  0  0  0  0  0  0  0  0  0  0
    0.5107   -4.7442    5.4576 N   0  0  0  0  0  0  0  0  0  0  0  0
    1.0806   -5.9286    5.9761 O   0  0  0  0  0  0  0  0  0  0  0  0
    0.5576   -2.3719    5.4244 C   0  0  0  0  0  0  0  0  0  0  0  0
    1.3829   -1.0407    5.2082 C   0  0  1  0  0  0  0  0  0  0  0  0
    1.4860   -0.8892    3.6651 C   0  0  0  0  0  0  0  0  0  0  0  0
    0.5385    0.1871    5.7885 C   0  0  2  0  0  0  0  0  0  0  0  0
   -0.9647    0.1458    5.4807 C   0  0  0  0  0  0  0  0  0  0  0  0
   -1.7896   -0.5304    6.0914 O   0  0  0  0  0  0  0  0  0  0  0  0
   -1.3553    1.1728    4.4237 C   0  0  0  0  0  0  0  0  0  0  0  0
   -0.0693    1.9747    4.1484 C   0  0  1  0  0  0  0  0  0  0  0  0
   -0.3550    3.4381    3.8257 C   0  0  0  0  0  0  0  0  0  0  0  0
    0.5505    4.5490    3.8646 C   0  0  0  0  0  0  0  0  0  0  0  0
   -0.1273    5.6331    3.4149 C   0  0  0  0  0  0  0  0  0  0  0  0
   -1.3851    5.2977    3.0617 O   0  0  0  0  0  0  0  0  0  0  0  0
   -1.5086    3.9656    3.3206 C   0  0  0  0  0  0  0  0  0  0  0  0
    0.8589    1.6734    5.3647 C   0  0  1  0  0  0  0  0  0  0  0  0
    0.4944    2.6011    6.5565 C   0  0  0  0  0  0  0  0  0  0  0  0
    2.3317    1.9491    5.0082 C   0  0  0  0  0  0  0  0  0  0  0  0
    3.4444    1.3091    5.4318 C   0  0  0  0  0  0  0  0  0  0  0  0
    3.3969    0.2111    6.3788 C   0  0  0  0  0  0  0  0  0  0  0  0
    3.7892    0.3372    7.5363 O   0  0  0  0  0  0  0  0  0  0  0  0
    2.8371   -1.1359    5.8456 C   0  0  1  0  0  0  0  0  0  0  0  0
    0.2426   -9.0945    6.2662 H   0  0  0  0  0  0  0  0  0  0  0  0
   -0.1055   -7.7099    7.2784 H   0  0  0  0  0  0  0  0  0  0  0  0
    1.5555   -8.1755    6.9843 H   0  0  0  0  0  0  0  0  0  0  0  0
   -1.5392   -6.5768    5.4068 H   0  0  0  0  0  0  0  0  0  0  0  0
   -2.1749   -7.1898    3.1239 H   0  0  0  0  0  0  0  0  0  0  0  0
    1.4413  -10.3442    4.2834 H   0  0  0  0  0  0  0  0  0  0  0  0
    0.4180  -10.5872    2.8678 H   0  0  0  0  0  0  0  0  0  0  0  0
   -0.2469   -9.8240    4.2844 H   0  0  0  0  0  0  0  0  0  0  0  0
    3.0922   -9.1015    2.4389 H   0  0  0  0  0  0  0  0  0  0  0  0
    2.2822   -7.9791    1.3365 H   0  0  0  0  0  0  0  0  0  0  0  0
    1.7997   -9.6506    1.3773 H   0  0  0  0  0  0  0  0  0  0  0  0
    2.4237   -8.2135    4.7789 H   0  0  0  0  0  0  0  0  0  0  0  0
    2.9956   -6.5746    2.7913 H   0  0  0  0  0  0  0  0  0  0  0  0
    1.7793   -5.5892    3.4566 H   0  0  0  0  0  0  0  0  0  0  0  0
    3.3952   -6.2956    5.7207 H   0  0  0  0  0  0  0  0  0  0  0  0
    4.9952   -6.2851    3.4533 H   0  0  0  0  0  0  0  0  0  0  0  0
    4.0448   -2.6130    3.5518 H   0  0  0  0  0  0  0  0  0  0  0  0
    2.7661   -3.7198    3.0722 H   0  0  0  0  0  0  0  0  0  0  0  0
    4.4339   -4.1587    2.8543 H   0  0  0  0  0  0  0  0  0  0  0  0
    5.4592   -4.9117    6.2274 H   0  0  0  0  0  0  0  0  0  0  0  0
    5.9427   -4.2907    4.6770 H   0  0  0  0  0  0  0  0  0  0  0  0
    6.5628   -2.7875    6.4603 H   0  0  0  0  0  0  0  0  0  0  0  0
    5.5074   -1.9890    5.3280 H   0  0  0  0  0  0  0  0  0  0  0  0
    4.6546   -3.3900    7.8857 H   0  0  0  0  0  0  0  0  0  0  0  0
    4.9519   -1.7070    7.8351 H   0  0  0  0  0  0  0  0  0  0  0  0
    1.2935   -1.9295    7.9847 H   0  0  0  0  0  0  0  0  0  0  0  0
    2.7809   -1.5320    8.7691 H   0  0  0  0  0  0  0  0  0  0  0  0
    2.3047   -3.1991    8.6567 H   0  0  0  0  0  0  0  0  0  0  0  0
    2.7830   -4.4569    6.8192 H   0  0  0  0  0  0  0  0  0  0  0  0
   -0.2069   -2.4741    4.6449 H   0  0  0  0  0  0  0  0  0  0  0  0
   -0.0044   -2.2865    6.3475 H   0  0  0  0  0  0  0  0  0  0  0  0
    2.1542   -0.0848    3.3618 H   0  0  0  0  0  0  0  0  0  0  0  0
    0.5203   -0.7187    3.1843 H   0  0  0  0  0  0  0  0  0  0  0  0
    1.8732   -1.7902    3.2124 H   0  0  0  0  0  0  0  0  0  0  0  0
    0.5793    0.1120    6.8794 H   0  0  0  0  0  0  0  0  0  0  0  0
   -1.7722    0.7281    3.5128 H   0  0  0  0  0  0  0  0  0  0  0  0
   -2.1340    1.7940    4.8628 H   0  0  0  0  0  0  0  0  0  0  0  0
    0.3648    1.5557    3.2451 H   0  0  0  0  0  0  0  0  0  0  0  0
    1.5934    4.5786    4.1573 H   0  0  0  0  0  0  0  0  0  0  0  0
    0.1817    6.6440    3.2446 H   0  0  0  0  0  0  0  0  0  0  0  0
   -2.4787    3.5552    3.0467 H   0  0  0  0  0  0  0  0  0  0  0  0
   -0.5650    2.5626    6.8154 H   0  0  0  0  0  0  0  0  0  0  0  0
    0.7158    3.6402    6.3443 H   0  0  0  0  0  0  0  0  0  0  0  0
    1.0537    2.3472    7.4581 H   0  0  0  0  0  0  0  0  0  0  0  0
    2.4683    2.7432    4.2920 H   0  0  0  0  0  0  0  0  0  0  0  0
    4.4326    1.6849    5.0863 H   0  0  0  0  0  0  0  0  0  0  0  0
    3.4696   -1.2977    4.9769 H   0  0  0  0  0  0  0  0  0  0  0  0
  2  1  1  1
  1 45  1  0
  1 46  1  0
  1 47  1  0
  2 10  1  0
  2 24  1  0
  2  3  1  0
  3  4  2  0
  3 48  1  0
  4  5  1  0
  4 49  1  0
  5  6  2  0
  5  7  1  0
  7  8  1  0
  7  9  1  0
  7 10  1  0
  8 50  1  0
  8 51  1  0
  8 52  1  0
  9 53  1  0
  9 54  1  0
  9 55  1  0
 10 11  1  0
 10 56  1  1
 11 12  1  0
 11 57  1  0
 11 58  1  0
 12 13  1  0
 12 14  1  0
 12 59  1  1
 13 60  1  0
 14 21  1  0
 14 15  1  6
 14 16  1  0
 15 61  1  0
 15 62  1  0
 15 63  1  0
 16 17  1  0
 16 64  1  0
 16 65  1  0
 17 18  1  0
 17 66  1  0
 17 67  1  0
 18 19  1  0
 18 68  1  0
 18 69  1  0
 19 44  1  0
 19 20  1  1
 19 21  1  0
 20 70  1  0
 20 71  1  0
 20 72  1  0
 21 22  1  0
 21 73  1  1
 22 23  2  3
 22 25  1  0
 23 24  1  0
 25 26  1  0
 25 74  1  0
 25 75  1  0
 26 44  1  0
 26 27  1  6
 26 28  1  0
 27 76  1  0
 27 77  1  0
 27 78  1  0
 28 38  1  0
 28 29  1  0
 28 79  1  1
 29 30  2  0
 29 31  1  0
 31 32  1  0
 31 80  1  0
 31 81  1  0
 32 33  1  0
 32 38  1  0
 32 82  1  6
 33 37  2  0
 33 34  1  0
 34 35  2  0
 34 83  1  0
 35 36  1  0
 35 84  1  0
 36 37  1  0
 37 85  1  0
 38 39  1  1
 38 40  1  0
 39 86  1  0
 39 87  1  0
 39 88  1  0
 40 41  2  0
 40 89  1  0
 41 42  1  0
 41 90  1  0
 42 43  2  0
 42 44  1  0
 44 91  1  6
M  END
>  <i_m_ct_stereo_status>  (240) 
1

>  <s_m_source_file>  (240) 
/var/tmp/pbs.5076255.sched01/tmp4185l44a/86vs10_z9v.sdf

>  <i_m_source_file_index>  (240) 
16

>  <i_lp_mmshare_version>  (240) 
48012

>  <i_f3d_flags>  (240) 
0

>  <s_epik_input>  (240) 
W0NIXTE9W0NIXUMoPU8pQyhbQ0gzXSkoW0NIM10pW0NASF0oW0NAXTEyW0NIM10pW0NIMl1bQ0BASF0oW09IXSlbQ0BAXTMoW0NIM10pW0NASF00W0NAQF0oW0NIM10pKFtDSDJdW0NIMl1bQ0gyXTMpW0NASF01W0NAQF0oW0NIM10pKFtDSDJdQ1w0PU5cTzIpW0NASF02W0NAQF0oW0NIM10pKFtDSF09W0NIXUM1PU8pW0NAQEhdKFtDSDJdQzY9TyljN1tjSF1bY0hdb1tjSF03

>  <s_epik_cmdline>  (240) 
J2VwaWtfcHl0aG9uJywgJy1waHQnLCAnMi4wJywgJy1waCcsICc3LjAnLCAnLXRuJywgJzgnLCAnLW1hJywgJzIwMCcsICctaW1hZScsICc8aW5maWxlLm1hZT4nLCAnLW9tYWUnLCAnPG91dGZpbGUubWFlPic=

>  <r_lp_tautomer_probability>  (240) 
1

>  <r_epik_Ionization_Penalty>  (240) 
2.94445e-07

>  <r_epik_Ionization_Penalty_Charging>  (240) 
0

>  <r_epik_Ionization_Penalty_Neutral>  (240) 
2.94445e-07

>  <r_epik_State_Penalty>  (240) 
-0

>  <r_epik_Charging_Adjusted_Penalty>  (240) 
0

>  <i_epik_Tot_Q>  (240) 
0

>  <i_epik_Tot_abs_Q>  (240) 
0

>  <s_epik_Chemistry_Notes>  (240) 
This compound has an imine and may undergo hydrolysis.

>  <s_lp_Force_Field>  (240) 
OPLS3e

>  <r_lp_Energy>  (240) 
103.661

>  <b_lp_Chiralities_Consistent>  (240) 
1

>  <s_lp_Variant>  (240) 
70:0-1

>  <s_i_glide_gridfile>  (240) 
pfpi4k_grid

>  <i_i_glide_lignum>  (240) 
16

>  <i_i_glide_rotatable_bonds>  (240) 
2

>  <r_i_docking_score>  (240) 
-2.82943

>  <r_i_glide_ligand_efficiency>  (240) 
-0.0643052

>  <r_i_glide_ligand_efficiency_sa>  (240) 
-0.22702

>  <r_i_glide_ligand_efficiency_ln>  (240) 
-0.591412

>  <r_i_glide_gscore>  (240) 
-2.82943

>  <r_i_glide_lipo>  (240) 
-0.0318398

>  <r_i_glide_hbond>  (240) 
-0.278073

>  <r_i_glide_metal>  (240) 
-0

>  <r_i_glide_rewards>  (240) 
0

>  <r_i_glide_evdw>  (240) 
-32.3415

>  <r_i_glide_ecoul>  (240) 
-5.77352

>  <r_i_glide_erotb>  (240) 
0.0580147

>  <r_i_glide_esite>  (240) 
-0.0944287

>  <r_i_glide_emodel>  (240) 
-43.8972

>  <r_i_glide_energy>  (240) 
-38.115

>  <r_i_glide_einternal>  (240) 
0.940742

>  <r_i_glide_intrahb_reward>  (240) 
-0

>  <i_i_glide_confnum>  (240) 
1

>  <i_i_glide_posenum>  (240) 
27

>  <r_i_glide_eff_state_penalty>  (240) 
0

>  <ligand_id>  (240) 
70

>  <original_smiles>  (240) 
CC12C=CC(=O)C(C)(C)C1CC(O)C1(C)CCCC3(C)C1C(=NO2)CC1(C)C2C(=O)CC(c4ccoc4)C2(C)C=CC(=O)C13

>  <smiles>  (240) 
[H]OC1([H])C([H])([H])C2([H])C(C([H])([H])[H])(ON=C3C([H])([H])C4(C([H])([H])[H])C5([H])C(=O)C([H])([H])C([H])(c6c([H])oc([H])c6[H])C5(C([H])([H])[H])C([H])=C([H])C(=O)C4([H])C4(C([H])([H])[H])C([H])([H])C([H])([H])C([H])([H])C1(C([H])([H])[H])C34[H])C([H])=C([H])C(=O)C2(C([H])([H])[H])C([H])([H])[H]

$$$$
70:0:2
     RDKit          3D

 91 97  0  0  1  0  0  0  0  0999 V2000
    0.6135   -8.0779    6.5227 C   0  0  0  0  0  0  0  0  0  0  0  0
    0.6554   -7.1157    5.3233 C   0  0  2  0  0  0  0  0  0  0  0  0
   -0.7688   -6.9922    4.7444 C   0  0  0  0  0  0  0  0  0  0  0  0
   -1.1174   -7.3025    3.4806 C   0  0  0  0  0  0  0  0  0  0  0  0
   -0.1228   -7.7831    2.5362 C   0  0  0  0  0  0  0  0  0  0  0  0
   -0.2217   -7.5682    1.3311 O   0  0  0  0  0  0  0  0  0  0  0  0
    1.1307   -8.4910    3.1213 C   0  0  0  0  0  0  0  0  0  0  0  0
    0.7052   -9.8744    3.6799 C   0  0  0  0  0  0  0  0  0  0  0  0
    2.1759   -8.8011    2.0164 C   0  0  0  0  0  0  0  0  0  0  0  0
    1.7254   -7.5765    4.2653 C   0  0  1  0  0  0  0  0  0  0  0  0
    2.5284   -6.3416    3.7434 C   0  0  0  0  0  0  0  0  0  0  0  0
    3.6109   -5.8503    4.7510 C   0  0  1  0  0  0  0  0  0  0  0  0
    4.7984   -6.4831    4.3175 O   0  0  0  0  0  0  0  0  0  0  0  0
    3.7990   -4.2957    4.9493 C   0  0  2  0  0  0  0  0  0  0  0  0
    3.7644   -3.6315    3.5516 C   0  0  0  0  0  0  0  0  0  0  0  0
    5.2521   -4.1010    5.4975 C   0  0  0  0  0  0  0  0  0  0  0  0
    5.5600   -2.7381    6.0893 C   0  0  0  0  0  0  0  0  0  0  0  0
    4.5947   -2.5016    7.2346 C   0  0  0  0  0  0  0  0  0  0  0  0
    3.1125   -2.3637    6.7721 C   0  0  2  0  0  0  0  0  0  0  0  0
    2.3224   -2.2407    8.1148 C   0  0  0  0  0  0  0  0  0  0  0  0
    2.7505   -3.7109    6.0179 C   0  0  1  0  0  0  0  0  0  0  0  0
    1.2740   -3.7073    5.5760 C   0  0  0  0  0  0  0  0  0  0  0  0
    0.5346   -4.7340    5.4619 N   0  0  0  0  0  0  0  0  0  0  0  0
    1.1084   -5.9153    5.9832 O   0  0  0  0  0  0  0  0  0  0  0  0
    0.5684   -2.3613    5.4296 C   0  0  0  0  0  0  0  0  0  0  0  0
    1.3849   -1.0257    5.2144 C   0  0  1  0  0  0  0  0  0  0  0  0
    1.4927   -0.8743    3.6711 C   0  0  0  0  0  0  0  0  0  0  0  0
    0.5345    0.1976    5.7921 C   0  0  2  0  0  0  0  0  0  0  0  0
   -0.9681    0.1468    5.4786 C   0  0  0  0  0  0  0  0  0  0  0  0
   -1.7854   -0.5409    6.0926 O   0  0  0  0  0  0  0  0  0  0  0  0
   -1.3624    1.1753    4.4235 C   0  0  0  0  0  0  0  0  0  0  0  0
   -0.0801    1.9823    4.1524 C   0  0  1  0  0  0  0  0  0  0  0  0
   -0.3712    3.4431    3.8227 C   0  0  0  0  0  0  0  0  0  0  0  0
    0.5285    4.5571    3.8732 C   0  0  0  0  0  0  0  0  0  0  0  0
   -0.1390    5.6400    3.4213 C   0  0  0  0  0  0  0  0  0  0  0  0
   -1.3842    5.2945    3.0410 O   0  0  0  0  0  0  0  0  0  0  0  0
   -1.5201    3.9658    3.3085 C   0  0  0  0  0  0  0  0  0  0  0  0
    0.8477    1.6858    5.3706 C   0  0  1  0  0  0  0  0  0  0  0  0
    0.4756    2.6110    6.5623 C   0  0  0  0  0  0  0  0  0  0  0  0
    2.3202    1.9687    5.0165 C   0  0  0  0  0  0  0  0  0  0  0  0
    3.4339    1.3360    5.4431 C   0  0  0  0  0  0  0  0  0  0  0  0
    3.3938    0.2343    6.3871 C   0  0  0  0  0  0  0  0  0  0  0  0
    3.7858    0.3639    7.5472 O   0  0  0  0  0  0  0  0  0  0  0  0
    2.8409   -1.1122    5.8556 C   0  0  1  0  0  0  0  0  0  0  0  0
    0.2872   -9.0856    6.2706 H   0  0  0  0  0  0  0  0  0  0  0  0
   -0.0702   -7.7031    7.2816 H   0  0  0  0  0  0  0  0  0  0  0  0
    1.5939   -8.1599    6.9921 H   0  0  0  0  0  0  0  0  0  0  0  0
   -1.5061   -6.5849    5.4109 H   0  0  0  0  0  0  0  0  0  0  0  0
   -2.1342   -7.1933    3.1235 H   0  0  0  0  0  0  0  0  0  0  0  0
    1.4963  -10.3286    4.2884 H   0  0  0  0  0  0  0  0  0  0  0  0
    0.4760  -10.5776    2.8721 H   0  0  0  0  0  0  0  0  0  0  0  0
   -0.1937   -9.8188    4.2884 H   0  0  0  0  0  0  0  0  0  0  0  0
    3.1440   -9.0756    2.4460 H   0  0  0  0  0  0  0  0  0  0  0  0
    2.3312   -7.9574    1.3443 H   0  0  0  0  0  0  0  0  0  0  0  0
    1.8569   -9.6323    1.3814 H   0  0  0  0  0  0  0  0  0  0  0  0
    2.4666   -8.1954    4.7856 H   0  0  0  0  0  0  0  0  0  0  0  0
    3.0425   -6.5513    2.8074 H   0  0  0  0  0  0  0  0  0  0  0  0
    1.8168   -5.5711    3.4642 H   0  0  0  0  0  0  0  0  0  0  0  0
    3.4299   -6.2793    5.7331 H   0  0  0  0  0  0  0  0  0  0  0  0
    5.4360   -6.4131    5.0269 H   0  0  0  0  0  0  0  0  0  0  0  0
    4.0617   -2.5861    3.5629 H   0  0  0  0  0  0  0  0  0  0  0  0
    2.7889   -3.6989    3.0832 H   0  0  0  0  0  0  0  0  0  0  0  0
    4.4580   -4.1333    2.8707 H   0  0  0  0  0  0  0  0  0  0  0  0
    5.4858   -4.8679    6.2494 H   0  0  0  0  0  0  0  0  0  0  0  0
    5.9645   -4.2497    4.6928 H   0  0  0  0  0  0  0  0  0  0  0  0
    6.5745   -2.7428    6.4763 H   0  0  0  0  0  0  0  0  0  0  0  0
    5.5160   -1.9507    5.3425 H   0  0  0  0  0  0  0  0  0  0  0  0
    4.6656   -3.3570    7.8991 H   0  0  0  0  0  0  0  0  0  0  0  0
    4.9544   -1.6729    7.8493 H   0  0  0  0  0  0  0  0  0  0  0  0
    1.2967   -1.9149    7.9905 H   0  0  0  0  0  0  0  0  0  0  0  0
    2.7805   -1.5091    8.7782 H   0  0  0  0  0  0  0  0  0  0  0  0
    2.3128   -3.1789    8.6647 H   0  0  0  0  0  0  0  0  0  0  0  0
    2.8004   -4.4337    6.8301 H   0  0  0  0  0  0  0  0  0  0  0  0
   -0.1947   -2.4673    4.6489 H   0  0  0  0  0  0  0  0  0  0  0  0
    0.0044   -2.2784    6.3512 H   0  0  0  0  0  0  0  0  0  0  0  0
    2.1573   -0.0666    3.3691 H   0  0  0  0  0  0  0  0  0  0  0  0
    0.5266   -0.7089    3.1881 H   0  0  0  0  0  0  0  0  0  0  0  0
    1.8852   -1.7733    3.2195 H   0  0  0  0  0  0  0  0  0  0  0  0
    0.5725    0.1224    6.8842 H   0  0  0  0  0  0  0  0  0  0  0  0
   -1.7755    0.7268    3.5121 H   0  0  0  0  0  0  0  0  0  0  0  0
   -2.1440    1.7927    4.8631 H   0  0  0  0  0  0  0  0  0  0  0  0
    0.3576    1.5656    3.2503 H   0  0  0  0  0  0  0  0  0  0  0  0
    1.5661    4.5970    4.1777 H   0  0  0  0  0  0  0  0  0  0  0  0
    0.1539    6.6555    3.2706 H   0  0  0  0  0  0  0  0  0  0  0  0
   -2.4933    3.5508    3.0324 H   0  0  0  0  0  0  0  0  0  0  0  0
   -0.5850    2.5673    6.8196 H   0  0  0  0  0  0  0  0  0  0  0  0
    0.6922    3.6516    6.3515 H   0  0  0  0  0  0  0  0  0  0  0  0
    1.0350    2.3598    7.4643 H   0  0  0  0  0  0  0  0  0  0  0  0
    2.4535    2.7650    4.3010 H   0  0  0  0  0  0  0  0  0  0  0  0
    4.4190    1.7188    5.0998 H   0  0  0  0  0  0  0  0  0  0  0  0
    3.4751   -1.2717    4.9874 H   0  0  0  0  0  0  0  0  0  0  0  0
  2  1  1  1
  1 45  1  0
  1 46  1  0
  1 47  1  0
  2 10  1  0
  2 24  1  0
  2  3  1  0
  3  4  2  0
  3 48  1  0
  4  5  1  0
  4 49  1  0
  5  6  2  0
  5  7  1  0
  7  8  1  0
  7  9  1  0
  7 10  1  0
  8 50  1  0
  8 51  1  0
  8 52  1  0
  9 53  1  0
  9 54  1  0
  9 55  1  0
 10 11  1  0
 10 56  1  1
 11 12  1  0
 11 57  1  0
 11 58  1  0
 12 13  1  0
 12 14  1  0
 12 59  1  1
 13 60  1  0
 14 21  1  0
 14 15  1  6
 14 16  1  0
 15 61  1  0
 15 62  1  0
 15 63  1  0
 16 17  1  0
 16 64  1  0
 16 65  1  0
 17 18  1  0
 17 66  1  0
 17 67  1  0
 18 19  1  0
 18 68  1  0
 18 69  1  0
 19 44  1  0
 19 20  1  1
 19 21  1  0
 20 70  1  0
 20 71  1  0
 20 72  1  0
 21 22  1  0
 21 73  1  1
 22 23  2  3
 22 25  1  0
 23 24  1  0
 25 26  1  0
 25 74  1  0
 25 75  1  0
 26 44  1  0
 26 27  1  6
 26 28  1  0
 27 76  1  0
 27 77  1  0
 27 78  1  0
 28 38  1  0
 28 29  1  0
 28 79  1  1
 29 30  2  0
 29 31  1  0
 31 32  1  0
 31 80  1  0
 31 81  1  0
 32 33  1  0
 32 38  1  0
 32 82  1  6
 33 37  2  0
 33 34  1  0
 34 35  2  0
 34 83  1  0
 35 36  1  0
 35 84  1  0
 36 37  1  0
 37 85  1  0
 38 39  1  1
 38 40  1  0
 39 86  1  0
 39 87  1  0
 39 88  1  0
 40 41  2  0
 40 89  1  0
 41 42  1  0
 41 90  1  0
 42 43  2  0
 42 44  1  0
 44 91  1  6
M  END
>  <i_m_ct_stereo_status>  (241) 
1

>  <s_m_source_file>  (241) 
/var/tmp/pbs.5076255.sched01/tmp4185l44a/86vs10_z9v.sdf

>  <i_m_source_file_index>  (241) 
16

>  <i_lp_mmshare_version>  (241) 
48012

>  <i_f3d_flags>  (241) 
0

>  <s_epik_input>  (241) 
W0NIXTE9W0NIXUMoPU8pQyhbQ0gzXSkoW0NIM10pW0NASF0oW0NAXTEyW0NIM10pW0NIMl1bQ0BASF0oW09IXSlbQ0BAXTMoW0NIM10pW0NASF00W0NAQF0oW0NIM10pKFtDSDJdW0NIMl1bQ0gyXTMpW0NASF01W0NAQF0oW0NIM10pKFtDSDJdQ1w0PU5cTzIpW0NASF02W0NAQF0oW0NIM10pKFtDSF09W0NIXUM1PU8pW0NAQEhdKFtDSDJdQzY9TyljN1tjSF1bY0hdb1tjSF03

>  <s_epik_cmdline>  (241) 
J2VwaWtfcHl0aG9uJywgJy1waHQnLCAnMi4wJywgJy1waCcsICc3LjAnLCAnLXRuJywgJzgnLCAnLW1hJywgJzIwMCcsICctaW1hZScsICc8aW5maWxlLm1hZT4nLCAnLW9tYWUnLCAnPG91dGZpbGUubWFlPic=

>  <r_lp_tautomer_probability>  (241) 
1

>  <r_epik_Ionization_Penalty>  (241) 
2.94445e-07

>  <r_epik_Ionization_Penalty_Charging>  (241) 
0

>  <r_epik_Ionization_Penalty_Neutral>  (241) 
2.94445e-07

>  <r_epik_State_Penalty>  (241) 
-0

>  <r_epik_Charging_Adjusted_Penalty>  (241) 
0

>  <i_epik_Tot_Q>  (241) 
0

>  <i_epik_Tot_abs_Q>  (241) 
0

>  <s_epik_Chemistry_Notes>  (241) 
This compound has an imine and may undergo hydrolysis.

>  <s_lp_Force_Field>  (241) 
OPLS3e

>  <r_lp_Energy>  (241) 
103.661

>  <b_lp_Chiralities_Consistent>  (241) 
1

>  <s_lp_Variant>  (241) 
70:0-1

>  <s_i_glide_gridfile>  (241) 
pfpi4k_grid

>  <i_i_glide_lignum>  (241) 
16

>  <i_i_glide_rotatable_bonds>  (241) 
2

>  <r_i_docking_score>  (241) 
-2.80421

>  <r_i_glide_ligand_efficiency>  (241) 
-0.0637322

>  <r_i_glide_ligand_efficiency_sa>  (241) 
-0.224997

>  <r_i_glide_ligand_efficiency_ln>  (241) 
-0.586142

>  <r_i_glide_gscore>  (241) 
-2.80421

>  <r_i_glide_lipo>  (241) 
-0.0251047

>  <r_i_glide_hbond>  (241) 
-0.277045

>  <r_i_glide_metal>  (241) 
-0

>  <r_i_glide_rewards>  (241) 
0

>  <r_i_glide_evdw>  (241) 
-32.5661

>  <r_i_glide_ecoul>  (241) 
-5.59036

>  <r_i_glide_erotb>  (241) 
0.0580147

>  <r_i_glide_esite>  (241) 
-0.0932209

>  <r_i_glide_emodel>  (241) 
-43.6737

>  <r_i_glide_energy>  (241) 
-38.1565

>  <r_i_glide_einternal>  (241) 
1.27167

>  <r_i_glide_intrahb_reward>  (241) 
-0

>  <i_i_glide_confnum>  (241) 
1

>  <i_i_glide_posenum>  (241) 
13

>  <r_i_glide_eff_state_penalty>  (241) 
0

>  <ligand_id>  (241) 
70

>  <original_smiles>  (241) 
CC12C=CC(=O)C(C)(C)C1CC(O)C1(C)CCCC3(C)C1C(=NO2)CC1(C)C2C(=O)CC(c4ccoc4)C2(C)C=CC(=O)C13

>  <smiles>  (241) 
[H]OC1([H])C([H])([H])C2([H])C(C([H])([H])[H])(ON=C3C([H])([H])C4(C([H])([H])[H])C5([H])C(=O)C([H])([H])C([H])(c6c([H])oc([H])c6[H])C5(C([H])([H])[H])C([H])=C([H])C(=O)C4([H])C4(C([H])([H])[H])C([H])([H])C([H])([H])C([H])([H])C1(C([H])([H])[H])C34[H])C([H])=C([H])C(=O)C2(C([H])([H])[H])C([H])([H])[H]

$$$$
70:1:0
     RDKit          3D

 91 97  0  0  1  0  0  0  0  0999 V2000
    1.1359    1.6266    1.9605 C   0  0  0  0  0  0  0  0  0  0  0  0
    0.1634    1.1286    3.0531 C   0  0  2  0  0  0  0  0  0  0  0  0
   -1.2195    1.7267    2.7910 C   0  0  0  0  0  0  0  0  0  0  0  0
   -1.7717    2.7313    3.5063 C   0  0  0  0  0  0  0  0  0  0  0  0
   -1.0574    3.3838    4.6190 C   0  0  0  0  0  0  0  0  0  0  0  0
   -1.6247    4.1960    5.3397 O   0  0  0  0  0  0  0  0  0  0  0  0
    0.4323    3.0461    4.8680 C   0  0  0  0  0  0  0  0  0  0  0  0
    1.2904    3.9817    3.9781 C   0  0  0  0  0  0  0  0  0  0  0  0
    0.8395    3.3740    6.3370 C   0  0  0  0  0  0  0  0  0  0  0  0
    0.6311    1.5139    4.5457 C   0  0  1  0  0  0  0  0  0  0  0  0
   -0.0319    0.6282    5.6908 C   0  0  0  0  0  0  0  0  0  0  0  0
    0.9568   -0.1247    6.6507 C   0  0  1  0  0  0  0  0  0  0  0  0
    0.2464   -0.2734    7.8695 O   0  0  0  0  0  0  0  0  0  0  0  0
    1.5884   -1.5324    6.2542 C   0  0  2  0  0  0  0  0  0  0  0  0
    0.4634   -2.6150    6.1105 C   0  0  0  0  0  0  0  0  0  0  0  0
    2.4428   -2.0426    7.4495 C   0  0  0  0  0  0  0  0  0  0  0  0
    3.1469   -3.3950    7.1746 C   0  0  0  0  0  0  0  0  0  0  0  0
    3.6788   -3.5504    5.7259 C   0  0  0  0  0  0  0  0  0  0  0  0
    3.9475   -2.1942    5.0062 C   0  0  2  0  0  0  0  0  0  0  0  0
    5.0299   -1.5068    5.9273 C   0  0  0  0  0  0  0  0  0  0  0  0
    2.5688   -1.3865    4.9819 C   0  0  1  0  0  0  0  0  0  0  0  0
    1.8139   -1.3775    3.6246 C   0  0  0  0  0  0  0  0  0  0  0  0
    0.5876   -1.1014    3.6422 N   0  0  0  0  0  0  0  0  0  0  0  0
    0.1844   -0.2517    2.6208 O   0  0  0  0  0  0  0  0  0  0  0  0
    2.5604   -1.5908    2.3094 C   0  0  0  0  0  0  0  0  0  0  0  0
    3.5927   -2.7406    2.3947 C   0  0  1  0  0  0  0  0  0  0  0  0
    2.8020   -4.0600    2.7073 C   0  0  0  0  0  0  0  0  0  0  0  0
    4.2496   -3.0128    0.9713 C   0  0  2  0  0  0  0  0  0  0  0  0
    5.1751   -4.2362    0.8426 C   0  0  0  0  0  0  0  0  0  0  0  0
    5.3762   -5.1072    1.6903 O   0  0  0  0  0  0  0  0  0  0  0  0
    5.8721   -4.2061   -0.5009 C   0  0  0  0  0  0  0  0  0  0  0  0
    5.4680   -2.8518   -1.1016 C   0  0  1  0  0  0  0  0  0  0  0  0
    4.4678   -3.0172   -2.2418 C   0  0  0  0  0  0  0  0  0  0  0  0
    3.0590   -2.7778   -2.2337 C   0  0  0  0  0  0  0  0  0  0  0  0
    2.6031   -3.0251   -3.4955 C   0  0  0  0  0  0  0  0  0  0  0  0
    3.6145   -3.4306   -4.3005 O   0  0  0  0  0  0  0  0  0  0  0  0
    4.7233   -3.4624   -3.5182 C   0  0  0  0  0  0  0  0  0  0  0  0
    5.0209   -1.9581    0.1091 C   0  0  1  0  0  0  0  0  0  0  0  0
    4.2170   -0.7223   -0.3261 C   0  0  0  0  0  0  0  0  0  0  0  0
    6.2718   -1.4388    0.7990 C   0  0  0  0  0  0  0  0  0  0  0  0
    6.4064   -1.0768    2.0783 C   0  0  0  0  0  0  0  0  0  0  0  0
    5.3503   -1.0276    3.0921 C   0  0  0  0  0  0  0  0  0  0  0  0
    5.0395    0.0667    3.5589 O   0  0  0  0  0  0  0  0  0  0  0  0
    4.6023   -2.3289    3.5377 C   0  0  1  0  0  0  0  0  0  0  0  0
    1.0243    2.6771    1.7327 H   0  0  0  0  0  0  0  0  0  0  0  0
    0.9420    1.1193    1.0132 H   0  0  0  0  0  0  0  0  0  0  0  0
    2.1782    1.4521    2.2285 H   0  0  0  0  0  0  0  0  0  0  0  0
   -1.7817    1.2959    1.9718 H   0  0  0  0  0  0  0  0  0  0  0  0
   -2.7633    3.0932    3.2691 H   0  0  0  0  0  0  0  0  0  0  0  0
    2.2454    3.5284    3.7160 H   0  0  0  0  0  0  0  0  0  0  0  0
    1.5171    4.9276    4.4766 H   0  0  0  0  0  0  0  0  0  0  0  0
    0.7806    4.2733    3.0612 H   0  0  0  0  0  0  0  0  0  0  0  0
    1.8363    2.9950    6.5628 H   0  0  0  0  0  0  0  0  0  0  0  0
    0.1573    2.9743    7.0867 H   0  0  0  0  0  0  0  0  0  0  0  0
    0.8571    4.4503    6.5236 H   0  0  0  0  0  0  0  0  0  0  0  0
    1.7048    1.3498    4.5824 H   0  0  0  0  0  0  0  0  0  0  0  0
   -0.6941    1.2457    6.2931 H   0  0  0  0  0  0  0  0  0  0  0  0
   -0.7867   -0.0516    5.2984 H   0  0  0  0  0  0  0  0  0  0  0  0
    1.7752    0.5633    6.8701 H   0  0  0  0  0  0  0  0  0  0  0  0
    0.8828   -0.3924    8.5602 H   0  0  0  0  0  0  0  0  0  0  0  0
    0.7995   -3.4735    5.5328 H   0  0  0  0  0  0  0  0  0  0  0  0
   -0.4421   -2.2428    5.6366 H   0  0  0  0  0  0  0  0  0  0  0  0
    0.1468   -2.9936    7.0820 H   0  0  0  0  0  0  0  0  0  0  0  0
    3.1583   -1.2708    7.7260 H   0  0  0  0  0  0  0  0  0  0  0  0
    1.8400   -2.1651    8.3490 H   0  0  0  0  0  0  0  0  0  0  0  0
    3.9592   -3.5183    7.8897 H   0  0  0  0  0  0  0  0  0  0  0  0
    2.4585   -4.2123    7.3861 H   0  0  0  0  0  0  0  0  0  0  0  0
    4.5803   -4.1672    5.7252 H   0  0  0  0  0  0  0  0  0  0  0  0
    2.9303   -4.1341    5.2140 H   0  0  0  0  0  0  0  0  0  0  0  0
    4.9095   -0.4234    5.9877 H   0  0  0  0  0  0  0  0  0  0  0  0
    6.0406   -1.7155    5.5835 H   0  0  0  0  0  0  0  0  0  0  0  0
    5.0642   -1.8467    6.9559 H   0  0  0  0  0  0  0  0  0  0  0  0
    2.9189   -0.3612    5.0364 H   0  0  0  0  0  0  0  0  0  0  0  0
    1.8483   -1.7985    1.5116 H   0  0  0  0  0  0  0  0  0  0  0  0
    3.0019   -0.6368    2.0489 H   0  0  0  0  0  0  0  0  0  0  0  0
    3.4373   -4.8192    3.1578 H   0  0  0  0  0  0  0  0  0  0  0  0
    2.3767   -4.4961    1.8043 H   0  0  0  0  0  0  0  0  0  0  0  0
    1.9509   -3.9312    3.3658 H   0  0  0  0  0  0  0  0  0  0  0  0
    3.4014   -3.3005    0.3553 H   0  0  0  0  0  0  0  0  0  0  0  0
    6.9485   -4.2706   -0.3202 H   0  0  0  0  0  0  0  0  0  0  0  0
    5.5818   -5.0616   -1.1153 H   0  0  0  0  0  0  0  0  0  0  0  0
    6.3589   -2.4341   -1.5721 H   0  0  0  0  0  0  0  0  0  0  0  0
    2.4567   -2.4423   -1.4121 H   0  0  0  0  0  0  0  0  0  0  0  0
    1.6311   -2.9451   -3.9700 H   0  0  0  0  0  0  0  0  0  0  0  0
    5.6161   -3.8179   -4.0212 H   0  0  0  0  0  0  0  0  0  0  0  0
    3.1757   -0.9438   -0.5431 H   0  0  0  0  0  0  0  0  0  0  0  0
    4.6676   -0.2790   -1.2153 H   0  0  0  0  0  0  0  0  0  0  0  0
    4.2763    0.0823    0.4229 H   0  0  0  0  0  0  0  0  0  0  0  0
    7.1580   -1.3717    0.1853 H   0  0  0  0  0  0  0  0  0  0  0  0
    7.3796   -0.7242    2.3967 H   0  0  0  0  0  0  0  0  0  0  0  0
    5.3623   -3.1054    3.6037 H   0  0  0  0  0  0  0  0  0  0  0  0
  2  1  1  6
  1 45  1  0
  1 46  1  0
  1 47  1  0
  2 10  1  0
  2 24  1  0
  2  3  1  0
  3  4  2  0
  3 48  1  0
  4  5  1  0
  4 49  1  0
  5  6  2  0
  5  7  1  0
  7  8  1  0
  7  9  1  0
  7 10  1  0
  8 50  1  0
  8 51  1  0
  8 52  1  0
  9 53  1  0
  9 54  1  0
  9 55  1  0
 10 11  1  0
 10 56  1  6
 11 12  1  0
 11 57  1  0
 11 58  1  0
 12 13  1  0
 12 14  1  0
 12 59  1  1
 13 60  1  0
 14 21  1  0
 14 15  1  6
 14 16  1  0
 15 61  1  0
 15 62  1  0
 15 63  1  0
 16 17  1  0
 16 64  1  0
 16 65  1  0
 17 18  1  0
 17 66  1  0
 17 67  1  0
 18 19  1  0
 18 68  1  0
 18 69  1  0
 19 44  1  0
 19 20  1  1
 19 21  1  0
 20 70  1  0
 20 71  1  0
 20 72  1  0
 21 22  1  0
 21 73  1  1
 22 23  2  3
 22 25  1  0
 23 24  1  0
 25 26  1  0
 25 74  1  0
 25 75  1  0
 26 44  1  0
 26 27  1  1
 26 28  1  0
 27 76  1  0
 27 77  1  0
 27 78  1  0
 28 38  1  0
 28 29  1  0
 28 79  1  6
 29 30  2  0
 29 31  1  0
 31 32  1  0
 31 80  1  0
 31 81  1  0
 32 33  1  0
 32 38  1  0
 32 82  1  6
 33 37  2  0
 33 34  1  0
 34 35  2  0
 34 83  1  0
 35 36  1  0
 35 84  1  0
 36 37  1  0
 37 85  1  0
 38 39  1  6
 38 40  1  0
 39 86  1  0
 39 87  1  0
 39 88  1  0
 40 41  2  0
 40 89  1  0
 41 42  1  0
 41 90  1  0
 42 43  2  0
 42 44  1  0
 44 91  1  1
M  END
>  <i_m_ct_stereo_status>  (242) 
1

>  <s_m_source_file>  (242) 
/var/tmp/pbs.5076255.sched01/tmp4185l44a/86vs10_z9v.sdf

>  <i_m_source_file_index>  (242) 
17

>  <i_lp_mmshare_version>  (242) 
48012

>  <i_f3d_flags>  (242) 
0

>  <s_epik_input>  (242) 
W0NIXTE9W0NIXUMoPU8pQyhbQ0gzXSkoW0NIM10pW0NASF0oW0NAXTEyW0NIM10pW0NIMl1bQ0BASF0oW09IXSlbQ0BAXTMoW0NIM10pW0NASF00W0NAQF0oW0NIM10pKFtDSDJdW0NIMl1bQ0gyXTMpW0NASF01W0NAQF0oW0NIM10pKFtDSDJdQ1w0PU5cTzIpW0NASF02W0NAQF0oW0NIM10pKFtDSF09W0NIXUM1PU8pW0NAQEhdKFtDSDJdQzY9TyljN1tjSF1bY0hdb1tjSF03

>  <s_epik_cmdline>  (242) 
J2VwaWtfcHl0aG9uJywgJy1waHQnLCAnMi4wJywgJy1waCcsICc3LjAnLCAnLXRuJywgJzgnLCAnLW1hJywgJzIwMCcsICctaW1hZScsICc8aW5maWxlLm1hZT4nLCAnLW9tYWUnLCAnPG91dGZpbGUubWFlPic=

>  <r_lp_tautomer_probability>  (242) 
1

>  <r_epik_Ionization_Penalty>  (242) 
2.94445e-07

>  <r_epik_Ionization_Penalty_Charging>  (242) 
0

>  <r_epik_Ionization_Penalty_Neutral>  (242) 
2.94445e-07

>  <r_epik_State_Penalty>  (242) 
-0

>  <r_epik_Charging_Adjusted_Penalty>  (242) 
0

>  <i_epik_Tot_Q>  (242) 
0

>  <i_epik_Tot_abs_Q>  (242) 
0

>  <s_epik_Chemistry_Notes>  (242) 
This compound has an imine and may undergo hydrolysis.

>  <s_lp_Force_Field>  (242) 
OPLS3e

>  <r_lp_Energy>  (242) 
133.078

>  <b_lp_Chiralities_Consistent>  (242) 
1

>  <s_lp_Variant>  (242) 
70:0-2

>  <s_i_glide_gridfile>  (242) 
pfpi4k_grid

>  <i_i_glide_lignum>  (242) 
17

>  <i_i_glide_rotatable_bonds>  (242) 
2

>  <r_i_docking_score>  (242) 
-3.51949

>  <r_i_glide_ligand_efficiency>  (242) 
-0.0799883

>  <r_i_glide_ligand_efficiency_sa>  (242) 
-0.282387

>  <r_i_glide_ligand_efficiency_ln>  (242) 
-0.735649

>  <r_i_glide_gscore>  (242) 
-3.51949

>  <r_i_glide_lipo>  (242) 
-0.72068

>  <r_i_glide_hbond>  (242) 
-0.129209

>  <r_i_glide_metal>  (242) 
-0

>  <r_i_glide_rewards>  (242) 
-0.200761

>  <r_i_glide_evdw>  (242) 
-38.778

>  <r_i_glide_ecoul>  (242) 
-3.39096

>  <r_i_glide_erotb>  (242) 
0.0580147

>  <r_i_glide_esite>  (242) 
-0.0793066

>  <r_i_glide_emodel>  (242) 
-50.1411

>  <r_i_glide_energy>  (242) 
-42.1689

>  <r_i_glide_einternal>  (242) 
1.89715

>  <r_i_glide_intrahb_reward>  (242) 
-0

>  <i_i_glide_confnum>  (242) 
2

>  <i_i_glide_posenum>  (242) 
1

>  <r_i_glide_eff_state_penalty>  (242) 
0

>  <ligand_id>  (242) 
70

>  <original_smiles>  (242) 
CC12C=CC(=O)C(C)(C)C1CC(O)C1(C)CCCC3(C)C1C(=NO2)CC1(C)C2C(=O)CC(c4ccoc4)C2(C)C=CC(=O)C13

>  <smiles>  (242) 
[H]OC1([H])C([H])([H])C2([H])C(C([H])([H])[H])(ON=C3C([H])([H])C4(C([H])([H])[H])C5([H])C(=O)C([H])([H])C([H])(c6c([H])oc([H])c6[H])C5(C([H])([H])[H])C([H])=C([H])C(=O)C4([H])C4(C([H])([H])[H])C([H])([H])C([H])([H])C([H])([H])C1(C([H])([H])[H])C34[H])C([H])=C([H])C(=O)C2(C([H])([H])[H])C([H])([H])[H]

$$$$
70:1:1
     RDKit          3D

 91 97  0  0  1  0  0  0  0  0999 V2000
    0.1888   -7.1382    4.7916 C   0  0  0  0  0  0  0  0  0  0  0  0
    0.5790   -7.5940    3.3665 C   0  0  2  0  0  0  0  0  0  0  0  0
   -0.5567   -8.4311    2.8142 C   0  0  0  0  0  0  0  0  0  0  0  0
   -0.5359   -9.7661    2.6909 C   0  0  0  0  0  0  0  0  0  0  0  0
    0.6010  -10.5939    3.1471 C   0  0  0  0  0  0  0  0  0  0  0  0
    0.6201  -11.8099    2.9662 O   0  0  0  0  0  0  0  0  0  0  0  0
    1.7539   -9.9164    3.9136 C   0  0  0  0  0  0  0  0  0  0  0  0
    1.3893   -9.9228    5.4177 C   0  0  0  0  0  0  0  0  0  0  0  0
    3.0727  -10.7474    3.8160 C   0  0  0  0  0  0  0  0  0  0  0  0
    1.9410   -8.4605    3.3273 C   0  0  1  0  0  0  0  0  0  0  0  0
    2.6258   -8.5461    1.8989 C   0  0  0  0  0  0  0  0  0  0  0  0
    4.1212   -8.0712    1.8131 C   0  0  1  0  0  0  0  0  0  0  0  0
    4.6647   -8.8029    0.7328 O   0  0  0  0  0  0  0  0  0  0  0  0
    4.4880   -6.5287    1.6365 C   0  0  2  0  0  0  0  0  0  0  0  0
    3.9489   -5.9844    0.2780 C   0  0  0  0  0  0  0  0  0  0  0  0
    6.0275   -6.4031    1.4852 C   0  0  0  0  0  0  0  0  0  0  0  0
    6.5203   -4.9430    1.3365 C   0  0  0  0  0  0  0  0  0  0  0  0
    5.7373   -3.9256    2.2055 C   0  0  0  0  0  0  0  0  0  0  0  0
    5.0397   -4.5624    3.4541 C   0  0  2  0  0  0  0  0  0  0  0  0
    6.2184   -5.2072    4.2722 C   0  0  0  0  0  0  0  0  0  0  0  0
    4.0327   -5.6789    2.9235 C   0  0  1  0  0  0  0  0  0  0  0  0
    2.5268   -5.2933    2.9153 C   0  0  0  0  0  0  0  0  0  0  0  0
    1.7378   -5.9404    2.1703 N   0  0  0  0  0  0  0  0  0  0  0  0
    0.5234   -6.2812    2.7474 O   0  0  0  0  0  0  0  0  0  0  0  0
    2.0163   -4.2179    3.8664 C   0  0  0  0  0  0  0  0  0  0  0  0
    2.9494   -2.9767    3.9360 C   0  0  1  0  0  0  0  0  0  0  0  0
    2.9917   -2.3504    2.5003 C   0  0  0  0  0  0  0  0  0  0  0  0
    2.3099   -1.8267    4.8203 C   0  0  2  0  0  0  0  0  0  0  0  0
    3.0073   -0.4532    4.8583 C   0  0  0  0  0  0  0  0  0  0  0  0
    3.9704   -0.1000    4.1820 O   0  0  0  0  0  0  0  0  0  0  0  0
    2.3687    0.4309    5.9122 C   0  0  0  0  0  0  0  0  0  0  0  0
    1.3820   -0.5137    6.6278 C   0  0  1  0  0  0  0  0  0  0  0  0
   -0.0737   -0.2009    6.2697 C   0  0  0  0  0  0  0  0  0  0  0  0
   -0.8643   -0.7014    5.1865 C   0  0  0  0  0  0  0  0  0  0  0  0
   -2.0950   -0.1493    5.2965 C   0  0  0  0  0  0  0  0  0  0  0  0
   -2.1553    0.6930    6.3605 O   0  0  0  0  0  0  0  0  0  0  0  0
   -0.9089    0.6770    6.9141 C   0  0  0  0  0  0  0  0  0  0  0  0
    1.8692   -1.9795    6.3150 C   0  0  1  0  0  0  0  0  0  0  0  0
    0.7583   -3.0171    6.6040 C   0  0  0  0  0  0  0  0  0  0  0  0
    3.0386   -2.2899    7.2534 C   0  0  0  0  0  0  0  0  0  0  0  0
    4.0777   -3.1271    7.0536 C   0  0  0  0  0  0  0  0  0  0  0  0
    4.1703   -4.0442    5.9081 C   0  0  0  0  0  0  0  0  0  0  0  0
    4.0517   -5.2501    6.1041 O   0  0  0  0  0  0  0  0  0  0  0  0
    4.3426   -3.4976    4.4413 C   0  0  1  0  0  0  0  0  0  0  0  0
   -0.2922   -7.9141    5.3794 H   0  0  0  0  0  0  0  0  0  0  0  0
   -0.5374   -6.3219    4.7582 H   0  0  0  0  0  0  0  0  0  0  0  0
    1.0561   -6.7774    5.3456 H   0  0  0  0  0  0  0  0  0  0  0  0
   -1.4372   -7.8946    2.4793 H   0  0  0  0  0  0  0  0  0  0  0  0
   -1.3818  -10.2754    2.2577 H   0  0  0  0  0  0  0  0  0  0  0  0
    1.8465   -9.0946    5.9606 H   0  0  0  0  0  0  0  0  0  0  0  0
    1.7221  -10.8373    5.9052 H   0  0  0  0  0  0  0  0  0  0  0  0
    0.3115   -9.9081    5.5803 H   0  0  0  0  0  0  0  0  0  0  0  0
    3.9229  -10.2038    4.2374 H   0  0  0  0  0  0  0  0  0  0  0  0
    3.3359  -11.0431    2.7978 H   0  0  0  0  0  0  0  0  0  0  0  0
    2.9938  -11.6885    4.3633 H   0  0  0  0  0  0  0  0  0  0  0  0
    2.6430   -7.9651    3.9954 H   0  0  0  0  0  0  0  0  0  0  0  0
    2.5666   -9.5687    1.5319 H   0  0  0  0  0  0  0  0  0  0  0  0
    2.0188   -8.0823    1.1257 H   0  0  0  0  0  0  0  0  0  0  0  0
    4.6346   -8.4374    2.7033 H   0  0  0  0  0  0  0  0  0  0  0  0
    4.5010   -9.7270    0.8772 H   0  0  0  0  0  0  0  0  0  0  0  0
    3.8973   -4.8957    0.2566 H   0  0  0  0  0  0  0  0  0  0  0  0
    2.9554   -6.3466    0.0377 H   0  0  0  0  0  0  0  0  0  0  0  0
    4.5844   -6.2878   -0.5575 H   0  0  0  0  0  0  0  0  0  0  0  0
    6.5098   -6.9079    2.3201 H   0  0  0  0  0  0  0  0  0  0  0  0
    6.3867   -6.9579    0.6223 H   0  0  0  0  0  0  0  0  0  0  0  0
    7.5845   -4.9051    1.5731 H   0  0  0  0  0  0  0  0  0  0  0  0
    6.4483   -4.6361    0.2931 H   0  0  0  0  0  0  0  0  0  0  0  0
    6.3805   -3.0952    2.4805 H   0  0  0  0  0  0  0  0  0  0  0  0
    5.0127   -3.4855    1.5322 H   0  0  0  0  0  0  0  0  0  0  0  0
    5.9592   -6.1412    4.7728 H   0  0  0  0  0  0  0  0  0  0  0  0
    6.5988   -4.5156    5.0237 H   0  0  0  0  0  0  0  0  0  0  0  0
    7.1152   -5.4374    3.7012 H   0  0  0  0  0  0  0  0  0  0  0  0
    4.0755   -6.4018    3.7317 H   0  0  0  0  0  0  0  0  0  0  0  0
    1.0218   -3.9042    3.5457 H   0  0  0  0  0  0  0  0  0  0  0  0
    1.8762   -4.6988    4.8287 H   0  0  0  0  0  0  0  0  0  0  0  0
    3.8756   -1.7344    2.3493 H   0  0  0  0  0  0  0  0  0  0  0  0
    2.1277   -1.7166    2.3027 H   0  0  0  0  0  0  0  0  0  0  0  0
    2.9706   -3.0731    1.6912 H   0  0  0  0  0  0  0  0  0  0  0  0
    1.3985   -1.5920    4.2778 H   0  0  0  0  0  0  0  0  0  0  0  0
    3.1516    0.7763    6.5909 H   0  0  0  0  0  0  0  0  0  0  0  0
    1.8845    1.3112    5.4847 H   0  0  0  0  0  0  0  0  0  0  0  0
    1.4529   -0.3159    7.6978 H   0  0  0  0  0  0  0  0  0  0  0  0
   -0.6001   -1.4030    4.4126 H   0  0  0  0  0  0  0  0  0  0  0  0
   -2.9891   -0.2499    4.7130 H   0  0  0  0  0  0  0  0  0  0  0  0
   -0.8044    1.3386    7.7644 H   0  0  0  0  0  0  0  0  0  0  0  0
    0.0031   -3.0849    5.8197 H   0  0  0  0  0  0  0  0  0  0  0  0
    0.2458   -2.7745    7.5374 H   0  0  0  0  0  0  0  0  0  0  0  0
    1.1616   -4.0221    6.7375 H   0  0  0  0  0  0  0  0  0  0  0  0
    3.0339   -1.7470    8.1884 H   0  0  0  0  0  0  0  0  0  0  0  0
    4.8066   -3.2449    7.8501 H   0  0  0  0  0  0  0  0  0  0  0  0
    5.0142   -2.6384    4.5135 H   0  0  0  0  0  0  0  0  0  0  0  0
  2  1  1  1
  1 45  1  0
  1 46  1  0
  1 47  1  0
  2 10  1  0
  2 24  1  0
  2  3  1  0
  3  4  2  0
  3 48  1  0
  4  5  1  0
  4 49  1  0
  5  6  2  0
  5  7  1  0
  7  8  1  0
  7  9  1  0
  7 10  1  0
  8 50  1  0
  8 51  1  0
  8 52  1  0
  9 53  1  0
  9 54  1  0
  9 55  1  0
 10 11  1  0
 10 56  1  1
 11 12  1  0
 11 57  1  0
 11 58  1  0
 12 13  1  0
 12 14  1  0
 12 59  1  1
 13 60  1  0
 14 21  1  0
 14 15  1  6
 14 16  1  0
 15 61  1  0
 15 62  1  0
 15 63  1  0
 16 17  1  0
 16 64  1  0
 16 65  1  0
 17 18  1  0
 17 66  1  0
 17 67  1  0
 18 19  1  0
 18 68  1  0
 18 69  1  0
 19 44  1  0
 19 20  1  1
 19 21  1  0
 20 70  1  0
 20 71  1  0
 20 72  1  0
 21 22  1  0
 21 73  1  1
 22 23  2  3
 22 25  1  0
 23 24  1  0
 25 26  1  0
 25 74  1  0
 25 75  1  0
 26 44  1  0
 26 27  1  6
 26 28  1  0
 27 76  1  0
 27 77  1  0
 27 78  1  0
 28 38  1  0
 28 29  1  0
 28 79  1  6
 29 30  2  0
 29 31  1  0
 31 32  1  0
 31 80  1  0
 31 81  1  0
 32 33  1  0
 32 38  1  0
 32 82  1  1
 33 37  2  0
 33 34  1  0
 34 35  2  0
 34 83  1  0
 35 36  1  0
 35 84  1  0
 36 37  1  0
 37 85  1  0
 38 39  1  6
 38 40  1  0
 39 86  1  0
 39 87  1  0
 39 88  1  0
 40 41  2  0
 40 89  1  0
 41 42  1  0
 41 90  1  0
 42 43  2  0
 42 44  1  0
 44 91  1  1
M  END
>  <i_m_ct_stereo_status>  (243) 
1

>  <s_m_source_file>  (243) 
/var/tmp/pbs.5076255.sched01/tmp4185l44a/86vs10_z9v.sdf

>  <i_m_source_file_index>  (243) 
17

>  <i_lp_mmshare_version>  (243) 
48012

>  <i_f3d_flags>  (243) 
0

>  <s_epik_input>  (243) 
W0NIXTE9W0NIXUMoPU8pQyhbQ0gzXSkoW0NIM10pW0NASF0oW0NAXTEyW0NIM10pW0NIMl1bQ0BASF0oW09IXSlbQ0BAXTMoW0NIM10pW0NASF00W0NAQF0oW0NIM10pKFtDSDJdW0NIMl1bQ0gyXTMpW0NASF01W0NAQF0oW0NIM10pKFtDSDJdQ1w0PU5cTzIpW0NASF02W0NAQF0oW0NIM10pKFtDSF09W0NIXUM1PU8pW0NAQEhdKFtDSDJdQzY9TyljN1tjSF1bY0hdb1tjSF03

>  <s_epik_cmdline>  (243) 
J2VwaWtfcHl0aG9uJywgJy1waHQnLCAnMi4wJywgJy1waCcsICc3LjAnLCAnLXRuJywgJzgnLCAnLW1hJywgJzIwMCcsICctaW1hZScsICc8aW5maWxlLm1hZT4nLCAnLW9tYWUnLCAnPG91dGZpbGUubWFlPic=

>  <r_lp_tautomer_probability>  (243) 
1

>  <r_epik_Ionization_Penalty>  (243) 
2.94445e-07

>  <r_epik_Ionization_Penalty_Charging>  (243) 
0

>  <r_epik_Ionization_Penalty_Neutral>  (243) 
2.94445e-07

>  <r_epik_State_Penalty>  (243) 
-0

>  <r_epik_Charging_Adjusted_Penalty>  (243) 
0

>  <i_epik_Tot_Q>  (243) 
0

>  <i_epik_Tot_abs_Q>  (243) 
0

>  <s_epik_Chemistry_Notes>  (243) 
This compound has an imine and may undergo hydrolysis.

>  <s_lp_Force_Field>  (243) 
OPLS3e

>  <r_lp_Energy>  (243) 
133.078

>  <b_lp_Chiralities_Consistent>  (243) 
1

>  <s_lp_Variant>  (243) 
70:0-2

>  <s_i_glide_gridfile>  (243) 
pfpi4k_grid

>  <i_i_glide_lignum>  (243) 
17

>  <i_i_glide_rotatable_bonds>  (243) 
2

>  <r_i_docking_score>  (243) 
-3.20146

>  <r_i_glide_ligand_efficiency>  (243) 
-0.0727605

>  <r_i_glide_ligand_efficiency_sa>  (243) 
-0.25687

>  <r_i_glide_ligand_efficiency_ln>  (243) 
-0.669175

>  <r_i_glide_gscore>  (243) 
-3.20146

>  <r_i_glide_lipo>  (243) 
-0.346464

>  <r_i_glide_hbond>  (243) 
-0.16

>  <r_i_glide_metal>  (243) 
-0

>  <r_i_glide_rewards>  (243) 
-0.0865326

>  <r_i_glide_evdw>  (243) 
-35.7955

>  <r_i_glide_ecoul>  (243) 
-5.08824

>  <r_i_glide_erotb>  (243) 
0.0580147

>  <r_i_glide_esite>  (243) 
-0.11347

>  <r_i_glide_emodel>  (243) 
-49.0191

>  <r_i_glide_energy>  (243) 
-40.8837

>  <r_i_glide_einternal>  (243) 
0.922255

>  <r_i_glide_intrahb_reward>  (243) 
-0

>  <i_i_glide_confnum>  (243) 
2

>  <i_i_glide_posenum>  (243) 
2

>  <r_i_glide_eff_state_penalty>  (243) 
0

>  <ligand_id>  (243) 
70

>  <original_smiles>  (243) 
CC12C=CC(=O)C(C)(C)C1CC(O)C1(C)CCCC3(C)C1C(=NO2)CC1(C)C2C(=O)CC(c4ccoc4)C2(C)C=CC(=O)C13

>  <smiles>  (243) 
[H]OC1([H])C([H])([H])C2([H])C(C([H])([H])[H])(ON=C3C([H])([H])C4(C([H])([H])[H])C5([H])C(=O)C([H])([H])C([H])(c6c([H])oc([H])c6[H])C5(C([H])([H])[H])C([H])=C([H])C(=O)C4([H])C4(C([H])([H])[H])C([H])([H])C([H])([H])C([H])([H])C1(C([H])([H])[H])C34[H])C([H])=C([H])C(=O)C2(C([H])([H])[H])C([H])([H])[H]

$$$$
70:1:2
     RDKit          3D

 91 97  0  0  1  0  0  0  0  0999 V2000
    0.0670   -6.4609    4.3418 C   0  0  0  0  0  0  0  0  0  0  0  0
    0.5357   -7.1656    3.0448 C   0  0  2  0  0  0  0  0  0  0  0  0
   -0.6239   -7.9914    2.5145 C   0  0  0  0  0  0  0  0  0  0  0  0
   -0.6950   -9.3360    2.5982 C   0  0  0  0  0  0  0  0  0  0  0  0
    0.3546  -10.1376    3.2604 C   0  0  0  0  0  0  0  0  0  0  0  0
    0.4469  -11.3575    3.1943 O   0  0  0  0  0  0  0  0  0  0  0  0
    1.4505   -9.4259    4.0595 C   0  0  0  0  0  0  0  0  0  0  0  0
    0.9337   -9.1895    5.5018 C   0  0  0  0  0  0  0  0  0  0  0  0
    2.6907  -10.3584    4.2357 C   0  0  0  0  0  0  0  0  0  0  0  0
    1.8197   -8.1074    3.2854 C   0  0  1  0  0  0  0  0  0  0  0  0
    2.6212   -8.4783    1.9643 C   0  0  0  0  0  0  0  0  0  0  0  0
    4.1534   -8.1398    1.9612 C   0  0  1  0  0  0  0  0  0  0  0  0
    4.7235   -9.0474    1.0327 O   0  0  0  0  0  0  0  0  0  0  0  0
    4.6794   -6.6749    1.6190 C   0  0  2  0  0  0  0  0  0  0  0  0
    4.3259   -6.3038    0.1471 C   0  0  0  0  0  0  0  0  0  0  0  0
    6.2300   -6.7015    1.6119 C   0  0  0  0  0  0  0  0  0  0  0  0
    6.8673   -5.3282    1.3047 C   0  0  0  0  0  0  0  0  0  0  0  0
    6.1028   -4.1286    1.9126 C   0  0  0  0  0  0  0  0  0  0  0  0
    5.2309   -4.5016    3.1709 C   0  0  2  0  0  0  0  0  0  0  0  0
    6.2317   -5.1274    4.2111 C   0  0  0  0  0  0  0  0  0  0  0  0
    4.1850   -5.6059    2.7066 C   0  0  1  0  0  0  0  0  0  0  0  0
    2.7318   -5.1091    2.4804 C   0  0  0  0  0  0  0  0  0  0  0  0
    1.9587   -5.8109    1.7751 N   0  0  0  0  0  0  0  0  0  0  0  0
    0.6596   -5.9525    2.2499 O   0  0  0  0  0  0  0  0  0  0  0  0
    2.2353   -3.8622    3.2003 C   0  0  0  0  0  0  0  0  0  0  0  0
    3.2639   -2.7015    3.1921 C   0  0  1  0  0  0  0  0  0  0  0  0
    3.5030   -2.3045    1.6949 C   0  0  0  0  0  0  0  0  0  0  0  0
    2.6408   -1.3823    3.8131 C   0  0  2  0  0  0  0  0  0  0  0  0
    3.4659   -0.0858    3.7344 C   0  0  0  0  0  0  0  0  0  0  0  0
    4.5281    0.0607    3.1454 O   0  0  0  0  0  0  0  0  0  0  0  0
    2.8460    1.0059    4.5821 C   0  0  0  0  0  0  0  0  0  0  0  0
    1.7157    0.2689    5.3233 C   0  0  1  0  0  0  0  0  0  0  0  0
    0.3501    0.6269    4.7581 C   0  0  0  0  0  0  0  0  0  0  0  0
   -0.0039    0.8832    3.4037 C   0  0  0  0  0  0  0  0  0  0  0  0
   -1.3333    1.2049    3.3942 C   0  0  0  0  0  0  0  0  0  0  0  0
   -1.8350    1.1630    4.6528 O   0  0  0  0  0  0  0  0  0  0  0  0
   -0.8106    0.8227    5.4697 C   0  0  0  0  0  0  0  0  0  0  0  0
    2.0682   -1.2655    5.2572 C   0  0  1  0  0  0  0  0  0  0  0  0
    0.8271   -2.1239    5.5515 C   0  0  0  0  0  0  0  0  0  0  0  0
    3.1043   -1.5286    6.3610 C   0  0  0  0  0  0  0  0  0  0  0  0
    4.0874   -2.4477    6.3956 C   0  0  0  0  0  0  0  0  0  0  0  0
    4.1746   -3.5386    5.4165 C   0  0  0  0  0  0  0  0  0  0  0  0
    3.9165   -4.6965    5.7621 O   0  0  0  0  0  0  0  0  0  0  0  0
    4.5487   -3.2456    3.9152 C   0  0  1  0  0  0  0  0  0  0  0  0
   -0.5419   -7.0903    4.9875 H   0  0  0  0  0  0  0  0  0  0  0  0
   -0.5655   -5.5985    4.1185 H   0  0  0  0  0  0  0  0  0  0  0  0
    0.9129   -6.0887    4.9260 H   0  0  0  0  0  0  0  0  0  0  0  0
   -1.3981   -7.4392    2.0119 H   0  0  0  0  0  0  0  0  0  0  0  0
   -1.5264   -9.8767    2.1829 H   0  0  0  0  0  0  0  0  0  0  0  0
    1.4130   -8.3262    5.9768 H   0  0  0  0  0  0  0  0  0  0  0  0
    1.1224  -10.0584    6.1402 H   0  0  0  0  0  0  0  0  0  0  0  0
   -0.1510   -9.0694    5.5309 H   0  0  0  0  0  0  0  0  0  0  0  0
    3.5523   -9.8344    4.6623 H   0  0  0  0  0  0  0  0  0  0  0  0
    3.0014  -10.8360    3.3022 H   0  0  0  0  0  0  0  0  0  0  0  0
    2.4516  -11.2007    4.8926 H   0  0  0  0  0  0  0  0  0  0  0  0
    2.4998   -7.5615    3.9445 H   0  0  0  0  0  0  0  0  0  0  0  0
    2.5029   -9.5381    1.7463 H   0  0  0  0  0  0  0  0  0  0  0  0
    2.1306   -8.0983    1.0704 H   0  0  0  0  0  0  0  0  0  0  0  0
    4.5450   -8.4131    2.9426 H   0  0  0  0  0  0  0  0  0  0  0  0
    4.4473   -9.9340    1.2414 H   0  0  0  0  0  0  0  0  0  0  0  0
    4.3621   -5.2298   -0.0404 H   0  0  0  0  0  0  0  0  0  0  0  0
    3.3412   -6.6430   -0.1420 H   0  0  0  0  0  0  0  0  0  0  0  0
    5.0131   -6.7637   -0.5624 H   0  0  0  0  0  0  0  0  0  0  0  0
    6.5832   -7.1074    2.5543 H   0  0  0  0  0  0  0  0  0  0  0  0
    6.6168   -7.4168    0.8973 H   0  0  0  0  0  0  0  0  0  0  0  0
    7.9015   -5.3391    1.6514 H   0  0  0  0  0  0  0  0  0  0  0  0
    6.9245   -5.1795    0.2277 H   0  0  0  0  0  0  0  0  0  0  0  0
    6.7877   -3.2954    2.0793 H   0  0  0  0  0  0  0  0  0  0  0  0
    5.4686   -3.7752    1.1140 H   0  0  0  0  0  0  0  0  0  0  0  0
    5.8445   -5.9757    4.7867 H   0  0  0  0  0  0  0  0  0  0  0  0
    6.5914   -4.3813    4.9176 H   0  0  0  0  0  0  0  0  0  0  0  0
    7.1725   -5.4604    3.7846 H   0  0  0  0  0  0  0  0  0  0  0  0
    4.0820   -6.1975    3.6075 H   0  0  0  0  0  0  0  0  0  0  0  0
    1.3115   -3.5273    2.7294 H   0  0  0  0  0  0  0  0  0  0  0  0
    1.9591   -4.1760    4.2011 H   0  0  0  0  0  0  0  0  0  0  0  0
    4.4527   -1.7941    1.5560 H   0  0  0  0  0  0  0  0  0  0  0  0
    2.7247   -1.6412    1.3167 H   0  0  0  0  0  0  0  0  0  0  0  0
    3.4934   -3.1390    1.0056 H   0  0  0  0  0  0  0  0  0  0  0  0
    1.7804   -1.1652    3.1794 H   0  0  0  0  0  0  0  0  0  0  0  0
    3.5963    1.3780    5.2827 H   0  0  0  0  0  0  0  0  0  0  0  0
    2.4914    1.8498    3.9873 H   0  0  0  0  0  0  0  0  0  0  0  0
    1.6967    0.6171    6.3575 H   0  0  0  0  0  0  0  0  0  0  0  0
    0.6133    0.8579    2.5204 H   0  0  0  0  0  0  0  0  0  0  0  0
   -2.0299    1.4692    2.6218 H   0  0  0  0  0  0  0  0  0  0  0  0
   -1.0752    0.7724    6.5102 H   0  0  0  0  0  0  0  0  0  0  0  0
    0.1467   -2.1736    4.6983 H   0  0  0  0  0  0  0  0  0  0  0  0
    0.2690   -1.7223    6.3982 H   0  0  0  0  0  0  0  0  0  0  0  0
    1.0926   -3.1444    5.8331 H   0  0  0  0  0  0  0  0  0  0  0  0
    3.0681   -0.8399    7.1901 H   0  0  0  0  0  0  0  0  0  0  0  0
    4.7307   -2.4995    7.2850 H   0  0  0  0  0  0  0  0  0  0  0  0
    5.2906   -2.4398    3.9318 H   0  0  0  0  0  0  0  0  0  0  0  0
  2  1  1  1
  1 45  1  0
  1 46  1  0
  1 47  1  0
  2 10  1  0
  2 24  1  0
  2  3  1  0
  3  4  2  0
  3 48  1  0
  4  5  1  0
  4 49  1  0
  5  6  2  0
  5  7  1  0
  7  8  1  0
  7  9  1  0
  7 10  1  0
  8 50  1  0
  8 51  1  0
  8 52  1  0
  9 53  1  0
  9 54  1  0
  9 55  1  0
 10 11  1  0
 10 56  1  1
 11 12  1  0
 11 57  1  0
 11 58  1  0
 12 13  1  0
 12 14  1  0
 12 59  1  1
 13 60  1  0
 14 21  1  0
 14 15  1  6
 14 16  1  0
 15 61  1  0
 15 62  1  0
 15 63  1  0
 16 17  1  0
 16 64  1  0
 16 65  1  0
 17 18  1  0
 17 66  1  0
 17 67  1  0
 18 19  1  0
 18 68  1  0
 18 69  1  0
 19 44  1  0
 19 20  1  1
 19 21  1  0
 20 70  1  0
 20 71  1  0
 20 72  1  0
 21 22  1  0
 21 73  1  1
 22 23  2  3
 22 25  1  0
 23 24  1  0
 25 26  1  0
 25 74  1  0
 25 75  1  0
 26 44  1  0
 26 27  1  6
 26 28  1  0
 27 76  1  0
 27 77  1  0
 27 78  1  0
 28 38  1  0
 28 29  1  0
 28 79  1  6
 29 30  2  0
 29 31  1  0
 31 32  1  0
 31 80  1  0
 31 81  1  0
 32 33  1  0
 32 38  1  0
 32 82  1  1
 33 37  2  0
 33 34  1  0
 34 35  2  0
 34 83  1  0
 35 36  1  0
 35 84  1  0
 36 37  1  0
 37 85  1  0
 38 39  1  6
 38 40  1  0
 39 86  1  0
 39 87  1  0
 39 88  1  0
 40 41  2  0
 40 89  1  0
 41 42  1  0
 41 90  1  0
 42 43  2  0
 42 44  1  0
 44 91  1  1
M  END
>  <i_m_ct_stereo_status>  (244) 
1

>  <s_m_source_file>  (244) 
/var/tmp/pbs.5076255.sched01/tmp4185l44a/86vs10_z9v.sdf

>  <i_m_source_file_index>  (244) 
17

>  <i_lp_mmshare_version>  (244) 
48012

>  <i_f3d_flags>  (244) 
0

>  <s_epik_input>  (244) 
W0NIXTE9W0NIXUMoPU8pQyhbQ0gzXSkoW0NIM10pW0NASF0oW0NAXTEyW0NIM10pW0NIMl1bQ0BASF0oW09IXSlbQ0BAXTMoW0NIM10pW0NASF00W0NAQF0oW0NIM10pKFtDSDJdW0NIMl1bQ0gyXTMpW0NASF01W0NAQF0oW0NIM10pKFtDSDJdQ1w0PU5cTzIpW0NASF02W0NAQF0oW0NIM10pKFtDSF09W0NIXUM1PU8pW0NAQEhdKFtDSDJdQzY9TyljN1tjSF1bY0hdb1tjSF03

>  <s_epik_cmdline>  (244) 
J2VwaWtfcHl0aG9uJywgJy1waHQnLCAnMi4wJywgJy1waCcsICc3LjAnLCAnLXRuJywgJzgnLCAnLW1hJywgJzIwMCcsICctaW1hZScsICc8aW5maWxlLm1hZT4nLCAnLW9tYWUnLCAnPG91dGZpbGUubWFlPic=

>  <r_lp_tautomer_probability>  (244) 
1

>  <r_epik_Ionization_Penalty>  (244) 
2.94445e-07

>  <r_epik_Ionization_Penalty_Charging>  (244) 
0

>  <r_epik_Ionization_Penalty_Neutral>  (244) 
2.94445e-07

>  <r_epik_State_Penalty>  (244) 
-0

>  <r_epik_Charging_Adjusted_Penalty>  (244) 
0

>  <i_epik_Tot_Q>  (244) 
0

>  <i_epik_Tot_abs_Q>  (244) 
0

>  <s_epik_Chemistry_Notes>  (244) 
This compound has an imine and may undergo hydrolysis.

>  <s_lp_Force_Field>  (244) 
OPLS3e

>  <r_lp_Energy>  (244) 
133.078

>  <b_lp_Chiralities_Consistent>  (244) 
1

>  <s_lp_Variant>  (244) 
70:0-2

>  <s_i_glide_gridfile>  (244) 
pfpi4k_grid

>  <i_i_glide_lignum>  (244) 
17

>  <i_i_glide_rotatable_bonds>  (244) 
2

>  <r_i_docking_score>  (244) 
-3.04438

>  <r_i_glide_ligand_efficiency>  (244) 
-0.0691905

>  <r_i_glide_ligand_efficiency_sa>  (244) 
-0.244267

>  <r_i_glide_ligand_efficiency_ln>  (244) 
-0.636342

>  <r_i_glide_gscore>  (244) 
-3.04438

>  <r_i_glide_lipo>  (244) 
-0.49826

>  <r_i_glide_hbond>  (244) 
-0.0148377

>  <r_i_glide_metal>  (244) 
-0

>  <r_i_glide_rewards>  (244) 
-0.00338599

>  <r_i_glide_evdw>  (244) 
-36.4138

>  <r_i_glide_ecoul>  (244) 
-4.1925

>  <r_i_glide_erotb>  (244) 
0.0580147

>  <r_i_glide_esite>  (244) 
-0.136346

>  <r_i_glide_emodel>  (244) 
-48.3244

>  <r_i_glide_energy>  (244) 
-40.6063

>  <r_i_glide_einternal>  (244) 
0.505807

>  <r_i_glide_intrahb_reward>  (244) 
-0

>  <i_i_glide_confnum>  (244) 
2

>  <i_i_glide_posenum>  (244) 
37

>  <r_i_glide_eff_state_penalty>  (244) 
0

>  <ligand_id>  (244) 
70

>  <original_smiles>  (244) 
CC12C=CC(=O)C(C)(C)C1CC(O)C1(C)CCCC3(C)C1C(=NO2)CC1(C)C2C(=O)CC(c4ccoc4)C2(C)C=CC(=O)C13

>  <smiles>  (244) 
[H]OC1([H])C([H])([H])C2([H])C(C([H])([H])[H])(ON=C3C([H])([H])C4(C([H])([H])[H])C5([H])C(=O)C([H])([H])C([H])(c6c([H])oc([H])c6[H])C5(C([H])([H])[H])C([H])=C([H])C(=O)C4([H])C4(C([H])([H])[H])C([H])([H])C([H])([H])C([H])([H])C1(C([H])([H])[H])C34[H])C([H])=C([H])C(=O)C2(C([H])([H])[H])C([H])([H])[H]

$$$$
71:1:0
     RDKit          3D

 72 78  0  0  1  0  0  0  0  0999 V2000
   -3.2809    3.2250    8.4338 C   0  0  0  0  0  0  0  0  0  0  0  0
   -2.5257    3.0347    7.4922 C   0  0  0  0  0  0  0  0  0  0  0  0
   -1.6213    2.8019    6.3394 C   0  0  1  0  0  0  0  0  0  0  0  0
   -2.4270    2.6309    5.1865 O   0  0  0  0  0  0  0  0  0  0  0  0
   -0.7714    4.0402    6.0226 C   0  0  0  0  0  0  0  0  0  0  0  0
    0.3653    3.5091    5.1490 C   0  0  0  0  0  0  0  0  0  0  0  0
    0.7479    2.1837    5.8200 C   0  0  2  0  0  0  0  0  0  0  0  0
    1.4784    1.2213    4.8730 C   0  0  0  0  0  0  0  0  0  0  0  0
    0.8533    0.2022    4.2449 C   0  0  0  0  0  0  0  0  0  0  0  0
   -0.6494    0.0631    4.4209 C   0  0  0  0  0  0  0  0  0  0  0  0
   -1.0309    0.2750    5.8939 C   0  0  0  0  0  0  0  0  0  0  0  0
   -0.5590    1.6354    6.4895 C   0  0  2  0  0  0  0  0  0  0  0  0
   -0.2167    1.3517    7.9793 C   0  0  0  0  0  0  0  0  0  0  0  0
    1.6176   -0.7181    3.3931 C   0  0  0  0  0  0  0  0  0  0  0  0
    2.7900   -0.3119    2.8665 C   0  0  0  0  0  0  0  0  0  0  0  0
    3.4586    0.9857    3.3028 C   0  0  0  0  0  0  0  0  0  0  0  0
    2.9746    1.4254    4.7071 C   0  0  0  0  0  0  0  0  0  0  0  0
    3.6507   -1.2127    2.0067 N   0  0  2  0  0  0  0  0  0  0  0  0
    4.5912   -0.6047    1.0145 C   0  0  1  0  0  0  0  0  0  0  0  0
    6.0212   -1.1132    1.3301 C   0  0  0  0  0  0  0  0  0  0  0  0
    6.2478   -2.5737    0.8558 C   0  0  2  0  0  0  0  0  0  0  0  0
    5.9627   -2.6729   -0.6325 C   0  0  0  0  0  0  0  0  0  0  0  0
    4.4289   -2.4968   -0.6785 C   0  0  2  0  0  0  0  0  0  0  0  0
    3.8164   -2.8768   -2.0665 C   0  0  0  0  0  0  0  0  0  0  0  0
    4.5583   -3.8465   -2.7843 O   0  0  0  0  0  0  0  0  0  0  0  0
    4.2011   -0.9737   -0.4361 C   0  0  0  0  0  0  0  0  0  0  0  0
    3.9143   -3.2982    0.5975 C   0  0  1  0  0  0  0  0  0  0  0  0
    3.2727   -4.6530    0.2230 C   0  0  0  0  0  0  0  0  0  0  0  0
    5.2137   -3.5553    1.4145 C   0  0  0  0  0  0  0  0  0  0  0  0
    2.9399   -2.4084    1.4535 C   0  0  1  0  0  0  0  0  0  0  0  0
    2.2069   -3.0923    2.6216 C   0  0  0  0  0  0  0  0  0  0  0  0
    1.1308   -2.1440    3.1829 C   0  0  0  0  0  0  0  0  0  0  0  0
   -3.9455    3.3939    9.2542 H   0  0  0  0  0  0  0  0  0  0  0  0
   -1.8705    2.5482    4.4266 H   0  0  0  0  0  0  0  0  0  0  0  0
   -1.3295    4.8433    5.5378 H   0  0  0  0  0  0  0  0  0  0  0  0
   -0.3448    4.4529    6.9382 H   0  0  0  0  0  0  0  0  0  0  0  0
    0.0079    3.3450    4.1291 H   0  0  0  0  0  0  0  0  0  0  0  0
    1.1996    4.2091    5.0900 H   0  0  0  0  0  0  0  0  0  0  0  0
    1.4616    2.4317    6.6081 H   0  0  0  0  0  0  0  0  0  0  0  0
   -1.1301    0.7990    3.7739 H   0  0  0  0  0  0  0  0  0  0  0  0
   -1.0048   -0.9107    4.0887 H   0  0  0  0  0  0  0  0  0  0  0  0
   -2.1025    0.1514    6.0187 H   0  0  0  0  0  0  0  0  0  0  0  0
   -0.5709   -0.5461    6.4528 H   0  0  0  0  0  0  0  0  0  0  0  0
    0.6230    0.6573    8.0545 H   0  0  0  0  0  0  0  0  0  0  0  0
   -1.0552    0.8979    8.5130 H   0  0  0  0  0  0  0  0  0  0  0  0
    0.0665    2.2623    8.5123 H   0  0  0  0  0  0  0  0  0  0  0  0
    4.5456    0.9015    3.3182 H   0  0  0  0  0  0  0  0  0  0  0  0
    3.1954    1.7619    2.5829 H   0  0  0  0  0  0  0  0  0  0  0  0
    3.2515    2.4640    4.8927 H   0  0  0  0  0  0  0  0  0  0  0  0
    3.4764    0.8301    5.4734 H   0  0  0  0  0  0  0  0  0  0  0  0
    4.5855    0.4787    1.0843 H   0  0  0  0  0  0  0  0  0  0  0  0
    6.7349   -0.4777    0.8119 H   0  0  0  0  0  0  0  0  0  0  0  0
    6.2408   -1.0237    2.3948 H   0  0  0  0  0  0  0  0  0  0  0  0
    7.2671   -2.8920    1.0834 H   0  0  0  0  0  0  0  0  0  0  0  0
    6.5016   -1.9407   -1.2373 H   0  0  0  0  0  0  0  0  0  0  0  0
    6.2770   -3.6628   -0.9580 H   0  0  0  0  0  0  0  0  0  0  0  0
    2.7779   -3.2004   -1.9879 H   0  0  0  0  0  0  0  0  0  0  0  0
    3.7952   -2.0107   -2.7264 H   0  0  0  0  0  0  0  0  0  0  0  0
    4.1443   -4.6976   -2.6597 H   0  0  0  0  0  0  0  0  0  0  0  0
    3.1637   -0.6908   -0.6256 H   0  0  0  0  0  0  0  0  0  0  0  0
    4.7872   -0.3794   -1.1392 H   0  0  0  0  0  0  0  0  0  0  0  0
    3.1027   -5.2830    1.0963 H   0  0  0  0  0  0  0  0  0  0  0  0
    3.9234   -5.2201   -0.4395 H   0  0  0  0  0  0  0  0  0  0  0  0
    2.3114   -4.5365   -0.2775 H   0  0  0  0  0  0  0  0  0  0  0  0
    5.5719   -4.5663    1.2210 H   0  0  0  0  0  0  0  0  0  0  0  0
    5.0943   -3.4758    2.4968 H   0  0  0  0  0  0  0  0  0  0  0  0
    2.1564   -2.0573    0.7849 H   0  0  0  0  0  0  0  0  0  0  0  0
    1.7225   -4.0060    2.2919 H   0  0  0  0  0  0  0  0  0  0  0  0
    2.9129   -3.3773    3.4109 H   0  0  0  0  0  0  0  0  0  0  0  0
    0.7304   -2.5604    4.1112 H   0  0  0  0  0  0  0  0  0  0  0  0
    0.3043   -2.0849    2.4798 H   0  0  0  0  0  0  0  0  0  0  0  0
    4.3046   -1.6377    2.6531 H   0  0  0  0  0  0  0  0  0  0  0  0
  1  2  3  0
  1 33  1  0
  3  2  1  1
  3 12  1  0
  3  4  1  0
  3  5  1  0
  4 34  1  0
  5  6  1  0
  5 35  1  0
  5 36  1  0
  6  7  1  0
  6 37  1  0
  6 38  1  0
  7 12  1  0
  7  8  1  0
  7 39  1  1
  8 17  1  0
  8  9  2  0
  9 10  1  0
  9 14  1  0
 10 11  1  0
 10 40  1  0
 10 41  1  0
 11 12  1  0
 11 42  1  0
 11 43  1  0
 12 13  1  1
 13 44  1  0
 13 45  1  0
 13 46  1  0
 14 32  1  0
 14 15  2  0
 15 16  1  0
 15 18  1  0
 16 17  1  0
 16 47  1  0
 16 48  1  0
 17 49  1  0
 17 50  1  0
 18 30  1  0
 18 19  1  0
 18 72  1  1
 19 26  1  0
 19 20  1  0
 19 51  1  6
 20 21  1  0
 20 52  1  0
 20 53  1  0
 21 29  1  0
 21 22  1  0
 21 54  1  6
 22 23  1  0
 22 55  1  0
 22 56  1  0
 23 24  1  6
 23 26  1  0
 23 27  1  0
 24 25  1  0
 24 57  1  0
 24 58  1  0
 25 59  1  0
 26 60  1  0
 26 61  1  0
 27 28  1  6
 27 29  1  0
 27 30  1  0
 28 62  1  0
 28 63  1  0
 28 64  1  0
 29 65  1  0
 29 66  1  0
 30 31  1  0
 30 67  1  6
 31 32  1  0
 31 68  1  0
 31 69  1  0
 32 70  1  0
 32 71  1  0
M  CHG  1  18   1
M  END
>  <i_m_ct_stereo_status>  (245) 
1

>  <s_m_source_file>  (245) 
/var/tmp/pbs.5076255.sched01/tmp4185l44a/86vs10_z9v.sdf

>  <i_m_source_file_index>  (245) 
19

>  <i_lp_mmshare_version>  (245) 
48012

>  <i_f3d_flags>  (245) 
0

>  <s_epik_input>  (245) 
W0NIXSNDW0NAQF0xKFtPSF0pW0NIMl1bQ0gyXVtDQEBIXShbQ0BAXTEyW0NIM10pQzM9QyhbQ0gyXVtDSDJdMilDND1DKFtDSDJdW0NIMl0zKU41W0NASF02W0NIMl1bQ0BASF03W0NIMl1bQ0BAXShbQ0gyXTYpKFtDSDJdW09IXSlbQ0BAXShbQ0gzXSkoW0NIMl03KVtDQEhdNVtDSDJdW0NIMl00

>  <s_epik_cmdline>  (245) 
J2VwaWtfcHl0aG9uJywgJy1waHQnLCAnMi4wJywgJy1waCcsICc3LjAnLCAnLXRuJywgJzgnLCAnLW1hJywgJzIwMCcsICctaW1hZScsICc8aW5maWxlLm1hZT4nLCAnLW9tYWUnLCAnPG91dGZpbGUubWFlPic=

>  <r_epik_Ionization_Penalty>  (245) 
0.677737

>  <r_epik_Ionization_Penalty_Charging>  (245) 
0.677735

>  <r_epik_Ionization_Penalty_Neutral>  (245) 
2.56697e-06

>  <r_epik_State_Penalty>  (245) 
0.698492

>  <r_epik_Charging_Adjusted_Penalty>  (245) 
1.37623

>  <i_epik_Tot_Q>  (245) 
1

>  <i_epik_Tot_abs_Q>  (245) 
1

>  <s_lp_Force_Field>  (245) 
OPLS3e

>  <r_lp_Energy>  (245) 
89.1422

>  <b_lp_Chiralities_Consistent>  (245) 
1

>  <s_lp_Variant>  (245) 
71:0-2

>  <s_i_glide_gridfile>  (245) 
pfpi4k_grid

>  <i_i_glide_lignum>  (245) 
19

>  <i_i_glide_rotatable_bonds>  (245) 
4

>  <r_i_docking_score>  (245) 
-3.71353

>  <r_i_glide_ligand_efficiency>  (245) 
-0.116048

>  <r_i_glide_ligand_efficiency_sa>  (245) 
-0.368429

>  <r_i_glide_ligand_efficiency_ln>  (245) 
-0.831561

>  <r_i_glide_gscore>  (245) 
-3.71353

>  <r_i_glide_lipo>  (245) 
-0.652133

>  <r_i_glide_hbond>  (245) 
-0.32

>  <r_i_glide_metal>  (245) 
-0

>  <r_i_glide_rewards>  (245) 
-0.445681

>  <r_i_glide_evdw>  (245) 
-25.5563

>  <r_i_glide_ecoul>  (245) 
-8.14768

>  <r_i_glide_erotb>  (245) 
0.210871

>  <r_i_glide_esite>  (245) 
-0.00662224

>  <r_i_glide_emodel>  (245) 
-36.9409

>  <r_i_glide_energy>  (245) 
-33.704

>  <r_i_glide_einternal>  (245) 
6.56132

>  <r_i_glide_intrahb_reward>  (245) 
-0

>  <i_i_glide_confnum>  (245) 
3

>  <i_i_glide_posenum>  (245) 
17

>  <r_i_glide_eff_state_penalty>  (245) 
0

>  <ligand_id>  (245) 
71

>  <original_smiles>  (245) 
C#CC1(O)CCC2C3=C(CCC21C)C1=C(CC3)N2C3CC4CC(CO)(C3)C(C)(C4)C2CC1

>  <smiles>  (245) 
[H]C#CC1(O[H])C([H])([H])C([H])([H])C2([H])C3=C(C4=C(C([H])([H])C3([H])[H])[N+]3([H])C5([H])C([H])([H])C6([H])C([H])([H])C(C([H])([H])O[H])(C5([H])[H])C(C([H])([H])[H])(C6([H])[H])C3([H])C([H])([H])C4([H])[H])C([H])([H])C([H])([H])C12C([H])([H])[H]

$$$$
71:1:1
     RDKit          3D

 72 78  0  0  1  0  0  0  0  0999 V2000
   -3.1370    3.3288    8.1300 C   0  0  0  0  0  0  0  0  0  0  0  0
   -2.3768    3.0899    7.2028 C   0  0  0  0  0  0  0  0  0  0  0  0
   -1.4632    2.8020    6.0718 C   0  0  1  0  0  0  0  0  0  0  0  0
   -2.2542    2.5464    4.9258 O   0  0  0  0  0  0  0  0  0  0  0  0
   -0.6271    4.0347    5.6984 C   0  0  0  0  0  0  0  0  0  0  0  0
    0.5238    3.4734    4.8629 C   0  0  0  0  0  0  0  0  0  0  0  0
    0.9155    2.1877    5.6043 C   0  0  2  0  0  0  0  0  0  0  0  0
    1.6616    1.1845    4.7147 C   0  0  0  0  0  0  0  0  0  0  0  0
    1.0565    0.1303    4.1339 C   0  0  0  0  0  0  0  0  0  0  0  0
   -0.4459   -0.0162    4.3044 C   0  0  0  0  0  0  0  0  0  0  0  0
   -0.8410    0.2643    5.7613 C   0  0  0  0  0  0  0  0  0  0  0  0
   -0.3906    1.6586    6.2906 C   0  0  2  0  0  0  0  0  0  0  0  0
   -0.0608    1.4529    7.7952 C   0  0  0  0  0  0  0  0  0  0  0  0
    1.8360   -0.8237    3.3372 C   0  0  0  0  0  0  0  0  0  0  0  0
    3.0118   -0.4300    2.8022 C   0  0  0  0  0  0  0  0  0  0  0  0
    3.6609    0.8929    3.1846 C   0  0  0  0  0  0  0  0  0  0  0  0
    3.1579    1.3995    4.5551 C   0  0  0  0  0  0  0  0  0  0  0  0
    3.8871   -1.3621    1.9916 N   0  0  2  0  0  0  0  0  0  0  0  0
    4.8280   -0.7916    0.9792 C   0  0  1  0  0  0  0  0  0  0  0  0
    6.2627   -1.2736    1.3239 C   0  0  0  0  0  0  0  0  0  0  0  0
    6.5032   -2.7532    0.9200 C   0  0  2  0  0  0  0  0  0  0  0  0
    6.2110   -2.9318   -0.5632 C   0  0  0  0  0  0  0  0  0  0  0  0
    4.6822   -2.7541   -0.6085 C   0  0  2  0  0  0  0  0  0  0  0  0
    4.1317   -3.2441   -1.9741 C   0  0  0  0  0  0  0  0  0  0  0  0
    2.7222   -3.2169   -2.0461 O   0  0  0  0  0  0  0  0  0  0  0  0
    4.4515   -1.2234   -0.4568 C   0  0  0  0  0  0  0  0  0  0  0  0
    4.1822   -3.5111    0.6977 C   0  0  1  0  0  0  0  0  0  0  0  0
    3.5715   -4.9015    0.3902 C   0  0  0  0  0  0  0  0  0  0  0  0
    5.4804   -3.7128    1.5290 C   0  0  0  0  0  0  0  0  0  0  0  0
    3.1912   -2.5898    1.4921 C   0  0  1  0  0  0  0  0  0  0  0  0
    2.4574   -3.2257    2.6867 C   0  0  0  0  0  0  0  0  0  0  0  0
    1.3672   -2.2631    3.1896 C   0  0  0  0  0  0  0  0  0  0  0  0
   -3.8091    3.5470    8.9315 H   0  0  0  0  0  0  0  0  0  0  0  0
   -1.7038    2.5562    4.1568 H   0  0  0  0  0  0  0  0  0  0  0  0
   -1.1903    4.8096    5.1736 H   0  0  0  0  0  0  0  0  0  0  0  0
   -0.2121    4.4957    6.5964 H   0  0  0  0  0  0  0  0  0  0  0  0
    0.1778    3.2547    3.8496 H   0  0  0  0  0  0  0  0  0  0  0  0
    1.3509    4.1793    4.7764 H   0  0  0  0  0  0  0  0  0  0  0  0
    1.6171    2.4834    6.3865 H   0  0  0  0  0  0  0  0  0  0  0  0
   -0.9269    0.6820    3.6170 H   0  0  0  0  0  0  0  0  0  0  0  0
   -0.7871   -1.0099    4.0224 H   0  0  0  0  0  0  0  0  0  0  0  0
   -1.9136    0.1347    5.8824 H   0  0  0  0  0  0  0  0  0  0  0  0
   -0.3786   -0.5217    6.3654 H   0  0  0  0  0  0  0  0  0  0  0  0
    0.7859    0.7740    7.9117 H   0  0  0  0  0  0  0  0  0  0  0  0
   -0.9003    1.0155    8.3398 H   0  0  0  0  0  0  0  0  0  0  0  0
    0.2070    2.3918    8.2865 H   0  0  0  0  0  0  0  0  0  0  0  0
    4.7457    0.8107    3.2329 H   0  0  0  0  0  0  0  0  0  0  0  0
    3.4020    1.6288    2.4221 H   0  0  0  0  0  0  0  0  0  0  0  0
    3.4239    2.4484    4.6886 H   0  0  0  0  0  0  0  0  0  0  0  0
    3.6590    0.8502    5.3540 H   0  0  0  0  0  0  0  0  0  0  0  0
    4.8142    0.2944    1.0028 H   0  0  0  0  0  0  0  0  0  0  0  0
    6.9829   -0.6539    0.7944 H   0  0  0  0  0  0  0  0  0  0  0  0
    6.4726   -1.1306    2.3855 H   0  0  0  0  0  0  0  0  0  0  0  0
    7.5233   -3.0528    1.1654 H   0  0  0  0  0  0  0  0  0  0  0  0
    6.7591   -2.2317   -1.1979 H   0  0  0  0  0  0  0  0  0  0  0  0
    6.4931   -3.9356   -0.8781 H   0  0  0  0  0  0  0  0  0  0  0  0
    4.5057   -2.6206   -2.7860 H   0  0  0  0  0  0  0  0  0  0  0  0
    4.4749   -4.2548   -2.1937 H   0  0  0  0  0  0  0  0  0  0  0  0
    2.4397   -4.0015   -2.5005 H   0  0  0  0  0  0  0  0  0  0  0  0
    3.4141   -0.9548   -0.6695 H   0  0  0  0  0  0  0  0  0  0  0  0
    5.0452   -0.6664   -1.1853 H   0  0  0  0  0  0  0  0  0  0  0  0
    3.4059   -5.4873    1.2941 H   0  0  0  0  0  0  0  0  0  0  0  0
    4.2316   -5.4916   -0.2447 H   0  0  0  0  0  0  0  0  0  0  0  0
    2.6095   -4.8322   -0.1155 H   0  0  0  0  0  0  0  0  0  0  0  0
    5.8521   -4.7282    1.3944 H   0  0  0  0  0  0  0  0  0  0  0  0
    5.3570   -3.5779    2.6045 H   0  0  0  0  0  0  0  0  0  0  0  0
    2.4080   -2.2850    0.7972 H   0  0  0  0  0  0  0  0  0  0  0  0
    1.9826   -4.1616    2.3987 H   0  0  0  0  0  0  0  0  0  0  0  0
    3.1598   -3.4630    3.4933 H   0  0  0  0  0  0  0  0  0  0  0  0
    0.9607   -2.6376    4.1341 H   0  0  0  0  0  0  0  0  0  0  0  0
    0.5553   -2.2494    2.4737 H   0  0  0  0  0  0  0  0  0  0  0  0
    4.5378   -1.7495    2.6617 H   0  0  0  0  0  0  0  0  0  0  0  0
  1  2  3  0
  1 33  1  0
  3  2  1  1
  3 12  1  0
  3  4  1  0
  3  5  1  0
  4 34  1  0
  5  6  1  0
  5 35  1  0
  5 36  1  0
  6  7  1  0
  6 37  1  0
  6 38  1  0
  7 12  1  0
  7  8  1  0
  7 39  1  1
  8 17  1  0
  8  9  2  0
  9 10  1  0
  9 14  1  0
 10 11  1  0
 10 40  1  0
 10 41  1  0
 11 12  1  0
 11 42  1  0
 11 43  1  0
 12 13  1  1
 13 44  1  0
 13 45  1  0
 13 46  1  0
 14 32  1  0
 14 15  2  0
 15 16  1  0
 15 18  1  0
 16 17  1  0
 16 47  1  0
 16 48  1  0
 17 49  1  0
 17 50  1  0
 18 30  1  0
 18 19  1  0
 18 72  1  1
 19 26  1  0
 19 20  1  0
 19 51  1  6
 20 21  1  0
 20 52  1  0
 20 53  1  0
 21 29  1  0
 21 22  1  0
 21 54  1  6
 22 23  1  0
 22 55  1  0
 22 56  1  0
 23 24  1  6
 23 26  1  0
 23 27  1  0
 24 25  1  0
 24 57  1  0
 24 58  1  0
 25 59  1  0
 26 60  1  0
 26 61  1  0
 27 28  1  6
 27 29  1  0
 27 30  1  0
 28 62  1  0
 28 63  1  0
 28 64  1  0
 29 65  1  0
 29 66  1  0
 30 31  1  0
 30 67  1  6
 31 32  1  0
 31 68  1  0
 31 69  1  0
 32 70  1  0
 32 71  1  0
M  CHG  1  18   1
M  END
>  <i_m_ct_stereo_status>  (246) 
1

>  <s_m_source_file>  (246) 
/var/tmp/pbs.5076255.sched01/tmp4185l44a/86vs10_z9v.sdf

>  <i_m_source_file_index>  (246) 
19

>  <i_lp_mmshare_version>  (246) 
48012

>  <i_f3d_flags>  (246) 
0

>  <s_epik_input>  (246) 
W0NIXSNDW0NAQF0xKFtPSF0pW0NIMl1bQ0gyXVtDQEBIXShbQ0BAXTEyW0NIM10pQzM9QyhbQ0gyXVtDSDJdMilDND1DKFtDSDJdW0NIMl0zKU41W0NASF02W0NIMl1bQ0BASF03W0NIMl1bQ0BAXShbQ0gyXTYpKFtDSDJdW09IXSlbQ0BAXShbQ0gzXSkoW0NIMl03KVtDQEhdNVtDSDJdW0NIMl00

>  <s_epik_cmdline>  (246) 
J2VwaWtfcHl0aG9uJywgJy1waHQnLCAnMi4wJywgJy1waCcsICc3LjAnLCAnLXRuJywgJzgnLCAnLW1hJywgJzIwMCcsICctaW1hZScsICc8aW5maWxlLm1hZT4nLCAnLW9tYWUnLCAnPG91dGZpbGUubWFlPic=

>  <r_epik_Ionization_Penalty>  (246) 
0.677737

>  <r_epik_Ionization_Penalty_Charging>  (246) 
0.677735

>  <r_epik_Ionization_Penalty_Neutral>  (246) 
2.56697e-06

>  <r_epik_State_Penalty>  (246) 
0.698492

>  <r_epik_Charging_Adjusted_Penalty>  (246) 
1.37623

>  <i_epik_Tot_Q>  (246) 
1

>  <i_epik_Tot_abs_Q>  (246) 
1

>  <s_lp_Force_Field>  (246) 
OPLS3e

>  <r_lp_Energy>  (246) 
89.1422

>  <b_lp_Chiralities_Consistent>  (246) 
1

>  <s_lp_Variant>  (246) 
71:0-2

>  <s_i_glide_gridfile>  (246) 
pfpi4k_grid

>  <i_i_glide_lignum>  (246) 
19

>  <i_i_glide_rotatable_bonds>  (246) 
4

>  <r_i_docking_score>  (246) 
-3.13396

>  <r_i_glide_ligand_efficiency>  (246) 
-0.0979361

>  <r_i_glide_ligand_efficiency_sa>  (246) 
-0.310928

>  <r_i_glide_ligand_efficiency_ln>  (246) 
-0.701778

>  <r_i_glide_gscore>  (246) 
-3.13396

>  <r_i_glide_lipo>  (246) 
-0.709005

>  <r_i_glide_hbond>  (246) 
-0.175552

>  <r_i_glide_metal>  (246) 
-0

>  <r_i_glide_rewards>  (246) 
-0.445681

>  <r_i_glide_evdw>  (246) 
-26.0808

>  <r_i_glide_ecoul>  (246) 
-4.70153

>  <r_i_glide_erotb>  (246) 
0.210871

>  <r_i_glide_esite>  (246) 
-0.00531659

>  <r_i_glide_emodel>  (246) 
-35.5023

>  <r_i_glide_energy>  (246) 
-30.7824

>  <r_i_glide_einternal>  (246) 
2.69298

>  <r_i_glide_intrahb_reward>  (246) 
-0

>  <i_i_glide_confnum>  (246) 
1

>  <i_i_glide_posenum>  (246) 
40

>  <r_i_glide_eff_state_penalty>  (246) 
0

>  <ligand_id>  (246) 
71

>  <original_smiles>  (246) 
C#CC1(O)CCC2C3=C(CCC21C)C1=C(CC3)N2C3CC4CC(CO)(C3)C(C)(C4)C2CC1

>  <smiles>  (246) 
[H]C#CC1(O[H])C([H])([H])C([H])([H])C2([H])C3=C(C4=C(C([H])([H])C3([H])[H])[N+]3([H])C5([H])C([H])([H])C6([H])C([H])([H])C(C([H])([H])O[H])(C5([H])[H])C(C([H])([H])[H])(C6([H])[H])C3([H])C([H])([H])C4([H])[H])C([H])([H])C([H])([H])C12C([H])([H])[H]

$$$$
71:1:2
     RDKit          3D

 72 78  0  0  1  0  0  0  0  0999 V2000
   -2.6403    3.5765    9.0824 C   0  0  0  0  0  0  0  0  0  0  0  0
   -2.2221    3.0145    8.0874 C   0  0  0  0  0  0  0  0  0  0  0  0
   -1.7290    2.3258    6.8708 C   0  0  1  0  0  0  0  0  0  0  0  0
   -2.3005    1.0252    6.8323 O   0  0  0  0  0  0  0  0  0  0  0  0
   -2.2236    3.0378    5.5972 C   0  0  0  0  0  0  0  0  0  0  0  0
   -1.3201    2.5041    4.4847 C   0  0  0  0  0  0  0  0  0  0  0  0
    0.0720    2.4704    5.1317 C   0  0  2  0  0  0  0  0  0  0  0  0
    1.0364    1.4984    4.4349 C   0  0  0  0  0  0  0  0  0  0  0  0
    1.2812    0.2605    4.8969 C   0  0  0  0  0  0  0  0  0  0  0  0
    0.5058   -0.2204    6.1171 C   0  0  0  0  0  0  0  0  0  0  0  0
    0.4516    0.8917    7.1727 C   0  0  0  0  0  0  0  0  0  0  0  0
   -0.1642    2.2289    6.6640 C   0  0  2  0  0  0  0  0  0  0  0  0
    0.5922    3.3553    7.4214 C   0  0  0  0  0  0  0  0  0  0  0  0
    2.2532   -0.6108    4.2229 C   0  0  0  0  0  0  0  0  0  0  0  0
    2.5501   -0.3685    2.9268 C   0  0  0  0  0  0  0  0  0  0  0  0
    2.0778    0.8848    2.1979 C   0  0  0  0  0  0  0  0  0  0  0  0
    1.7623    2.0220    3.2016 C   0  0  0  0  0  0  0  0  0  0  0  0
    3.5685   -1.2026    2.1584 N   0  0  2  0  0  0  0  0  0  0  0  0
    3.4633   -1.3057    0.6891 C   0  0  1  0  0  0  0  0  0  0  0  0
    4.7954   -0.8206    0.0559 C   0  0  0  0  0  0  0  0  0  0  0  0
    5.9276   -1.8793    0.1918 C   0  0  2  0  0  0  0  0  0  0  0  0
    5.4830   -3.1925   -0.4346 C   0  0  0  0  0  0  0  0  0  0  0  0
    4.3929   -3.6522    0.5505 C   0  0  2  0  0  0  0  0  0  0  0  0
    4.0446   -5.1425    0.3129 C   0  0  0  0  0  0  0  0  0  0  0  0
    3.0263   -5.5782    1.1938 O   0  0  0  0  0  0  0  0  0  0  0  0
    3.1628   -2.7520    0.2291 C   0  0  0  0  0  0  0  0  0  0  0  0
    4.9861   -3.2793    1.9703 C   0  0  1  0  0  0  0  0  0  0  0  0
    5.5381   -4.5131    2.7266 C   0  0  0  0  0  0  0  0  0  0  0  0
    6.1578   -2.3203    1.6356 C   0  0  0  0  0  0  0  0  0  0  0  0
    3.9044   -2.4937    2.8027 C   0  0  1  0  0  0  0  0  0  0  0  0
    4.2343   -2.2336    4.2871 C   0  0  0  0  0  0  0  0  0  0  0  0
    2.9765   -1.7052    4.9988 C   0  0  0  0  0  0  0  0  0  0  0  0
   -3.0031    4.0441    9.9769 H   0  0  0  0  0  0  0  0  0  0  0  0
   -2.6377    0.8984    5.9615 H   0  0  0  0  0  0  0  0  0  0  0  0
   -3.2882    2.9218    5.3888 H   0  0  0  0  0  0  0  0  0  0  0  0
   -2.0533    4.1131    5.6809 H   0  0  0  0  0  0  0  0  0  0  0  0
   -1.6442    1.5017    4.1918 H   0  0  0  0  0  0  0  0  0  0  0  0
   -1.3493    3.1269    3.5877 H   0  0  0  0  0  0  0  0  0  0  0  0
    0.4968    3.4657    5.0012 H   0  0  0  0  0  0  0  0  0  0  0  0
   -0.4895   -0.5068    5.7767 H   0  0  0  0  0  0  0  0  0  0  0  0
    0.9499   -1.1135    6.5512 H   0  0  0  0  0  0  0  0  0  0  0  0
   -0.0806    0.5386    8.0589 H   0  0  0  0  0  0  0  0  0  0  0  0
    1.4746    1.0592    7.5085 H   0  0  0  0  0  0  0  0  0  0  0  0
    1.6491    3.3542    7.1497 H   0  0  0  0  0  0  0  0  0  0  0  0
    0.5440    3.2208    8.5033 H   0  0  0  0  0  0  0  0  0  0  0  0
    0.1978    4.3467    7.1824 H   0  0  0  0  0  0  0  0  0  0  0  0
    2.8077    1.2452    1.4748 H   0  0  0  0  0  0  0  0  0  0  0  0
    1.1667    0.6387    1.6481 H   0  0  0  0  0  0  0  0  0  0  0  0
    1.1909    2.8122    2.7107 H   0  0  0  0  0  0  0  0  0  0  0  0
    2.6949    2.4813    3.5385 H   0  0  0  0  0  0  0  0  0  0  0  0
    2.6584   -0.6747    0.3010 H   0  0  0  0  0  0  0  0  0  0  0  0
    4.6381   -0.6101   -1.0018 H   0  0  0  0  0  0  0  0  0  0  0  0
    5.1072    0.1253    0.5038 H   0  0  0  0  0  0  0  0  0  0  0  0
    6.8488   -1.5075   -0.2582 H   0  0  0  0  0  0  0  0  0  0  0  0
    5.1330   -3.0787   -1.4631 H   0  0  0  0  0  0  0  0  0  0  0  0
    6.3150   -3.9003   -0.4532 H   0  0  0  0  0  0  0  0  0  0  0  0
    3.6856   -5.2807   -0.6982 H   0  0  0  0  0  0  0  0  0  0  0  0
    4.9190   -5.7922    0.3976 H   0  0  0  0  0  0  0  0  0  0  0  0
    3.3884   -5.6454    2.0555 H   0  0  0  0  0  0  0  0  0  0  0  0
    2.2556   -3.1115    0.7255 H   0  0  0  0  0  0  0  0  0  0  0  0
    2.9230   -2.7822   -0.8369 H   0  0  0  0  0  0  0  0  0  0  0  0
    6.0966   -4.2402    3.6183 H   0  0  0  0  0  0  0  0  0  0  0  0
    6.2285   -5.0836    2.1049 H   0  0  0  0  0  0  0  0  0  0  0  0
    4.7548   -5.1911    3.0595 H   0  0  0  0  0  0  0  0  0  0  0  0
    7.0939   -2.8803    1.6469 H   0  0  0  0  0  0  0  0  0  0  0  0
    6.2778   -1.4871    2.3265 H   0  0  0  0  0  0  0  0  0  0  0  0
    3.0112   -3.1255    2.8247 H   0  0  0  0  0  0  0  0  0  0  0  0
    4.5573   -3.1412    4.7921 H   0  0  0  0  0  0  0  0  0  0  0  0
    5.0606   -1.5175    4.3749 H   0  0  0  0  0  0  0  0  0  0  0  0
    3.2606   -1.3408    5.9888 H   0  0  0  0  0  0  0  0  0  0  0  0
    2.2734   -2.5281    5.1465 H   0  0  0  0  0  0  0  0  0  0  0  0
    4.4342   -0.6846    2.2552 H   0  0  0  0  0  0  0  0  0  0  0  0
  1  2  3  0
  1 33  1  0
  3  2  1  1
  3 12  1  0
  3  4  1  0
  3  5  1  0
  4 34  1  0
  5  6  1  0
  5 35  1  0
  5 36  1  0
  6  7  1  0
  6 37  1  0
  6 38  1  0
  7 12  1  0
  7  8  1  0
  7 39  1  1
  8 17  1  0
  8  9  2  0
  9 10  1  0
  9 14  1  0
 10 11  1  0
 10 40  1  0
 10 41  1  0
 11 12  1  0
 11 42  1  0
 11 43  1  0
 12 13  1  1
 13 44  1  0
 13 45  1  0
 13 46  1  0
 14 32  1  0
 14 15  2  0
 15 16  1  0
 15 18  1  0
 16 17  1  0
 16 47  1  0
 16 48  1  0
 17 49  1  0
 17 50  1  0
 18 30  1  0
 18 19  1  0
 18 72  1  6
 19 26  1  0
 19 20  1  0
 19 51  1  6
 20 21  1  0
 20 52  1  0
 20 53  1  0
 21 29  1  0
 21 22  1  0
 21 54  1  6
 22 23  1  0
 22 55  1  0
 22 56  1  0
 23 24  1  1
 23 26  1  0
 23 27  1  0
 24 25  1  0
 24 57  1  0
 24 58  1  0
 25 59  1  0
 26 60  1  0
 26 61  1  0
 27 28  1  1
 27 29  1  0
 27 30  1  0
 28 62  1  0
 28 63  1  0
 28 64  1  0
 29 65  1  0
 29 66  1  0
 30 31  1  0
 30 67  1  1
 31 32  1  0
 31 68  1  0
 31 69  1  0
 32 70  1  0
 32 71  1  0
M  CHG  1  18   1
M  END
>  <i_m_ct_stereo_status>  (247) 
1

>  <s_m_source_file>  (247) 
/var/tmp/pbs.5076255.sched01/tmp4185l44a/86vs10_z9v.sdf

>  <i_m_source_file_index>  (247) 
19

>  <i_lp_mmshare_version>  (247) 
48012

>  <i_f3d_flags>  (247) 
0

>  <s_epik_input>  (247) 
W0NIXSNDW0NAQF0xKFtPSF0pW0NIMl1bQ0gyXVtDQEBIXShbQ0BAXTEyW0NIM10pQzM9QyhbQ0gyXVtDSDJdMilDND1DKFtDSDJdW0NIMl0zKU41W0NASF02W0NIMl1bQ0BASF03W0NIMl1bQ0BAXShbQ0gyXTYpKFtDSDJdW09IXSlbQ0BAXShbQ0gzXSkoW0NIMl03KVtDQEhdNVtDSDJdW0NIMl00

>  <s_epik_cmdline>  (247) 
J2VwaWtfcHl0aG9uJywgJy1waHQnLCAnMi4wJywgJy1waCcsICc3LjAnLCAnLXRuJywgJzgnLCAnLW1hJywgJzIwMCcsICctaW1hZScsICc8aW5maWxlLm1hZT4nLCAnLW9tYWUnLCAnPG91dGZpbGUubWFlPic=

>  <r_epik_Ionization_Penalty>  (247) 
0.677737

>  <r_epik_Ionization_Penalty_Charging>  (247) 
0.677735

>  <r_epik_Ionization_Penalty_Neutral>  (247) 
2.56697e-06

>  <r_epik_State_Penalty>  (247) 
0.698492

>  <r_epik_Charging_Adjusted_Penalty>  (247) 
1.37623

>  <i_epik_Tot_Q>  (247) 
1

>  <i_epik_Tot_abs_Q>  (247) 
1

>  <s_lp_Force_Field>  (247) 
OPLS3e

>  <r_lp_Energy>  (247) 
89.1422

>  <b_lp_Chiralities_Consistent>  (247) 
1

>  <s_lp_Variant>  (247) 
71:0-2

>  <s_i_glide_gridfile>  (247) 
pfpi4k_grid

>  <i_i_glide_lignum>  (247) 
19

>  <i_i_glide_rotatable_bonds>  (247) 
4

>  <r_i_docking_score>  (247) 
-2.83069

>  <r_i_glide_ligand_efficiency>  (247) 
-0.088459

>  <r_i_glide_ligand_efficiency_sa>  (247) 
-0.28084

>  <r_i_glide_ligand_efficiency_ln>  (247) 
-0.633868

>  <r_i_glide_gscore>  (247) 
-2.83069

>  <r_i_glide_lipo>  (247) 
-0.355527

>  <r_i_glide_hbond>  (247) 
-0.16

>  <r_i_glide_metal>  (247) 
-0

>  <r_i_glide_rewards>  (247) 
-0.445681

>  <r_i_glide_evdw>  (247) 
-22.3746

>  <r_i_glide_ecoul>  (247) 
-6.37702

>  <r_i_glide_erotb>  (247) 
0.210871

>  <r_i_glide_esite>  (247) 
-0.00506914

>  <r_i_glide_emodel>  (247) 
-33.591

>  <r_i_glide_energy>  (247) 
-28.7516

>  <r_i_glide_einternal>  (247) 
1.37421

>  <r_i_glide_intrahb_reward>  (247) 
-0

>  <i_i_glide_confnum>  (247) 
3

>  <i_i_glide_posenum>  (247) 
1

>  <r_i_glide_eff_state_penalty>  (247) 
0

>  <ligand_id>  (247) 
71

>  <original_smiles>  (247) 
C#CC1(O)CCC2C3=C(CCC21C)C1=C(CC3)N2C3CC4CC(CO)(C3)C(C)(C4)C2CC1

>  <smiles>  (247) 
[H]C#CC1(O[H])C([H])([H])C([H])([H])C2([H])C3=C(C4=C(C([H])([H])C3([H])[H])[N+]3([H])C5([H])C([H])([H])C6([H])C([H])([H])C(C([H])([H])O[H])(C5([H])[H])C(C([H])([H])[H])(C6([H])[H])C3([H])C([H])([H])C4([H])[H])C([H])([H])C([H])([H])C12C([H])([H])[H]

$$$$
72:0:0
     RDKit          3D

 22 25  0  0  1  0  0  0  0  0999 V2000
    3.8018   -0.6516   -4.7209 N   0  0  0  0  0  0  0  0  0  0  0  0
    3.8805   -0.9412   -3.6138 C   0  0  0  0  0  0  0  0  0  0  0  0
    3.9874   -1.3674   -2.2597 C   0  0  0  0  0  0  0  0  0  0  0  0
    3.2461   -2.4986   -1.9787 N   0  0  0  0  0  0  0  0  0  0  0  0
    3.7374   -3.4166   -0.9284 C   0  0  1  0  0  0  0  0  0  0  0  0
    4.9546   -3.8990   -1.0310 C   0  0  1  0  0  0  0  0  0  0  0  0
    5.7980   -2.9029   -2.1131 C   0  0  0  0  0  0  0  0  0  0  0  0
    5.1856   -1.4695   -1.6775 C   0  0  0  0  0  0  0  0  0  0  0  0
    5.0961   -1.3574   -0.0826 C   0  0  1  0  0  0  0  0  0  0  0  0
    3.9269   -1.7908    0.8968 C   0  0  0  0  0  0  0  0  0  0  0  0
    4.1904   -3.3676    0.5515 C   0  0  1  0  0  0  0  0  0  0  0  0
    5.1421   -2.8016    0.0640 C   0  0  1  0  0  0  0  0  0  0  0  0
    3.1096   -4.3425   -0.8732 H   0  0  0  0  0  0  0  0  0  0  0  0
    4.9498   -4.9779   -1.2231 H   0  0  0  0  0  0  0  0  0  0  0  0
    6.8824   -2.9408   -1.9648 H   0  0  0  0  0  0  0  0  0  0  0  0
    5.5917   -3.1470   -3.1554 H   0  0  0  0  0  0  0  0  0  0  0  0
    5.9538   -0.8851    0.3999 H   0  0  0  0  0  0  0  0  0  0  0  0
    4.1356   -1.5453    1.9436 H   0  0  0  0  0  0  0  0  0  0  0  0
    2.9472   -1.4071    0.5869 H   0  0  0  0  0  0  0  0  0  0  0  0
    4.4637   -3.9859    1.4137 H   0  0  0  0  0  0  0  0  0  0  0  0
    6.0235   -3.2314    0.6254 H   0  0  0  0  0  0  0  0  0  0  0  0
    2.3876   -2.7200   -2.4626 H   0  0  0  0  0  0  0  0  0  0  0  0
  1  2  3  0
  2  3  1  0
  3  8  2  0
  3  4  1  0
  4  5  1  0
  4 22  1  0
  5 12  1  0
  5  6  1  0
  5 13  1  1
  6 11  1  0
  6  7  1  0
  6 14  1  1
  7  8  1  0
  7 15  1  0
  7 16  1  0
  8  9  1  0
  9 12  1  0
  9 10  1  0
  9 17  1  1
 10 11  1  0
 10 18  1  0
 10 19  1  0
 11 12  1  0
 11 20  1  1
 12 21  1  6
M  END
>  <i_m_ct_stereo_status>  (248) 
1

>  <s_m_source_file>  (248) 
/var/tmp/pbs.5076255.sched01/tmp4185l44a/86vs10_z9v.sdf

>  <i_m_source_file_index>  (248) 
20

>  <i_lp_mmshare_version>  (248) 
48012

>  <i_f3d_flags>  (248) 
0

>  <s_epik_input>  (248) 
TiNDQyg9TjEpW0NASF0oW0NIMl0yKVtDQEBIXShbQ0gyXTMpW0NASF00W0NAQEhdM1tDQEhdMltDQEhdMTQ=

>  <s_epik_cmdline>  (248) 
J2VwaWtfcHl0aG9uJywgJy1waHQnLCAnMi4wJywgJy1waCcsICc3LjAnLCAnLXRuJywgJzgnLCAnLW1hJywgJzIwMCcsICctaW1hZScsICc8aW5maWxlLm1hZT4nLCAnLW9tYWUnLCAnPG91dGZpbGUubWFlPic=

>  <r_lp_tautomer_probability>  (248) 
1

>  <r_epik_Ionization_Penalty>  (248) 
2.3414e-06

>  <r_epik_Ionization_Penalty_Charging>  (248) 
4.59928e-13

>  <r_epik_Ionization_Penalty_Neutral>  (248) 
2.3414e-06

>  <r_epik_State_Penalty>  (248) 
-0

>  <r_epik_Charging_Adjusted_Penalty>  (248) 
4.59928e-13

>  <i_epik_Tot_Q>  (248) 
0

>  <i_epik_Tot_abs_Q>  (248) 
0

>  <s_epik_Chemistry_Notes>  (248) 
This compound has an imine and may undergo hydrolysis.

>  <s_lp_Force_Field>  (248) 
OPLS3e

>  <r_lp_Energy>  (248) 
449.135

>  <b_lp_Chiralities_Consistent>  (248) 
1

>  <s_lp_Variant>  (248) 
72:0-1

>  <s_i_glide_gridfile>  (248) 
pfpi4k_grid

>  <i_i_glide_lignum>  (248) 
20

>  <i_i_glide_rotatable_bonds>  (248) 
1

>  <r_i_docking_score>  (248) 
-4.26003

>  <r_i_glide_ligand_efficiency>  (248) 
-0.355003

>  <r_i_glide_ligand_efficiency_sa>  (248) 
-0.812754

>  <r_i_glide_ligand_efficiency_ln>  (248) 
-1.22242

>  <r_i_glide_gscore>  (248) 
-4.26003

>  <r_i_glide_lipo>  (248) 
-0.17765

>  <r_i_glide_hbond>  (248) 
-0.114208

>  <r_i_glide_metal>  (248) 
-0

>  <r_i_glide_rewards>  (248) 
-2.58425

>  <r_i_glide_evdw>  (248) 
-19.9185

>  <r_i_glide_ecoul>  (248) 
-2.30225

>  <r_i_glide_erotb>  (248) 
0

>  <r_i_glide_esite>  (248) 
-0.0426672

>  <r_i_glide_emodel>  (248) 
-27.6816

>  <r_i_glide_energy>  (248) 
-22.2207

>  <r_i_glide_einternal>  (248) 
-0.238168

>  <r_i_glide_intrahb_reward>  (248) 
-0

>  <i_i_glide_confnum>  (248) 
2

>  <i_i_glide_posenum>  (248) 
17

>  <r_i_glide_eff_state_penalty>  (248) 
0

>  <ligand_id>  (248) 
72

>  <original_smiles>  (248) 
N#CC1=NC2C3CC1C1CC3C12

>  <smiles>  (248) 
[H]N1C(C#N)=C2C([H])([H])C3([H])C1([H])C1([H])C2([H])C([H])([H])C31[H]

$$$$
72:0:1
     RDKit          3D

 22 25  0  0  1  0  0  0  0  0999 V2000
    2.1200   -5.4898    0.9198 N   0  0  0  0  0  0  0  0  0  0  0  0
    2.6771   -4.7894    0.1891 C   0  0  0  0  0  0  0  0  0  0  0  0
    3.2927   -3.8536   -0.6939 C   0  0  0  0  0  0  0  0  0  0  0  0
    3.0448   -2.5326   -0.3847 N   0  0  0  0  0  0  0  0  0  0  0  0
    4.0701   -1.5301   -0.7307 C   0  0  1  0  0  0  0  0  0  0  0  0
    5.2938   -1.6978   -0.2874 C   0  0  1  0  0  0  0  0  0  0  0  0
    5.4455   -3.3302    0.1512 C   0  0  0  0  0  0  0  0  0  0  0  0
    4.5812   -3.9984   -1.0357 C   0  0  0  0  0  0  0  0  0  0  0  0
    4.9129   -3.3080   -2.4431 C   0  0  1  0  0  0  0  0  0  0  0  0
    4.2584   -2.0310   -3.1243 C   0  0  0  0  0  0  0  0  0  0  0  0
    4.8806   -1.0653   -1.9576 C   0  0  1  0  0  0  0  0  0  0  0  0
    5.4376   -2.1251   -1.7842 C   0  0  1  0  0  0  0  0  0  0  0  0
    3.7929   -0.5277   -0.3235 H   0  0  0  0  0  0  0  0  0  0  0  0
    5.5663   -0.9457    0.4594 H   0  0  0  0  0  0  0  0  0  0  0  0
    6.4805   -3.6819    0.1330 H   0  0  0  0  0  0  0  0  0  0  0  0
    5.0269   -3.5445    1.1359 H   0  0  0  0  0  0  0  0  0  0  0  0
    5.6857   -3.8096   -3.0361 H   0  0  0  0  0  0  0  0  0  0  0  0
    4.6645   -1.8156   -4.1172 H   0  0  0  0  0  0  0  0  0  0  0  0
    3.1620   -2.0698   -3.1560 H   0  0  0  0  0  0  0  0  0  0  0  0
    5.5404   -0.2836   -2.3283 H   0  0  0  0  0  0  0  0  0  0  0  0
    6.5316   -1.9036   -1.9448 H   0  0  0  0  0  0  0  0  0  0  0  0
    2.1665   -2.1915   -0.0043 H   0  0  0  0  0  0  0  0  0  0  0  0
  1  2  3  0
  2  3  1  0
  3  8  2  0
  3  4  1  0
  4  5  1  0
  4 22  1  0
  5 12  1  0
  5  6  1  0
  5 13  1  6
  6 11  1  0
  6  7  1  0
  6 14  1  1
  7  8  1  0
  7 15  1  0
  7 16  1  0
  8  9  1  0
  9 12  1  0
  9 10  1  0
  9 17  1  6
 10 11  1  0
 10 18  1  0
 10 19  1  0
 11 12  1  0
 11 20  1  6
 12 21  1  1
M  END
>  <i_m_ct_stereo_status>  (249) 
1

>  <s_m_source_file>  (249) 
/var/tmp/pbs.5076255.sched01/tmp4185l44a/86vs10_z9v.sdf

>  <i_m_source_file_index>  (249) 
20

>  <i_lp_mmshare_version>  (249) 
48012

>  <i_f3d_flags>  (249) 
0

>  <s_epik_input>  (249) 
TiNDQyg9TjEpW0NASF0oW0NIMl0yKVtDQEBIXShbQ0gyXTMpW0NASF00W0NAQEhdM1tDQEhdMltDQEhdMTQ=

>  <s_epik_cmdline>  (249) 
J2VwaWtfcHl0aG9uJywgJy1waHQnLCAnMi4wJywgJy1waCcsICc3LjAnLCAnLXRuJywgJzgnLCAnLW1hJywgJzIwMCcsICctaW1hZScsICc8aW5maWxlLm1hZT4nLCAnLW9tYWUnLCAnPG91dGZpbGUubWFlPic=

>  <r_lp_tautomer_probability>  (249) 
1

>  <r_epik_Ionization_Penalty>  (249) 
2.3414e-06

>  <r_epik_Ionization_Penalty_Charging>  (249) 
4.59928e-13

>  <r_epik_Ionization_Penalty_Neutral>  (249) 
2.3414e-06

>  <r_epik_State_Penalty>  (249) 
-0

>  <r_epik_Charging_Adjusted_Penalty>  (249) 
4.59928e-13

>  <i_epik_Tot_Q>  (249) 
0

>  <i_epik_Tot_abs_Q>  (249) 
0

>  <s_epik_Chemistry_Notes>  (249) 
This compound has an imine and may undergo hydrolysis.

>  <s_lp_Force_Field>  (249) 
OPLS3e

>  <r_lp_Energy>  (249) 
449.135

>  <b_lp_Chiralities_Consistent>  (249) 
1

>  <s_lp_Variant>  (249) 
72:0-1

>  <s_i_glide_gridfile>  (249) 
pfpi4k_grid

>  <i_i_glide_lignum>  (249) 
20

>  <i_i_glide_rotatable_bonds>  (249) 
1

>  <r_i_docking_score>  (249) 
-4.01169

>  <r_i_glide_ligand_efficiency>  (249) 
-0.334307

>  <r_i_glide_ligand_efficiency_sa>  (249) 
-0.765373

>  <r_i_glide_ligand_efficiency_ln>  (249) 
-1.15116

>  <r_i_glide_gscore>  (249) 
-4.01169

>  <r_i_glide_lipo>  (249) 
-0.286009

>  <r_i_glide_hbond>  (249) 
-0.122872

>  <r_i_glide_metal>  (249) 
-0

>  <r_i_glide_rewards>  (249) 
-2.25

>  <r_i_glide_evdw>  (249) 
-16.6427

>  <r_i_glide_ecoul>  (249) 
-2.76858

>  <r_i_glide_erotb>  (249) 
0

>  <r_i_glide_esite>  (249) 
-0.105383

>  <r_i_glide_emodel>  (249) 
-24.5307

>  <r_i_glide_energy>  (249) 
-19.4113

>  <r_i_glide_einternal>  (249) 
-0.238476

>  <r_i_glide_intrahb_reward>  (249) 
-0

>  <i_i_glide_confnum>  (249) 
2

>  <i_i_glide_posenum>  (249) 
18

>  <r_i_glide_eff_state_penalty>  (249) 
0

>  <ligand_id>  (249) 
72

>  <original_smiles>  (249) 
N#CC1=NC2C3CC1C1CC3C12

>  <smiles>  (249) 
[H]N1C(C#N)=C2C([H])([H])C3([H])C1([H])C1([H])C2([H])C([H])([H])C31[H]

$$$$
72:0:2
     RDKit          3D

 22 25  0  0  1  0  0  0  0  0999 V2000
    5.3671   -5.3673    0.9125 N   0  0  0  0  0  0  0  0  0  0  0  0
    4.9110   -4.7474    0.0486 C   0  0  0  0  0  0  0  0  0  0  0  0
    4.3349   -3.9422   -0.9774 C   0  0  0  0  0  0  0  0  0  0  0  0
    3.7826   -2.7514   -0.5388 N   0  0  0  0  0  0  0  0  0  0  0  0
    3.8194   -1.5850   -1.4493 C   0  0  1  0  0  0  0  0  0  0  0  0
    4.9719   -1.2212   -1.9726 C   0  0  1  0  0  0  0  0  0  0  0  0
    6.0382   -2.5346   -1.8186 C   0  0  0  0  0  0  0  0  0  0  0  0
    5.0082   -3.7328   -2.1137 C   0  0  0  0  0  0  0  0  0  0  0  0
    4.0462   -3.3633   -3.3440 C   0  0  1  0  0  0  0  0  0  0  0  0
    2.6466   -2.6117   -3.3387 C   0  0  0  0  0  0  0  0  0  0  0  0
    3.3802   -1.2181   -2.8886 C   0  0  1  0  0  0  0  0  0  0  0  0
    4.3004   -1.9430   -3.1789 C   0  0  1  0  0  0  0  0  0  0  0  0
    3.4658   -0.6628   -0.9265 H   0  0  0  0  0  0  0  0  0  0  0  0
    5.3103   -0.2587   -1.5868 H   0  0  0  0  0  0  0  0  0  0  0  0
    6.8400   -2.5185   -2.5581 H   0  0  0  0  0  0  0  0  0  0  0  0
    6.4863   -2.5949   -0.8246 H   0  0  0  0  0  0  0  0  0  0  0  0
    4.3753   -3.7352   -4.3172 H   0  0  0  0  0  0  0  0  0  0  0  0
    2.1814   -2.5549   -4.3213 H   0  0  0  0  0  0  0  0  0  0  0  0
    1.9339   -3.0170   -2.6091 H   0  0  0  0  0  0  0  0  0  0  0  0
    3.2402   -0.3796   -3.5778 H   0  0  0  0  0  0  0  0  0  0  0  0
    4.7978   -1.4169   -4.0450 H   0  0  0  0  0  0  0  0  0  0  0  0
    3.4316   -2.6247    0.3989 H   0  0  0  0  0  0  0  0  0  0  0  0
  1  2  3  0
  2  3  1  0
  3  8  2  0
  3  4  1  0
  4  5  1  0
  4 22  1  0
  5 12  1  0
  5  6  1  0
  5 13  1  6
  6 11  1  0
  6  7  1  0
  6 14  1  1
  7  8  1  0
  7 15  1  0
  7 16  1  0
  8  9  1  0
  9 12  1  0
  9 10  1  0
  9 17  1  6
 10 11  1  0
 10 18  1  0
 10 19  1  0
 11 12  1  0
 11 20  1  6
 12 21  1  1
M  END
>  <i_m_ct_stereo_status>  (250) 
1

>  <s_m_source_file>  (250) 
/var/tmp/pbs.5076255.sched01/tmp4185l44a/86vs10_z9v.sdf

>  <i_m_source_file_index>  (250) 
20

>  <i_lp_mmshare_version>  (250) 
48012

>  <i_f3d_flags>  (250) 
0

>  <s_epik_input>  (250) 
TiNDQyg9TjEpW0NASF0oW0NIMl0yKVtDQEBIXShbQ0gyXTMpW0NASF00W0NAQEhdM1tDQEhdMltDQEhdMTQ=

>  <s_epik_cmdline>  (250) 
J2VwaWtfcHl0aG9uJywgJy1waHQnLCAnMi4wJywgJy1waCcsICc3LjAnLCAnLXRuJywgJzgnLCAnLW1hJywgJzIwMCcsICctaW1hZScsICc8aW5maWxlLm1hZT4nLCAnLW9tYWUnLCAnPG91dGZpbGUubWFlPic=

>  <r_lp_tautomer_probability>  (250) 
1

>  <r_epik_Ionization_Penalty>  (250) 
2.3414e-06

>  <r_epik_Ionization_Penalty_Charging>  (250) 
4.59928e-13

>  <r_epik_Ionization_Penalty_Neutral>  (250) 
2.3414e-06

>  <r_epik_State_Penalty>  (250) 
-0

>  <r_epik_Charging_Adjusted_Penalty>  (250) 
4.59928e-13

>  <i_epik_Tot_Q>  (250) 
0

>  <i_epik_Tot_abs_Q>  (250) 
0

>  <s_epik_Chemistry_Notes>  (250) 
This compound has an imine and may undergo hydrolysis.

>  <s_lp_Force_Field>  (250) 
OPLS3e

>  <r_lp_Energy>  (250) 
449.135

>  <b_lp_Chiralities_Consistent>  (250) 
1

>  <s_lp_Variant>  (250) 
72:0-1

>  <s_i_glide_gridfile>  (250) 
pfpi4k_grid

>  <i_i_glide_lignum>  (250) 
20

>  <i_i_glide_rotatable_bonds>  (250) 
1

>  <r_i_docking_score>  (250) 
-3.82515

>  <r_i_glide_ligand_efficiency>  (250) 
-0.318763

>  <r_i_glide_ligand_efficiency_sa>  (250) 
-0.729785

>  <r_i_glide_ligand_efficiency_ln>  (250) 
-1.09763

>  <r_i_glide_gscore>  (250) 
-3.82515

>  <r_i_glide_lipo>  (250) 
-0.402652

>  <r_i_glide_hbond>  (250) 
0

>  <r_i_glide_metal>  (250) 
-0

>  <r_i_glide_rewards>  (250) 
-2.29646

>  <r_i_glide_evdw>  (250) 
-20.4465

>  <r_i_glide_ecoul>  (250) 
-0.573812

>  <r_i_glide_erotb>  (250) 
0

>  <r_i_glide_esite>  (250) 
-0.017645

>  <r_i_glide_emodel>  (250) 
-25.9365

>  <r_i_glide_energy>  (250) 
-21.0203

>  <r_i_glide_einternal>  (250) 
-0.239046

>  <r_i_glide_intrahb_reward>  (250) 
-0

>  <i_i_glide_confnum>  (250) 
2

>  <i_i_glide_posenum>  (250) 
11

>  <r_i_glide_eff_state_penalty>  (250) 
0

>  <ligand_id>  (250) 
72

>  <original_smiles>  (250) 
N#CC1=NC2C3CC1C1CC3C12

>  <smiles>  (250) 
[H]N1C(C#N)=C2C([H])([H])C3([H])C1([H])C1([H])C2([H])C([H])([H])C31[H]

$$$$
73:0:0
     RDKit          3D

 59 64  0  0  1  0  0  0  0  0999 V2000
    2.7988   -5.6063    6.6929 C   0  0  0  0  0  0  0  0  0  0  0  0
    3.4594   -6.9964    6.7594 C   0  0  0  0  0  0  0  0  0  0  0  0
    3.2053   -7.8827    5.5072 C   0  0  2  0  0  0  0  0  0  0  0  0
    3.6014   -9.3618    5.7488 C   0  0  0  0  0  0  0  0  0  0  0  0
    4.7099   -9.8705    4.7813 C   0  0  2  0  0  0  0  0  0  0  0  0
    5.8794   -8.8541    4.8838 C   0  0  0  0  0  0  0  0  0  0  0  0
    5.4437   -7.4401    4.4319 C   0  0  0  0  0  0  0  0  0  0  0  0
    3.9117   -7.3467    4.2188 C   0  0  1  0  0  0  0  0  0  0  0  0
    3.3786   -7.9352    2.8364 C   0  0  1  0  0  0  0  0  0  0  0  0
    1.9896   -8.5854    2.9989 C   0  0  0  0  0  0  0  0  0  0  0  0
    1.6984   -9.9445    3.3024 C   0  0  0  0  0  0  0  0  0  0  0  0
    0.3375  -10.2744    3.4240 C   0  0  0  0  0  0  0  0  0  0  0  0
   -0.6594   -9.3010    3.1889 C   0  0  0  0  0  0  0  0  0  0  0  0
   -0.3183   -7.9920    2.7830 C   0  0  0  0  0  0  0  0  0  0  0  0
   -1.2873   -7.0831    2.4823 O   0  0  0  0  0  0  0  0  0  0  0  0
    1.0417   -7.6444    2.6553 C   0  0  0  0  0  0  0  0  0  0  0  0
    1.5764   -6.5259    2.1121 O   0  0  0  0  0  0  0  0  0  0  0  0
    2.9316   -6.7158    1.9688 C   0  0  0  0  0  0  0  0  0  0  0  0
    3.6137   -5.8244    1.2177 C   0  0  0  0  0  0  0  0  0  0  0  0
    2.8985   -4.6839    0.4935 C   0  0  0  0  0  0  0  0  0  0  0  0
    4.9838   -5.8397    1.0428 N   0  0  0  0  0  0  0  0  0  0  0  0
    5.7370   -5.0604    0.0772 C   0  0  0  0  0  0  0  0  0  0  0  0
    2.8769  -10.9264    3.3386 C   0  0  0  0  0  0  0  0  0  0  0  0
    4.2645  -10.2553    3.3013 C   0  0  2  0  0  0  0  0  0  0  0  0
    5.3869  -11.1208    2.7553 C   0  0  0  0  0  0  0  0  0  0  0  0
    6.2406  -10.4597    1.9600 C   0  0  0  0  0  0  0  0  0  0  0  0
    5.7201   -9.1035    1.7801 C   0  0  0  0  0  0  0  0  0  0  0  0
    6.3303   -8.1498    1.3110 O   0  0  0  0  0  0  0  0  0  0  0  0
    4.2454   -9.1008    2.2309 C   0  0  2  0  0  0  0  0  0  0  0  0
    3.5906   -9.4624    1.0164 O   0  0  0  0  0  0  0  0  0  0  0  0
    3.0258   -5.0301    7.5904 H   0  0  0  0  0  0  0  0  0  0  0  0
    1.7132   -5.6898    6.6168 H   0  0  0  0  0  0  0  0  0  0  0  0
    3.1475   -5.0128    5.8473 H   0  0  0  0  0  0  0  0  0  0  0  0
    4.5244   -6.8803    6.9601 H   0  0  0  0  0  0  0  0  0  0  0  0
    3.0690   -7.5037    7.6421 H   0  0  0  0  0  0  0  0  0  0  0  0
    2.1225   -7.8580    5.3831 H   0  0  0  0  0  0  0  0  0  0  0  0
    3.9770   -9.4708    6.7658 H   0  0  0  0  0  0  0  0  0  0  0  0
    2.7170   -9.9984    5.7474 H   0  0  0  0  0  0  0  0  0  0  0  0
    5.0640  -10.8002    5.2326 H   0  0  0  0  0  0  0  0  0  0  0  0
    6.1991   -8.8050    5.9281 H   0  0  0  0  0  0  0  0  0  0  0  0
    6.7682   -9.1829    4.3432 H   0  0  0  0  0  0  0  0  0  0  0  0
    5.7613   -6.7271    5.1897 H   0  0  0  0  0  0  0  0  0  0  0  0
    5.9812   -7.1045    3.5500 H   0  0  0  0  0  0  0  0  0  0  0  0
    3.6893   -6.2843    4.1805 H   0  0  0  0  0  0  0  0  0  0  0  0
    0.0535  -11.2807    3.6800 H   0  0  0  0  0  0  0  0  0  0  0  0
   -1.6961   -9.5810    3.2879 H   0  0  0  0  0  0  0  0  0  0  0  0
   -2.1388   -7.4879    2.5389 H   0  0  0  0  0  0  0  0  0  0  0  0
    1.8290   -4.6618    0.6927 H   0  0  0  0  0  0  0  0  0  0  0  0
    3.0117   -4.7881   -0.5874 H   0  0  0  0  0  0  0  0  0  0  0  0
    3.2931   -3.7106    0.7920 H   0  0  0  0  0  0  0  0  0  0  0  0
    6.8068   -5.1510    0.2730 H   0  0  0  0  0  0  0  0  0  0  0  0
    5.4724   -4.0035    0.1092 H   0  0  0  0  0  0  0  0  0  0  0  0
    5.5187   -5.4362   -0.9226 H   0  0  0  0  0  0  0  0  0  0  0  0
    2.7853  -11.6099    4.1817 H   0  0  0  0  0  0  0  0  0  0  0  0
    2.7727  -11.5622    2.4631 H   0  0  0  0  0  0  0  0  0  0  0  0
    5.4854  -12.1600    3.0326 H   0  0  0  0  0  0  0  0  0  0  0  0
    7.1259  -10.8567    1.4928 H   0  0  0  0  0  0  0  0  0  0  0  0
    3.8122  -10.3745    0.8168 H   0  0  0  0  0  0  0  0  0  0  0  0
    5.4796   -6.6644    1.3792 H   0  0  0  0  0  0  0  0  0  0  0  0
  1  2  1  0
  1 31  1  0
  1 32  1  0
  1 33  1  0
  2  3  1  0
  2 34  1  0
  2 35  1  0
  3  8  1  0
  3  4  1  0
  3 36  1  6
  4  5  1  0
  4 37  1  0
  4 38  1  0
  5 24  1  0
  5  6  1  0
  5 39  1  1
  6  7  1  0
  6 40  1  0
  6 41  1  0
  7  8  1  0
  7 42  1  0
  7 43  1  0
  8  9  1  0
  8 44  1  6
  9 18  1  6
  9 29  1  0
  9 10  1  0
 10 16  2  0
 10 11  1  0
 11 12  2  0
 11 23  1  0
 12 13  1  0
 12 45  1  0
 13 14  2  0
 13 46  1  0
 14 15  1  0
 14 16  1  0
 15 47  1  0
 16 17  1  0
 17 18  1  0
 18 19  2  0
 19 20  1  0
 19 21  1  0
 20 48  1  0
 20 49  1  0
 20 50  1  0
 21 22  1  0
 21 59  1  0
 22 51  1  0
 22 52  1  0
 22 53  1  0
 24 23  1  1
 23 54  1  0
 23 55  1  0
 24 29  1  0
 24 25  1  0
 25 26  2  0
 25 56  1  0
 26 27  1  0
 26 57  1  0
 27 28  2  0
 27 29  1  0
 29 30  1  6
 30 58  1  0
M  END
>  <i_m_ct_stereo_status>  (251) 
1

>  <s_m_source_file>  (251) 
/var/tmp/pbs.5076255.sched01/tmp4185l44a/86vs10_z9v.sdf

>  <i_m_source_file_index>  (251) 
21

>  <i_lp_mmshare_version>  (251) 
48012

>  <i_f3d_flags>  (251) 
0

>  <s_epik_input>  (251) 
W0NIM11bQ0gyXVtDQEBIXShbQ0BASF0xW0NAQF0yMzQpW0NIMl1bQ0BIXShbQ0gyXVtDSDJdMSlbQ0BdNShbQ0BdNChbT0hdKUMoPU8pW0NIXT1bQ0hdNSlbQ0gyXWM2YzJjKGMoW09IXSlbY0hdW2NIXTYpT1tDQEhdMy9DKFtDSDNdKT1OL1tDSDNd

>  <s_epik_cmdline>  (251) 
J2VwaWtfcHl0aG9uJywgJy1waHQnLCAnMi4wJywgJy1waCcsICc3LjAnLCAnLXRuJywgJzgnLCAnLW1hJywgJzIwMCcsICctaW1hZScsICc8aW5maWxlLm1hZT4nLCAnLW9tYWUnLCAnPG91dGZpbGUubWFlPic=

>  <r_epik_Ionization_Penalty>  (251) 
0.262939

>  <r_epik_Ionization_Penalty_Charging>  (251) 
0.26281

>  <r_epik_Ionization_Penalty_Neutral>  (251) 
0.00012884

>  <r_epik_State_Penalty>  (251) 
0.254614

>  <r_epik_Charging_Adjusted_Penalty>  (251) 
0.517424

>  <i_epik_Tot_Q>  (251) 
0

>  <i_epik_Tot_abs_Q>  (251) 
0

>  <s_epik_Chemistry_Notes>  (251) 
This compound has an imine and may undergo hydrolysis.

>  <s_lp_Force_Field>  (251) 
OPLS3e

>  <r_lp_Energy>  (251) 
89.3194

>  <b_lp_Chiralities_Consistent>  (251) 
1

>  <s_lp_Variant>  (251) 
73:0-1

>  <s_i_glide_gridfile>  (251) 
pfpi4k_grid

>  <i_i_glide_lignum>  (251) 
21

>  <i_i_glide_rotatable_bonds>  (251) 
4

>  <r_i_docking_score>  (251) 
-3.15937

>  <r_i_glide_ligand_efficiency>  (251) 
-0.105312

>  <r_i_glide_ligand_efficiency_sa>  (251) 
-0.327229

>  <r_i_glide_ligand_efficiency_ln>  (251) 
-0.717842

>  <r_i_glide_gscore>  (251) 
-3.15937

>  <r_i_glide_lipo>  (251) 
-0.155234

>  <r_i_glide_hbond>  (251) 
0

>  <r_i_glide_metal>  (251) 
-0

>  <r_i_glide_rewards>  (251) 
-1.13415

>  <r_i_glide_evdw>  (251) 
-23.6366

>  <r_i_glide_ecoul>  (251) 
-5.37746

>  <r_i_glide_erotb>  (251) 
0.118467

>  <r_i_glide_esite>  (251) 
0

>  <r_i_glide_emodel>  (251) 
-38.5888

>  <r_i_glide_energy>  (251) 
-29.014

>  <r_i_glide_einternal>  (251) 
4.18611

>  <r_i_glide_intrahb_reward>  (251) 
-0.5

>  <i_i_glide_confnum>  (251) 
2

>  <i_i_glide_posenum>  (251) 
33

>  <r_i_glide_eff_state_penalty>  (251) 
0

>  <ligand_id>  (251) 
73

>  <original_smiles>  (251) 
CCC1CC2CCC1C13c4c(ccc(O)c4OC1C(C)=NC)CC21C=CC(=O)C13O

>  <smiles>  (251) 
[H]Oc1c([H])c([H])c2c3c1OC(=C(N([H])C([H])([H])[H])C([H])([H])[H])C31C3(O[H])C(=O)C([H])=C([H])C3(C2([H])[H])C2([H])C([H])([H])C([H])([H])C1([H])C([H])(C([H])([H])C([H])([H])[H])C2([H])[H]

$$$$
73:0:1
     RDKit          3D

 59 64  0  0  1  0  0  0  0  0999 V2000
    5.9022    0.8002    6.3894 C   0  0  0  0  0  0  0  0  0  0  0  0
    4.8440   -0.1484    7.0217 C   0  0  0  0  0  0  0  0  0  0  0  0
    3.5767   -0.4852    6.1704 C   0  0  2  0  0  0  0  0  0  0  0  0
    3.9054   -0.9438    4.7262 C   0  0  0  0  0  0  0  0  0  0  0  0
    3.2904    0.0015    3.6535 C   0  0  2  0  0  0  0  0  0  0  0  0
    3.6619    1.4576    4.0465 C   0  0  0  0  0  0  0  0  0  0  0  0
    3.0706    1.8834    5.4231 C   0  0  0  0  0  0  0  0  0  0  0  0
    2.4927    0.6507    6.1666 C   0  0  1  0  0  0  0  0  0  0  0  0
    1.0316    0.2196    5.6911 C   0  0  1  0  0  0  0  0  0  0  0  0
    0.8257   -1.3026    5.7619 C   0  0  0  0  0  0  0  0  0  0  0  0
    1.0600   -2.2597    4.7471 C   0  0  0  0  0  0  0  0  0  0  0  0
    0.8272   -3.6126    5.0786 C   0  0  0  0  0  0  0  0  0  0  0  0
    0.3240   -3.9485    6.3527 C   0  0  0  0  0  0  0  0  0  0  0  0
   -0.0107   -2.9409    7.2833 C   0  0  0  0  0  0  0  0  0  0  0  0
   -0.5937   -3.2584    8.4813 O   0  0  0  0  0  0  0  0  0  0  0  0
    0.2242   -1.5908    6.9632 C   0  0  0  0  0  0  0  0  0  0  0  0
   -0.1821   -0.4826    7.6256 O   0  0  0  0  0  0  0  0  0  0  0  0
    0.0511    0.6233    6.8404 C   0  0  0  0  0  0  0  0  0  0  0  0
   -0.5004    1.7985    7.2089 C   0  0  0  0  0  0  0  0  0  0  0  0
   -1.4194    1.8973    8.4236 C   0  0  0  0  0  0  0  0  0  0  0  0
   -0.2906    2.9957    6.5556 N   0  0  0  0  0  0  0  0  0  0  0  0
   -1.1322    4.1745    6.6348 C   0  0  0  0  0  0  0  0  0  0  0  0
    1.4250   -1.7440    3.3469 C   0  0  0  0  0  0  0  0  0  0  0  0
    1.7590   -0.2242    3.2996 C   0  0  2  0  0  0  0  0  0  0  0  0
    1.5413    0.4388    1.9554 C   0  0  0  0  0  0  0  0  0  0  0  0
    1.0112    1.6644    2.0651 C   0  0  0  0  0  0  0  0  0  0  0  0
    0.6578    1.9017    3.4591 C   0  0  0  0  0  0  0  0  0  0  0  0
    0.3468    2.9845    3.9396 O   0  0  0  0  0  0  0  0  0  0  0  0
    0.7025    0.5348    4.1733 C   0  0  2  0  0  0  0  0  0  0  0  0
   -0.6426    0.0893    3.9602 O   0  0  0  0  0  0  0  0  0  0  0  0
    6.7667    0.9036    7.0638 H   0  0  0  0  0  0  0  0  0  0  0  0
    5.5232    1.7894    6.1872 H   0  0  0  0  0  0  0  0  0  0  0  0
    6.3081    0.3804    5.4614 H   0  0  0  0  0  0  0  0  0  0  0  0
    5.3238   -1.0842    7.2822 H   0  0  0  0  0  0  0  0  0  0  0  0
    4.5193    0.2607    7.9767 H   0  0  0  0  0  0  0  0  0  0  0  0
    3.1555   -1.3478    6.6884 H   0  0  0  0  0  0  0  0  0  0  0  0
    4.9774   -0.9860    4.5758 H   0  0  0  0  0  0  0  0  0  0  0  0
    3.6432   -1.9959    4.5847 H   0  0  0  0  0  0  0  0  0  0  0  0
    3.8461   -0.2357    2.7411 H   0  0  0  0  0  0  0  0  0  0  0  0
    4.7463    1.5213    4.0883 H   0  0  0  0  0  0  0  0  0  0  0  0
    3.4060    2.1730    3.2685 H   0  0  0  0  0  0  0  0  0  0  0  0
    3.8076    2.3633    6.0387 H   0  0  0  0  0  0  0  0  0  0  0  0
    2.3044    2.6516    5.3056 H   0  0  0  0  0  0  0  0  0  0  0  0
    2.4041    0.9438    7.2051 H   0  0  0  0  0  0  0  0  0  0  0  0
    1.0098   -4.3920    4.3441 H   0  0  0  0  0  0  0  0  0  0  0  0
    0.1462   -4.9835    6.5951 H   0  0  0  0  0  0  0  0  0  0  0  0
   -0.5598   -4.1893    8.6604 H   0  0  0  0  0  0  0  0  0  0  0  0
   -1.4970    0.9558    8.9640 H   0  0  0  0  0  0  0  0  0  0  0  0
   -2.4302    2.1834    8.1263 H   0  0  0  0  0  0  0  0  0  0  0  0
   -1.0448    2.6308    9.1398 H   0  0  0  0  0  0  0  0  0  0  0  0
   -0.6335    5.0125    6.1462 H   0  0  0  0  0  0  0  0  0  0  0  0
   -1.3502    4.4602    7.6667 H   0  0  0  0  0  0  0  0  0  0  0  0
   -2.0727    3.9811    6.1186 H   0  0  0  0  0  0  0  0  0  0  0  0
    2.2256   -2.3346    2.9047 H   0  0  0  0  0  0  0  0  0  0  0  0
    0.5635   -1.9235    2.7123 H   0  0  0  0  0  0  0  0  0  0  0  0
    1.8644   -0.0219    1.0312 H   0  0  0  0  0  0  0  0  0  0  0  0
    0.8255    2.3718    1.2749 H   0  0  0  0  0  0  0  0  0  0  0  0
   -0.8503    0.2566    3.0535 H   0  0  0  0  0  0  0  0  0  0  0  0
    0.2521    2.9527    5.6964 H   0  0  0  0  0  0  0  0  0  0  0  0
  1  2  1  0
  1 31  1  0
  1 32  1  0
  1 33  1  0
  2  3  1  0
  2 34  1  0
  2 35  1  0
  3  8  1  0
  3  4  1  0
  3 36  1  1
  4  5  1  0
  4 37  1  0
  4 38  1  0
  5 24  1  0
  5  6  1  0
  5 39  1  6
  6  7  1  0
  6 40  1  0
  6 41  1  0
  7  8  1  0
  7 42  1  0
  7 43  1  0
  8  9  1  0
  8 44  1  1
  9 18  1  1
  9 29  1  0
  9 10  1  0
 10 16  2  0
 10 11  1  0
 11 12  2  0
 11 23  1  0
 12 13  1  0
 12 45  1  0
 13 14  2  0
 13 46  1  0
 14 15  1  0
 14 16  1  0
 15 47  1  0
 16 17  1  0
 17 18  1  0
 18 19  2  0
 19 20  1  0
 19 21  1  0
 20 48  1  0
 20 49  1  0
 20 50  1  0
 21 22  1  0
 21 59  1  0
 22 51  1  0
 22 52  1  0
 22 53  1  0
 24 23  1  6
 23 54  1  0
 23 55  1  0
 24 29  1  0
 24 25  1  0
 25 26  2  0
 25 56  1  0
 26 27  1  0
 26 57  1  0
 27 28  2  0
 27 29  1  0
 29 30  1  6
 30 58  1  0
M  END
>  <i_m_ct_stereo_status>  (252) 
1

>  <s_m_source_file>  (252) 
/var/tmp/pbs.5076255.sched01/tmp4185l44a/86vs10_z9v.sdf

>  <i_m_source_file_index>  (252) 
21

>  <i_lp_mmshare_version>  (252) 
48012

>  <i_f3d_flags>  (252) 
0

>  <s_epik_input>  (252) 
W0NIM11bQ0gyXVtDQEBIXShbQ0BASF0xW0NAQF0yMzQpW0NIMl1bQ0BIXShbQ0gyXVtDSDJdMSlbQ0BdNShbQ0BdNChbT0hdKUMoPU8pW0NIXT1bQ0hdNSlbQ0gyXWM2YzJjKGMoW09IXSlbY0hdW2NIXTYpT1tDQEhdMy9DKFtDSDNdKT1OL1tDSDNd

>  <s_epik_cmdline>  (252) 
J2VwaWtfcHl0aG9uJywgJy1waHQnLCAnMi4wJywgJy1waCcsICc3LjAnLCAnLXRuJywgJzgnLCAnLW1hJywgJzIwMCcsICctaW1hZScsICc8aW5maWxlLm1hZT4nLCAnLW9tYWUnLCAnPG91dGZpbGUubWFlPic=

>  <r_epik_Ionization_Penalty>  (252) 
0.262939

>  <r_epik_Ionization_Penalty_Charging>  (252) 
0.26281

>  <r_epik_Ionization_Penalty_Neutral>  (252) 
0.00012884

>  <r_epik_State_Penalty>  (252) 
0.254614

>  <r_epik_Charging_Adjusted_Penalty>  (252) 
0.517424

>  <i_epik_Tot_Q>  (252) 
0

>  <i_epik_Tot_abs_Q>  (252) 
0

>  <s_epik_Chemistry_Notes>  (252) 
This compound has an imine and may undergo hydrolysis.

>  <s_lp_Force_Field>  (252) 
OPLS3e

>  <r_lp_Energy>  (252) 
89.3194

>  <b_lp_Chiralities_Consistent>  (252) 
1

>  <s_lp_Variant>  (252) 
73:0-1

>  <s_i_glide_gridfile>  (252) 
pfpi4k_grid

>  <i_i_glide_lignum>  (252) 
21

>  <i_i_glide_rotatable_bonds>  (252) 
4

>  <r_i_docking_score>  (252) 
-2.69738

>  <r_i_glide_ligand_efficiency>  (252) 
-0.0899127

>  <r_i_glide_ligand_efficiency_sa>  (252) 
-0.27938

>  <r_i_glide_ligand_efficiency_ln>  (252) 
-0.612874

>  <r_i_glide_gscore>  (252) 
-2.69738

>  <r_i_glide_lipo>  (252) 
-0.0554172

>  <r_i_glide_hbond>  (252) 
-0.00300119

>  <r_i_glide_metal>  (252) 
-0

>  <r_i_glide_rewards>  (252) 
-1.13067

>  <r_i_glide_evdw>  (252) 
-16.528

>  <r_i_glide_ecoul>  (252) 
-5.10864

>  <r_i_glide_erotb>  (252) 
0.118467

>  <r_i_glide_esite>  (252) 
-0.0340642

>  <r_i_glide_emodel>  (252) 
-26.8965

>  <r_i_glide_energy>  (252) 
-21.6367

>  <r_i_glide_einternal>  (252) 
8.64418

>  <r_i_glide_intrahb_reward>  (252) 
-0.5

>  <i_i_glide_confnum>  (252) 
2

>  <i_i_glide_posenum>  (252) 
10

>  <r_i_glide_eff_state_penalty>  (252) 
0

>  <ligand_id>  (252) 
73

>  <original_smiles>  (252) 
CCC1CC2CCC1C13c4c(ccc(O)c4OC1C(C)=NC)CC21C=CC(=O)C13O

>  <smiles>  (252) 
[H]Oc1c([H])c([H])c2c3c1OC(=C(N([H])C([H])([H])[H])C([H])([H])[H])C31C3(O[H])C(=O)C([H])=C([H])C3(C2([H])[H])C2([H])C([H])([H])C([H])([H])C1([H])C([H])(C([H])([H])C([H])([H])[H])C2([H])[H]

$$$$
73:0:2
     RDKit          3D

 59 64  0  0  1  0  0  0  0  0999 V2000
    5.7455   -3.9026    7.2846 C   0  0  0  0  0  0  0  0  0  0  0  0
    5.9292   -4.0897    5.7709 C   0  0  0  0  0  0  0  0  0  0  0  0
    4.6654   -4.5912    5.0258 C   0  0  2  0  0  0  0  0  0  0  0  0
    4.2758   -6.0353    5.4256 C   0  0  0  0  0  0  0  0  0  0  0  0
    4.2919   -7.0339    4.2327 C   0  0  2  0  0  0  0  0  0  0  0  0
    5.6850   -6.8914    3.5635 C   0  0  0  0  0  0  0  0  0  0  0  0
    5.9151   -5.4621    3.0174 C   0  0  0  0  0  0  0  0  0  0  0  0
    4.8054   -4.4817    3.4732 C   0  0  1  0  0  0  0  0  0  0  0  0
    3.4395   -4.5740    2.6482 C   0  0  1  0  0  0  0  0  0  0  0  0
    2.2200   -4.3113    3.5516 C   0  0  0  0  0  0  0  0  0  0  0  0
    1.4505   -5.2558    4.2812 C   0  0  0  0  0  0  0  0  0  0  0  0
    0.4102   -4.7396    5.0760 C   0  0  0  0  0  0  0  0  0  0  0  0
    0.1330   -3.3508    5.0738 C   0  0  0  0  0  0  0  0  0  0  0  0
    0.8393   -2.4769    4.2191 C   0  0  0  0  0  0  0  0  0  0  0  0
    0.4796   -1.1640    4.1265 O   0  0  0  0  0  0  0  0  0  0  0  0
    1.8930   -2.9736    3.4310 C   0  0  0  0  0  0  0  0  0  0  0  0
    2.5743   -2.3476    2.4434 O   0  0  0  0  0  0  0  0  0  0  0  0
    3.3499   -3.2730    1.7851 C   0  0  0  0  0  0  0  0  0  0  0  0
    3.9159   -2.9063    0.6129 C   0  0  0  0  0  0  0  0  0  0  0  0
    3.6563   -1.5307    0.0006 C   0  0  0  0  0  0  0  0  0  0  0  0
    4.7733   -3.7022   -0.1205 N   0  0  0  0  0  0  0  0  0  0  0  0
    5.0353   -3.5918   -1.5452 C   0  0  0  0  0  0  0  0  0  0  0  0
    1.7519   -6.7406    4.0323 C   0  0  0  0  0  0  0  0  0  0  0  0
    3.0474   -7.0041    3.2388 C   0  0  2  0  0  0  0  0  0  0  0  0
    3.0845   -8.3281    2.4963 C   0  0  0  0  0  0  0  0  0  0  0  0
    3.6357   -8.2424    1.2788 C   0  0  0  0  0  0  0  0  0  0  0  0
    3.9182   -6.8304    1.0157 C   0  0  0  0  0  0  0  0  0  0  0  0
    4.6106   -6.3854    0.1069 O   0  0  0  0  0  0  0  0  0  0  0  0
    3.1176   -5.9956    2.0344 C   0  0  2  0  0  0  0  0  0  0  0  0
    1.8776   -5.8459    1.3361 O   0  0  0  0  0  0  0  0  0  0  0  0
    6.6609   -3.5216    7.7379 H   0  0  0  0  0  0  0  0  0  0  0  0
    5.5049   -4.8407    7.7838 H   0  0  0  0  0  0  0  0  0  0  0  0
    4.9500   -3.1903    7.5037 H   0  0  0  0  0  0  0  0  0  0  0  0
    6.2165   -3.1239    5.3559 H   0  0  0  0  0  0  0  0  0  0  0  0
    6.7735   -4.7601    5.6031 H   0  0  0  0  0  0  0  0  0  0  0  0
    3.8800   -3.9159    5.3632 H   0  0  0  0  0  0  0  0  0  0  0  0
    4.9828   -6.4085    6.1649 H   0  0  0  0  0  0  0  0  0  0  0  0
    3.3302   -6.0337    5.9632 H   0  0  0  0  0  0  0  0  0  0  0  0
    4.2726   -8.0214    4.7001 H   0  0  0  0  0  0  0  0  0  0  0  0
    6.4520   -7.1004    4.3120 H   0  0  0  0  0  0  0  0  0  0  0  0
    5.8574   -7.6413    2.7905 H   0  0  0  0  0  0  0  0  0  0  0  0
    6.8831   -5.1156    3.3715 H   0  0  0  0  0  0  0  0  0  0  0  0
    6.0306   -5.4466    1.9374 H   0  0  0  0  0  0  0  0  0  0  0  0
    5.2038   -3.4817    3.3009 H   0  0  0  0  0  0  0  0  0  0  0  0
   -0.2072   -5.4066    5.6563 H   0  0  0  0  0  0  0  0  0  0  0  0
   -0.6813   -2.9665    5.6650 H   0  0  0  0  0  0  0  0  0  0  0  0
    1.0037   -0.6957    3.4924 H   0  0  0  0  0  0  0  0  0  0  0  0
    3.0321   -0.8938    0.6281 H   0  0  0  0  0  0  0  0  0  0  0  0
    3.1326   -1.6220   -0.9532 H   0  0  0  0  0  0  0  0  0  0  0  0
    4.5907   -0.9913   -0.1639 H   0  0  0  0  0  0  0  0  0  0  0  0
    5.8585   -4.2515   -1.8180 H   0  0  0  0  0  0  0  0  0  0  0  0
    5.2993   -2.5740   -1.8343 H   0  0  0  0  0  0  0  0  0  0  0  0
    4.1540   -3.8993   -2.1104 H   0  0  0  0  0  0  0  0  0  0  0  0
    1.7418   -7.2886    4.9760 H   0  0  0  0  0  0  0  0  0  0  0  0
    0.9041   -7.1330    3.4696 H   0  0  0  0  0  0  0  0  0  0  0  0
    2.7470   -9.2476    2.9537 H   0  0  0  0  0  0  0  0  0  0  0  0
    3.8194   -9.0527    0.5881 H   0  0  0  0  0  0  0  0  0  0  0  0
    2.0852   -5.3738    0.5424 H   0  0  0  0  0  0  0  0  0  0  0  0
    4.9262   -4.6455    0.2260 H   0  0  0  0  0  0  0  0  0  0  0  0
  1  2  1  0
  1 31  1  0
  1 32  1  0
  1 33  1  0
  2  3  1  0
  2 34  1  0
  2 35  1  0
  3  8  1  0
  3  4  1  0
  3 36  1  1
  4  5  1  0
  4 37  1  0
  4 38  1  0
  5 24  1  0
  5  6  1  0
  5 39  1  1
  6  7  1  0
  6 40  1  0
  6 41  1  0
  7  8  1  0
  7 42  1  0
  7 43  1  0
  8  9  1  0
  8 44  1  1
  9 18  1  6
  9 29  1  0
  9 10  1  0
 10 16  2  0
 10 11  1  0
 11 12  2  0
 11 23  1  0
 12 13  1  0
 12 45  1  0
 13 14  2  0
 13 46  1  0
 14 15  1  0
 14 16  1  0
 15 47  1  0
 16 17  1  0
 17 18  1  0
 18 19  2  0
 19 20  1  0
 19 21  1  0
 20 48  1  0
 20 49  1  0
 20 50  1  0
 21 22  1  0
 21 59  1  0
 22 51  1  0
 22 52  1  0
 22 53  1  0
 24 23  1  1
 23 54  1  0
 23 55  1  0
 24 29  1  0
 24 25  1  0
 25 26  2  0
 25 56  1  0
 26 27  1  0
 26 57  1  0
 27 28  2  0
 27 29  1  0
 29 30  1  6
 30 58  1  0
M  END
>  <i_m_ct_stereo_status>  (253) 
1

>  <s_m_source_file>  (253) 
/var/tmp/pbs.5076255.sched01/tmp4185l44a/86vs10_z9v.sdf

>  <i_m_source_file_index>  (253) 
21

>  <i_lp_mmshare_version>  (253) 
48012

>  <i_f3d_flags>  (253) 
0

>  <s_epik_input>  (253) 
W0NIM11bQ0gyXVtDQEBIXShbQ0BASF0xW0NAQF0yMzQpW0NIMl1bQ0BIXShbQ0gyXVtDSDJdMSlbQ0BdNShbQ0BdNChbT0hdKUMoPU8pW0NIXT1bQ0hdNSlbQ0gyXWM2YzJjKGMoW09IXSlbY0hdW2NIXTYpT1tDQEhdMy9DKFtDSDNdKT1OL1tDSDNd

>  <s_epik_cmdline>  (253) 
J2VwaWtfcHl0aG9uJywgJy1waHQnLCAnMi4wJywgJy1waCcsICc3LjAnLCAnLXRuJywgJzgnLCAnLW1hJywgJzIwMCcsICctaW1hZScsICc8aW5maWxlLm1hZT4nLCAnLW9tYWUnLCAnPG91dGZpbGUubWFlPic=

>  <r_epik_Ionization_Penalty>  (253) 
0.262939

>  <r_epik_Ionization_Penalty_Charging>  (253) 
0.26281

>  <r_epik_Ionization_Penalty_Neutral>  (253) 
0.00012884

>  <r_epik_State_Penalty>  (253) 
0.254614

>  <r_epik_Charging_Adjusted_Penalty>  (253) 
0.517424

>  <i_epik_Tot_Q>  (253) 
0

>  <i_epik_Tot_abs_Q>  (253) 
0

>  <s_epik_Chemistry_Notes>  (253) 
This compound has an imine and may undergo hydrolysis.

>  <s_lp_Force_Field>  (253) 
OPLS3e

>  <r_lp_Energy>  (253) 
89.3194

>  <b_lp_Chiralities_Consistent>  (253) 
1

>  <s_lp_Variant>  (253) 
73:0-1

>  <s_i_glide_gridfile>  (253) 
pfpi4k_grid

>  <i_i_glide_lignum>  (253) 
21

>  <i_i_glide_rotatable_bonds>  (253) 
4

>  <r_i_docking_score>  (253) 
-2.2136

>  <r_i_glide_ligand_efficiency>  (253) 
-0.0737867

>  <r_i_glide_ligand_efficiency_sa>  (253) 
-0.229272

>  <r_i_glide_ligand_efficiency_ln>  (253) 
-0.502954

>  <r_i_glide_gscore>  (253) 
-2.2136

>  <r_i_glide_lipo>  (253) 
-0.116696

>  <r_i_glide_hbond>  (253) 
0

>  <r_i_glide_metal>  (253) 
-0

>  <r_i_glide_rewards>  (253) 
-1.26084

>  <r_i_glide_evdw>  (253) 
-19.3449

>  <r_i_glide_ecoul>  (253) 
0.0847851

>  <r_i_glide_erotb>  (253) 
0.118467

>  <r_i_glide_esite>  (253) 
0

>  <r_i_glide_emodel>  (253) 
-27.2874

>  <r_i_glide_energy>  (253) 
-19.2601

>  <r_i_glide_einternal>  (253) 
3.08379

>  <r_i_glide_intrahb_reward>  (253) 
-0.5

>  <i_i_glide_confnum>  (253) 
2

>  <i_i_glide_posenum>  (253) 
12

>  <r_i_glide_eff_state_penalty>  (253) 
0

>  <ligand_id>  (253) 
73

>  <original_smiles>  (253) 
CCC1CC2CCC1C13c4c(ccc(O)c4OC1C(C)=NC)CC21C=CC(=O)C13O

>  <smiles>  (253) 
[H]Oc1c([H])c([H])c2c3c1OC(=C(N([H])C([H])([H])[H])C([H])([H])[H])C31C3(O[H])C(=O)C([H])=C([H])C3(C2([H])[H])C2([H])C([H])([H])C([H])([H])C1([H])C([H])(C([H])([H])C([H])([H])[H])C2([H])[H]

$$$$
73:1:0
     RDKit          3D

 58 63  0  0  1  0  0  0  0  0999 V2000
    5.1868    1.7484    7.8241 C   0  0  0  0  0  0  0  0  0  0  0  0
    3.6578    1.6022    7.8841 C   0  0  0  0  0  0  0  0  0  0  0  0
    2.8881    1.7678    6.5323 C   0  0  2  0  0  0  0  0  0  0  0  0
    3.7591    2.1861    5.3102 C   0  0  0  0  0  0  0  0  0  0  0  0
    3.3172    3.5425    4.7010 C   0  0  2  0  0  0  0  0  0  0  0  0
    3.2332    4.5636    5.8710 C   0  0  0  0  0  0  0  0  0  0  0  0
    2.1777    4.1476    6.9126 C   0  0  0  0  0  0  0  0  0  0  0  0
    1.6445    2.7111    6.6640 C   0  0  1  0  0  0  0  0  0  0  0  0
    0.5393    2.5856    5.5101 C   0  0  1  0  0  0  0  0  0  0  0  0
    0.6743    1.2691    4.7293 C   0  0  0  0  0  0  0  0  0  0  0  0
    1.4550    1.0046    3.5602 C   0  0  0  0  0  0  0  0  0  0  0  0
    1.4361   -0.3118    3.0741 C   0  0  0  0  0  0  0  0  0  0  0  0
    0.6251   -1.2953    3.6784 C   0  0  0  0  0  0  0  0  0  0  0  0
   -0.2502   -0.9398    4.7460 C   0  0  0  0  0  0  0  0  0  0  0  0
   -1.1144   -1.8556    5.2671 O   0  0  0  0  0  0  0  0  0  0  0  0
   -0.2232    0.3557    5.2361 C   0  0  0  0  0  0  0  0  0  0  0  0
   -1.0929    0.9250    6.1270 O   0  0  0  0  0  0  0  0  0  0  0  0
   -0.8232    2.2764    6.2258 C   0  0  0  0  0  0  0  0  0  0  0  0
   -1.6748    3.0265    6.9871 C   0  0  0  0  0  0  0  0  0  0  0  0
   -2.9612    2.3892    7.5275 C   0  0  0  0  0  0  0  0  0  0  0  0
   -1.4660    4.3492    7.3090 N   0  0  0  0  0  0  0  0  0  0  0  0
   -1.0218    4.7370    8.6240 C   0  0  0  0  0  0  0  0  0  0  0  0
    2.1115    2.2173    2.8804 C   0  0  0  0  0  0  0  0  0  0  0  0
    2.0745    3.5132    3.7152 C   0  0  2  0  0  0  0  0  0  0  0  0
    2.1847    4.7935    2.9089 C   0  0  0  0  0  0  0  0  0  0  0  0
    1.3789    5.7648    3.3568 C   0  0  0  0  0  0  0  0  0  0  0  0
    0.5384    5.2168    4.4226 C   0  0  0  0  0  0  0  0  0  0  0  0
   -0.1615    5.8833    5.1741 O   0  0  0  0  0  0  0  0  0  0  0  0
    0.6389    3.6742    4.3503 C   0  0  2  0  0  0  0  0  0  0  0  0
   -0.3996    3.3703    3.4108 O   0  0  0  0  0  0  0  0  0  0  0  0
    5.6516    1.5823    8.7863 H   0  0  0  0  0  0  0  0  0  0  0  0
    5.4635    2.7548    7.4968 H   0  0  0  0  0  0  0  0  0  0  0  0
    5.6152    1.0300    7.1216 H   0  0  0  0  0  0  0  0  0  0  0  0
    3.4283    0.6188    8.2960 H   0  0  0  0  0  0  0  0  0  0  0  0
    3.2854    2.2898    8.6425 H   0  0  0  0  0  0  0  0  0  0  0  0
    2.5214    0.7611    6.3389 H   0  0  0  0  0  0  0  0  0  0  0  0
    4.8047    2.3258    5.5548 H   0  0  0  0  0  0  0  0  0  0  0  0
    3.7759    1.3730    4.5812 H   0  0  0  0  0  0  0  0  0  0  0  0
    4.1618    3.8566    4.0935 H   0  0  0  0  0  0  0  0  0  0  0  0
    4.2035    4.6123    6.3692 H   0  0  0  0  0  0  0  0  0  0  0  0
    3.0547    5.5852    5.5320 H   0  0  0  0  0  0  0  0  0  0  0  0
    2.6184    4.2229    7.9062 H   0  0  0  0  0  0  0  0  0  0  0  0
    1.3700    4.8721    6.9394 H   0  0  0  0  0  0  0  0  0  0  0  0
    1.1527    2.4050    7.5895 H   0  0  0  0  0  0  0  0  0  0  0  0
    2.0242   -0.5662    2.2031 H   0  0  0  0  0  0  0  0  0  0  0  0
    0.6117   -2.2964    3.2847 H   0  0  0  0  0  0  0  0  0  0  0  0
   -0.9761   -2.7185    4.9064 H   0  0  0  0  0  0  0  0  0  0  0  0
   -3.0720    1.3433    7.2022 H   0  0  0  0  0  0  0  0  0  0  0  0
   -3.8390    2.9235    7.1595 H   0  0  0  0  0  0  0  0  0  0  0  0
   -2.9834    2.3810    8.6210 H   0  0  0  0  0  0  0  0  0  0  0  0
   -0.7884    5.8016    8.6531 H   0  0  0  0  0  0  0  0  0  0  0  0
   -0.1098    4.2191    8.9205 H   0  0  0  0  0  0  0  0  0  0  0  0
   -1.7625    4.5492    9.4029 H   0  0  0  0  0  0  0  0  0  0  0  0
    3.1266    1.9689    2.5761 H   0  0  0  0  0  0  0  0  0  0  0  0
    1.5641    2.3784    1.9521 H   0  0  0  0  0  0  0  0  0  0  0  0
    2.8946    4.8987    2.1015 H   0  0  0  0  0  0  0  0  0  0  0  0
    1.3112    6.7756    2.9848 H   0  0  0  0  0  0  0  0  0  0  0  0
   -0.1755    3.7629    2.5685 H   0  0  0  0  0  0  0  0  0  0  0  0
  1  2  1  0
  1 31  1  0
  1 32  1  0
  1 33  1  0
  2  3  1  0
  2 34  1  0
  2 35  1  0
  3  8  1  0
  3  4  1  0
  3 36  1  6
  4  5  1  0
  4 37  1  0
  4 38  1  0
  5 24  1  0
  5  6  1  0
  5 39  1  6
  6  7  1  0
  6 40  1  0
  6 41  1  0
  7  8  1  0
  7 42  1  0
  7 43  1  0
  8  9  1  0
  8 44  1  1
  9 18  1  1
  9 29  1  0
  9 10  1  0
 10 16  2  0
 10 11  1  0
 11 12  2  0
 11 23  1  0
 12 13  1  0
 12 45  1  0
 13 14  2  0
 13 46  1  0
 14 15  1  0
 14 16  1  0
 15 47  1  0
 16 17  1  0
 17 18  1  0
 18 19  2  0
 19 20  1  0
 19 21  1  0
 20 48  1  0
 20 49  1  0
 20 50  1  0
 21 22  1  0
 22 51  1  0
 22 52  1  0
 22 53  1  0
 24 23  1  6
 23 54  1  0
 23 55  1  0
 24 29  1  0
 24 25  1  0
 25 26  2  0
 25 56  1  0
 26 27  1  0
 26 57  1  0
 27 28  2  0
 27 29  1  0
 29 30  1  6
 30 58  1  0
M  CHG  1  21  -1
M  END
>  <i_m_ct_stereo_status>  (254) 
1

>  <s_m_source_file>  (254) 
/var/tmp/pbs.5076255.sched01/tmp4185l44a/86vs10_z9v.sdf

>  <i_m_source_file_index>  (254) 
22

>  <i_lp_mmshare_version>  (254) 
48012

>  <i_f3d_flags>  (254) 
0

>  <s_epik_input>  (254) 
W0NIM11bQ0gyXVtDQEBIXShbQ0BASF0xW0NAQF0yMzQpW0NIMl1bQ0BIXShbQ0gyXVtDSDJdMSlbQ0BdNShbQ0BdNChbT0hdKUMoPU8pW0NIXT1bQ0hdNSlbQ0gyXWM2YzJjKGMoW09IXSlbY0hdW2NIXTYpT1tDQEhdMy9DKFtDSDNdKT1OL1tDSDNd

>  <s_epik_cmdline>  (254) 
J2VwaWtfcHl0aG9uJywgJy1waHQnLCAnMi4wJywgJy1waCcsICc3LjAnLCAnLXRuJywgJzgnLCAnLW1hJywgJzIwMCcsICctaW1hZScsICc8aW5maWxlLm1hZT4nLCAnLW9tYWUnLCAnPG91dGZpbGUubWFlPic=

>  <r_epik_Ionization_Penalty>  (254) 
0.608269

>  <r_epik_Ionization_Penalty_Charging>  (254) 
0

>  <r_epik_Ionization_Penalty_Neutral>  (254) 
0.608269

>  <r_epik_State_Penalty>  (254) 
0.623156

>  <r_epik_Charging_Adjusted_Penalty>  (254) 
0.623156

>  <i_epik_Tot_Q>  (254) 
-1

>  <i_epik_Tot_abs_Q>  (254) 
1

>  <s_epik_Chemistry_Notes>  (254) 
This compound has an imine and may undergo hydrolysis.

>  <s_lp_Force_Field>  (254) 
OPLS3e

>  <r_lp_Energy>  (254) 
107.866

>  <b_lp_Chiralities_Consistent>  (254) 
1

>  <s_lp_Variant>  (254) 
73:0-2

>  <s_i_glide_gridfile>  (254) 
pfpi4k_grid

>  <i_i_glide_lignum>  (254) 
22

>  <i_i_glide_rotatable_bonds>  (254) 
4

>  <r_i_docking_score>  (254) 
-3.07397

>  <r_i_glide_ligand_efficiency>  (254) 
-0.102466

>  <r_i_glide_ligand_efficiency_sa>  (254) 
-0.318385

>  <r_i_glide_ligand_efficiency_ln>  (254) 
-0.69844

>  <r_i_glide_gscore>  (254) 
-3.07397

>  <r_i_glide_lipo>  (254) 
-0.137647

>  <r_i_glide_hbond>  (254) 
0

>  <r_i_glide_metal>  (254) 
-0

>  <r_i_glide_rewards>  (254) 
-0.63754

>  <r_i_glide_evdw>  (254) 
-22.986

>  <r_i_glide_ecoul>  (254) 
-8.1492

>  <r_i_glide_erotb>  (254) 
0.118997

>  <r_i_glide_esite>  (254) 
-0.0461009

>  <r_i_glide_emodel>  (254) 
-30.8997

>  <r_i_glide_energy>  (254) 
-31.1352

>  <r_i_glide_einternal>  (254) 
14.9838

>  <r_i_glide_intrahb_reward>  (254) 
-0

>  <i_i_glide_confnum>  (254) 
4

>  <i_i_glide_posenum>  (254) 
21

>  <r_i_glide_eff_state_penalty>  (254) 
0

>  <ligand_id>  (254) 
73

>  <original_smiles>  (254) 
CCC1CC2CCC1C13c4c(ccc(O)c4OC1C(C)=NC)CC21C=CC(=O)C13O

>  <smiles>  (254) 
[H]Oc1c([H])c([H])c2c3c1OC(=C([N-]C([H])([H])[H])C([H])([H])[H])C31C3(O[H])C(=O)C([H])=C([H])C3(C2([H])[H])C2([H])C([H])([H])C([H])([H])C1([H])C([H])(C([H])([H])C([H])([H])[H])C2([H])[H]

$$$$
73:1:1
     RDKit          3D

 58 63  0  0  1  0  0  0  0  0999 V2000
    4.4454   -9.6445    2.4820 C   0  0  0  0  0  0  0  0  0  0  0  0
    5.2479   -8.6508    3.3449 C   0  0  0  0  0  0  0  0  0  0  0  0
    4.6493   -7.2143    3.3866 C   0  0  2  0  0  0  0  0  0  0  0  0
    5.6464   -6.1720    3.9557 C   0  0  0  0  0  0  0  0  0  0  0  0
    5.1386   -5.4471    5.2376 C   0  0  2  0  0  0  0  0  0  0  0  0
    4.7627   -6.5631    6.2390 C   0  0  0  0  0  0  0  0  0  0  0  0
    3.6354   -7.4347    5.6786 C   0  0  0  0  0  0  0  0  0  0  0  0
    3.3125   -7.1364    4.1844 C   0  0  1  0  0  0  0  0  0  0  0  0
    2.4001   -5.8529    3.9173 C   0  0  1  0  0  0  0  0  0  0  0  0
    2.8275   -5.1229    2.6216 C   0  0  0  0  0  0  0  0  0  0  0  0
    3.7881   -4.0901    2.4749 C   0  0  0  0  0  0  0  0  0  0  0  0
    4.0225   -3.6211    1.1663 C   0  0  0  0  0  0  0  0  0  0  0  0
    3.2666   -4.1280    0.0801 C   0  0  0  0  0  0  0  0  0  0  0  0
    2.2134   -5.0546    0.2878 C   0  0  0  0  0  0  0  0  0  0  0  0
    1.3929   -5.4419   -0.7094 O   0  0  0  0  0  0  0  0  0  0  0  0
    2.0016   -5.5323    1.5956 C   0  0  0  0  0  0  0  0  0  0  0  0
    0.9499   -6.2442    2.0488 O   0  0  0  0  0  0  0  0  0  0  0  0
    1.0104   -6.3666    3.4153 C   0  0  0  0  0  0  0  0  0  0  0  0
   -0.0418   -7.0289    4.0602 C   0  0  0  0  0  0  0  0  0  0  0  0
   -1.2804   -7.3791    3.2220 C   0  0  0  0  0  0  0  0  0  0  0  0
   -0.0840   -7.3630    5.3603 N   0  0  0  0  0  0  0  0  0  0  0  0
    0.3681   -8.6785    5.7976 C   0  0  0  0  0  0  0  0  0  0  0  0
    4.3695   -3.4930    3.7620 C   0  0  0  0  0  0  0  0  0  0  0  0
    4.0545   -4.2913    5.0460 C   0  0  2  0  0  0  0  0  0  0  0  0
    4.0742   -3.4880    6.3329 C   0  0  0  0  0  0  0  0  0  0  0  0
    3.0878   -3.8042    7.1848 C   0  0  0  0  0  0  0  0  0  0  0  0
    2.1887   -4.7480    6.5214 C   0  0  0  0  0  0  0  0  0  0  0  0
    1.2798   -5.3641    7.0717 O   0  0  0  0  0  0  0  0  0  0  0  0
    2.5298   -4.7125    5.0089 C   0  0  2  0  0  0  0  0  0  0  0  0
    1.6821   -3.6406    4.5754 O   0  0  0  0  0  0  0  0  0  0  0  0
    4.9036  -10.6342    2.5028 H   0  0  0  0  0  0  0  0  0  0  0  0
    4.4019   -9.3235    1.4401 H   0  0  0  0  0  0  0  0  0  0  0  0
    3.4211   -9.7709    2.8334 H   0  0  0  0  0  0  0  0  0  0  0  0
    5.3599   -9.0653    4.3469 H   0  0  0  0  0  0  0  0  0  0  0  0
    6.2621   -8.6086    2.9473 H   0  0  0  0  0  0  0  0  0  0  0  0
    4.4739   -6.9739    2.3374 H   0  0  0  0  0  0  0  0  0  0  0  0
    6.5790   -6.6739    4.2092 H   0  0  0  0  0  0  0  0  0  0  0  0
    5.9376   -5.4740    3.1754 H   0  0  0  0  0  0  0  0  0  0  0  0
    6.0163   -4.9541    5.6528 H   0  0  0  0  0  0  0  0  0  0  0  0
    5.6324   -7.1962    6.4286 H   0  0  0  0  0  0  0  0  0  0  0  0
    4.4796   -6.1733    7.2170 H   0  0  0  0  0  0  0  0  0  0  0  0
    3.8897   -8.4867    5.8091 H   0  0  0  0  0  0  0  0  0  0  0  0
    2.7744   -7.3017    6.3189 H   0  0  0  0  0  0  0  0  0  0  0  0
    2.7284   -7.9783    3.8236 H   0  0  0  0  0  0  0  0  0  0  0  0
    4.7515   -2.8419    1.0006 H   0  0  0  0  0  0  0  0  0  0  0  0
    3.4401   -3.7463   -0.9095 H   0  0  0  0  0  0  0  0  0  0  0  0
    1.8756   -5.4545   -1.5364 H   0  0  0  0  0  0  0  0  0  0  0  0
   -1.1985   -7.0668    2.1767 H   0  0  0  0  0  0  0  0  0  0  0  0
   -2.1611   -6.8898    3.6398 H   0  0  0  0  0  0  0  0  0  0  0  0
   -1.4464   -8.4573    3.2189 H   0  0  0  0  0  0  0  0  0  0  0  0
    0.4387   -8.7231    6.8828 H   0  0  0  0  0  0  0  0  0  0  0  0
    1.3720   -8.8971    5.4377 H   0  0  0  0  0  0  0  0  0  0  0  0
   -0.2561   -9.4915    5.4443 H   0  0  0  0  0  0  0  0  0  0  0  0
    5.4424   -3.3316    3.6577 H   0  0  0  0  0  0  0  0  0  0  0  0
    3.9411   -2.4924    3.8573 H   0  0  0  0  0  0  0  0  0  0  0  0
    4.8674   -2.7840    6.5334 H   0  0  0  0  0  0  0  0  0  0  0  0
    2.9364   -3.4041    8.1759 H   0  0  0  0  0  0  0  0  0  0  0  0
    1.8427   -3.5069    3.6560 H   0  0  0  0  0  0  0  0  0  0  0  0
  1  2  1  0
  1 31  1  0
  1 32  1  0
  1 33  1  0
  2  3  1  0
  2 34  1  0
  2 35  1  0
  3  8  1  0
  3  4  1  0
  3 36  1  6
  4  5  1  0
  4 37  1  0
  4 38  1  0
  5 24  1  0
  5  6  1  0
  5 39  1  1
  6  7  1  0
  6 40  1  0
  6 41  1  0
  7  8  1  0
  7 42  1  0
  7 43  1  0
  8  9  1  0
  8 44  1  6
  9 18  1  6
  9 29  1  0
  9 10  1  0
 10 16  2  0
 10 11  1  0
 11 12  2  0
 11 23  1  0
 12 13  1  0
 12 45  1  0
 13 14  2  0
 13 46  1  0
 14 15  1  0
 14 16  1  0
 15 47  1  0
 16 17  1  0
 17 18  1  0
 18 19  2  0
 19 20  1  0
 19 21  1  0
 20 48  1  0
 20 49  1  0
 20 50  1  0
 21 22  1  0
 22 51  1  0
 22 52  1  0
 22 53  1  0
 24 23  1  6
 23 54  1  0
 23 55  1  0
 24 29  1  0
 24 25  1  0
 25 26  2  0
 25 56  1  0
 26 27  1  0
 26 57  1  0
 27 28  2  0
 27 29  1  0
 29 30  1  6
 30 58  1  0
M  CHG  1  21  -1
M  END
>  <i_m_ct_stereo_status>  (255) 
1

>  <s_m_source_file>  (255) 
/var/tmp/pbs.5076255.sched01/tmp4185l44a/86vs10_z9v.sdf

>  <i_m_source_file_index>  (255) 
22

>  <i_lp_mmshare_version>  (255) 
48012

>  <i_f3d_flags>  (255) 
0

>  <s_epik_input>  (255) 
W0NIM11bQ0gyXVtDQEBIXShbQ0BASF0xW0NAQF0yMzQpW0NIMl1bQ0BIXShbQ0gyXVtDSDJdMSlbQ0BdNShbQ0BdNChbT0hdKUMoPU8pW0NIXT1bQ0hdNSlbQ0gyXWM2YzJjKGMoW09IXSlbY0hdW2NIXTYpT1tDQEhdMy9DKFtDSDNdKT1OL1tDSDNd

>  <s_epik_cmdline>  (255) 
J2VwaWtfcHl0aG9uJywgJy1waHQnLCAnMi4wJywgJy1waCcsICc3LjAnLCAnLXRuJywgJzgnLCAnLW1hJywgJzIwMCcsICctaW1hZScsICc8aW5maWxlLm1hZT4nLCAnLW9tYWUnLCAnPG91dGZpbGUubWFlPic=

>  <r_epik_Ionization_Penalty>  (255) 
0.608269

>  <r_epik_Ionization_Penalty_Charging>  (255) 
0

>  <r_epik_Ionization_Penalty_Neutral>  (255) 
0.608269

>  <r_epik_State_Penalty>  (255) 
0.623156

>  <r_epik_Charging_Adjusted_Penalty>  (255) 
0.623156

>  <i_epik_Tot_Q>  (255) 
-1

>  <i_epik_Tot_abs_Q>  (255) 
1

>  <s_epik_Chemistry_Notes>  (255) 
This compound has an imine and may undergo hydrolysis.

>  <s_lp_Force_Field>  (255) 
OPLS3e

>  <r_lp_Energy>  (255) 
107.866

>  <b_lp_Chiralities_Consistent>  (255) 
1

>  <s_lp_Variant>  (255) 
73:0-2

>  <s_i_glide_gridfile>  (255) 
pfpi4k_grid

>  <i_i_glide_lignum>  (255) 
22

>  <i_i_glide_rotatable_bonds>  (255) 
4

>  <r_i_docking_score>  (255) 
-2.52647

>  <r_i_glide_ligand_efficiency>  (255) 
-0.0842156

>  <r_i_glide_ligand_efficiency_sa>  (255) 
-0.261677

>  <r_i_glide_ligand_efficiency_ln>  (255) 
-0.574041

>  <r_i_glide_gscore>  (255) 
-2.52647

>  <r_i_glide_lipo>  (255) 
-0.0224259

>  <r_i_glide_hbond>  (255) 
-0.0400843

>  <r_i_glide_metal>  (255) 
-0

>  <r_i_glide_rewards>  (255) 
-0.63754

>  <r_i_glide_evdw>  (255) 
-16.1023

>  <r_i_glide_ecoul>  (255) 
-7.602

>  <r_i_glide_erotb>  (255) 
0.118997

>  <r_i_glide_esite>  (255) 
0

>  <r_i_glide_emodel>  (255) 
-27.5111

>  <r_i_glide_energy>  (255) 
-23.7043

>  <r_i_glide_einternal>  (255) 
1.7924

>  <r_i_glide_intrahb_reward>  (255) 
-0

>  <i_i_glide_confnum>  (255) 
1

>  <i_i_glide_posenum>  (255) 
1

>  <r_i_glide_eff_state_penalty>  (255) 
0

>  <ligand_id>  (255) 
73

>  <original_smiles>  (255) 
CCC1CC2CCC1C13c4c(ccc(O)c4OC1C(C)=NC)CC21C=CC(=O)C13O

>  <smiles>  (255) 
[H]Oc1c([H])c([H])c2c3c1OC(=C([N-]C([H])([H])[H])C([H])([H])[H])C31C3(O[H])C(=O)C([H])=C([H])C3(C2([H])[H])C2([H])C([H])([H])C([H])([H])C1([H])C([H])(C([H])([H])C([H])([H])[H])C2([H])[H]

$$$$
73:1:2
     RDKit          3D

 58 63  0  0  1  0  0  0  0  0999 V2000
    5.0097    1.9767    7.8080 C   0  0  0  0  0  0  0  0  0  0  0  0
    3.7379    2.7499    8.1909 C   0  0  0  0  0  0  0  0  0  0  0  0
    3.0866    3.5239    7.0132 C   0  0  2  0  0  0  0  0  0  0  0  0
    3.9607    4.7046    6.5230 C   0  0  0  0  0  0  0  0  0  0  0  0
    3.2562    6.0864    6.6383 C   0  0  2  0  0  0  0  0  0  0  0  0
    2.7742    6.2095    8.1065 C   0  0  0  0  0  0  0  0  0  0  0  0
    1.7589    5.1018    8.4597 C   0  0  0  0  0  0  0  0  0  0  0  0
    1.6506    4.0295    7.3460 C   0  0  1  0  0  0  0  0  0  0  0  0
    0.7517    4.4308    6.0927 C   0  0  1  0  0  0  0  0  0  0  0  0
    1.3151    3.8616    4.7721 C   0  0  0  0  0  0  0  0  0  0  0  0
    2.2510    4.4570    3.8851 C   0  0  0  0  0  0  0  0  0  0  0  0
    2.6166    3.6970    2.7631 C   0  0  0  0  0  0  0  0  0  0  0  0
    2.0409    2.4279    2.5219 C   0  0  0  0  0  0  0  0  0  0  0  0
    1.0096    1.9463    3.3563 C   0  0  0  0  0  0  0  0  0  0  0  0
    0.3642    0.7807    3.0526 O   0  0  0  0  0  0  0  0  0  0  0  0
    0.6293    2.6906    4.4891 C   0  0  0  0  0  0  0  0  0  0  0  0
   -0.4332    2.5012    5.2947 O   0  0  0  0  0  0  0  0  0  0  0  0
   -0.5414    3.5550    6.1725 C   0  0  0  0  0  0  0  0  0  0  0  0
   -1.6503    3.5800    7.0112 C   0  0  0  0  0  0  0  0  0  0  0  0
   -2.7598    2.5412    6.7635 C   0  0  0  0  0  0  0  0  0  0  0  0
   -1.8785    4.4683    7.9987 N   0  0  0  0  0  0  0  0  0  0  0  0
   -1.8849    4.0845    9.3993 C   0  0  0  0  0  0  0  0  0  0  0  0
    2.6392    5.9150    4.1639 C   0  0  0  0  0  0  0  0  0  0  0  0
    2.1768    6.4504    5.5332 C   0  0  2  0  0  0  0  0  0  0  0  0
    2.0156    7.9573    5.6009 C   0  0  0  0  0  0  0  0  0  0  0  0
    0.9381    8.3480    6.2917 C   0  0  0  0  0  0  0  0  0  0  0  0
    0.1715    7.1567    6.6520 C   0  0  0  0  0  0  0  0  0  0  0  0
   -0.7875    7.1363    7.4141 O   0  0  0  0  0  0  0  0  0  0  0  0
    0.6910    5.9855    5.7867 C   0  0  2  0  0  0  0  0  0  0  0  0
   -0.1185    6.1391    4.6117 O   0  0  0  0  0  0  0  0  0  0  0  0
    5.4002    1.4302    8.6662 H   0  0  0  0  0  0  0  0  0  0  0  0
    5.7981    2.6423    7.4594 H   0  0  0  0  0  0  0  0  0  0  0  0
    4.8105    1.2517    7.0184 H   0  0  0  0  0  0  0  0  0  0  0  0
    3.0199    2.0292    8.5843 H   0  0  0  0  0  0  0  0  0  0  0  0
    3.9689    3.4242    9.0166 H   0  0  0  0  0  0  0  0  0  0  0  0
    3.0267    2.7839    6.2174 H   0  0  0  0  0  0  0  0  0  0  0  0
    4.8637    4.7571    7.1314 H   0  0  0  0  0  0  0  0  0  0  0  0
    4.3393    4.5012    5.5233 H   0  0  0  0  0  0  0  0  0  0  0  0
    4.0574    6.8157    6.5164 H   0  0  0  0  0  0  0  0  0  0  0  0
    3.6364    6.1116    8.7697 H   0  0  0  0  0  0  0  0  0  0  0  0
    2.3689    7.1961    8.3318 H   0  0  0  0  0  0  0  0  0  0  0  0
    2.0644    4.6341    9.3951 H   0  0  0  0  0  0  0  0  0  0  0  0
    0.7833    5.5186    8.6903 H   0  0  0  0  0  0  0  0  0  0  0  0
    1.1590    3.1770    7.8073 H   0  0  0  0  0  0  0  0  0  0  0  0
    3.3477    4.0920    2.0784 H   0  0  0  0  0  0  0  0  0  0  0  0
    2.3450    1.8535    1.6628 H   0  0  0  0  0  0  0  0  0  0  0  0
    0.6056    0.4465    2.2037 H   0  0  0  0  0  0  0  0  0  0  0  0
   -2.5505    1.8924    5.9139 H   0  0  0  0  0  0  0  0  0  0  0  0
   -3.7061    3.0408    6.5512 H   0  0  0  0  0  0  0  0  0  0  0  0
   -2.8982    1.8903    7.6296 H   0  0  0  0  0  0  0  0  0  0  0  0
   -1.9044    4.9562   10.0467 H   0  0  0  0  0  0  0  0  0  0  0  0
   -1.0083    3.4987    9.6760 H   0  0  0  0  0  0  0  0  0  0  0  0
   -2.7592    3.4797    9.6317 H   0  0  0  0  0  0  0  0  0  0  0  0
    3.7110    6.0513    4.0189 H   0  0  0  0  0  0  0  0  0  0  0  0
    2.1699    6.5012    3.3724 H   0  0  0  0  0  0  0  0  0  0  0  0
    2.7440    8.6271    5.1675 H   0  0  0  0  0  0  0  0  0  0  0  0
    0.6342    9.3610    6.5113 H   0  0  0  0  0  0  0  0  0  0  0  0
    0.2401    5.5804    3.9334 H   0  0  0  0  0  0  0  0  0  0  0  0
  1  2  1  0
  1 31  1  0
  1 32  1  0
  1 33  1  0
  2  3  1  0
  2 34  1  0
  2 35  1  0
  3  8  1  0
  3  4  1  0
  3 36  1  6
  4  5  1  0
  4 37  1  0
  4 38  1  0
  5 24  1  0
  5  6  1  0
  5 39  1  1
  6  7  1  0
  6 40  1  0
  6 41  1  0
  7  8  1  0
  7 42  1  0
  7 43  1  0
  8  9  1  0
  8 44  1  1
  9 18  1  1
  9 29  1  0
  9 10  1  0
 10 16  2  0
 10 11  1  0
 11 12  2  0
 11 23  1  0
 12 13  1  0
 12 45  1  0
 13 14  2  0
 13 46  1  0
 14 15  1  0
 14 16  1  0
 15 47  1  0
 16 17  1  0
 17 18  1  0
 18 19  2  0
 19 20  1  0
 19 21  1  0
 20 48  1  0
 20 49  1  0
 20 50  1  0
 21 22  1  0
 22 51  1  0
 22 52  1  0
 22 53  1  0
 24 23  1  6
 23 54  1  0
 23 55  1  0
 24 29  1  0
 24 25  1  0
 25 26  2  0
 25 56  1  0
 26 27  1  0
 26 57  1  0
 27 28  2  0
 27 29  1  0
 29 30  1  6
 30 58  1  0
M  CHG  1  21  -1
M  END
>  <i_m_ct_stereo_status>  (256) 
1

>  <s_m_source_file>  (256) 
/var/tmp/pbs.5076255.sched01/tmp4185l44a/86vs10_z9v.sdf

>  <i_m_source_file_index>  (256) 
22

>  <i_lp_mmshare_version>  (256) 
48012

>  <i_f3d_flags>  (256) 
0

>  <s_epik_input>  (256) 
W0NIM11bQ0gyXVtDQEBIXShbQ0BASF0xW0NAQF0yMzQpW0NIMl1bQ0BIXShbQ0gyXVtDSDJdMSlbQ0BdNShbQ0BdNChbT0hdKUMoPU8pW0NIXT1bQ0hdNSlbQ0gyXWM2YzJjKGMoW09IXSlbY0hdW2NIXTYpT1tDQEhdMy9DKFtDSDNdKT1OL1tDSDNd

>  <s_epik_cmdline>  (256) 
J2VwaWtfcHl0aG9uJywgJy1waHQnLCAnMi4wJywgJy1waCcsICc3LjAnLCAnLXRuJywgJzgnLCAnLW1hJywgJzIwMCcsICctaW1hZScsICc8aW5maWxlLm1hZT4nLCAnLW9tYWUnLCAnPG91dGZpbGUubWFlPic=

>  <r_epik_Ionization_Penalty>  (256) 
0.608269

>  <r_epik_Ionization_Penalty_Charging>  (256) 
0

>  <r_epik_Ionization_Penalty_Neutral>  (256) 
0.608269

>  <r_epik_State_Penalty>  (256) 
0.623156

>  <r_epik_Charging_Adjusted_Penalty>  (256) 
0.623156

>  <i_epik_Tot_Q>  (256) 
-1

>  <i_epik_Tot_abs_Q>  (256) 
1

>  <s_epik_Chemistry_Notes>  (256) 
This compound has an imine and may undergo hydrolysis.

>  <s_lp_Force_Field>  (256) 
OPLS3e

>  <r_lp_Energy>  (256) 
107.866

>  <b_lp_Chiralities_Consistent>  (256) 
1

>  <s_lp_Variant>  (256) 
73:0-2

>  <s_i_glide_gridfile>  (256) 
pfpi4k_grid

>  <i_i_glide_lignum>  (256) 
22

>  <i_i_glide_rotatable_bonds>  (256) 
4

>  <r_i_docking_score>  (256) 
-2.25147

>  <r_i_glide_ligand_efficiency>  (256) 
-0.0750491

>  <r_i_glide_ligand_efficiency_sa>  (256) 
-0.233195

>  <r_i_glide_ligand_efficiency_ln>  (256) 
-0.511559

>  <r_i_glide_gscore>  (256) 
-2.25147

>  <r_i_glide_lipo>  (256) 
-0.21609

>  <r_i_glide_hbond>  (256) 
0

>  <r_i_glide_metal>  (256) 
-0

>  <r_i_glide_rewards>  (256) 
-0.63754

>  <r_i_glide_evdw>  (256) 
-21.2429

>  <r_i_glide_ecoul>  (256) 
-2.91309

>  <r_i_glide_erotb>  (256) 
0.118997

>  <r_i_glide_esite>  (256) 
-0.0177312

>  <r_i_glide_emodel>  (256) 
-29.2522

>  <r_i_glide_energy>  (256) 
-24.156

>  <r_i_glide_einternal>  (256) 
0.735155

>  <r_i_glide_intrahb_reward>  (256) 
-0

>  <i_i_glide_confnum>  (256) 
4

>  <i_i_glide_posenum>  (256) 
32

>  <r_i_glide_eff_state_penalty>  (256) 
0

>  <ligand_id>  (256) 
73

>  <original_smiles>  (256) 
CCC1CC2CCC1C13c4c(ccc(O)c4OC1C(C)=NC)CC21C=CC(=O)C13O

>  <smiles>  (256) 
[H]Oc1c([H])c([H])c2c3c1OC(=C([N-]C([H])([H])[H])C([H])([H])[H])C31C3(O[H])C(=O)C([H])=C([H])C3(C2([H])[H])C2([H])C([H])([H])C([H])([H])C1([H])C([H])(C([H])([H])C([H])([H])[H])C2([H])[H]

$$$$
74:0:0
     RDKit          3D

 35 39  0  0  1  0  0  0  0  0999 V2000
    6.6333   -5.1427    0.5156 O   0  0  0  0  0  0  0  0  0  0  0  0
    5.9391   -4.5242    1.3214 C   0  0  0  0  0  0  0  0  0  0  0  0
    5.7201   -4.9473    2.7716 C   0  0  0  0  0  0  0  0  0  0  0  0
    4.9167   -3.8979    3.3264 O   0  0  0  0  0  0  0  0  0  0  0  0
    4.6535   -3.0118    2.3200 C   0  0  0  0  0  0  0  0  0  0  0  0
    5.1779   -3.2995    1.1302 C   0  0  0  0  0  0  0  0  0  0  0  0
    5.0771   -2.3634   -0.0844 C   0  0  1  0  0  0  0  0  0  0  0  0
    4.9661   -0.8933    0.4422 C   0  0  0  0  0  0  0  0  0  0  0  0
    4.0140   -0.7380    1.6290 C   0  0  0  0  0  0  0  0  0  0  0  0
    3.2383    0.4266    1.7886 C   0  0  0  0  0  0  0  0  0  0  0  0
    2.3897    0.5600    2.9043 C   0  0  0  0  0  0  0  0  0  0  0  0
    2.3170   -0.4685    3.8659 C   0  0  0  0  0  0  0  0  0  0  0  0
    3.0779   -1.6419    3.7054 C   0  0  0  0  0  0  0  0  0  0  0  0
    3.9169   -1.7793    2.5835 C   0  0  0  0  0  0  0  0  0  0  0  0
    6.2000   -2.4987   -1.1414 C   0  0  0  0  0  0  0  0  0  0  0  0
    7.3959   -2.2556   -0.9718 O   0  0  0  0  0  0  0  0  0  0  0  0
    5.5687   -2.9274   -2.4684 C   0  0  2  0  0  0  0  0  0  0  0  0
    4.6296   -1.8121   -2.9119 C   0  0  0  0  0  0  0  0  0  0  0  0
    3.6059   -1.7537   -2.0556 C   0  0  0  0  0  0  0  0  0  0  0  0
    3.8646   -2.7936   -0.9800 C   0  0  1  0  0  0  0  0  0  0  0  0
    4.5198   -3.8535   -1.8789 C   0  0  0  0  0  0  0  0  0  0  0  0
    5.2008   -5.9049    2.8207 H   0  0  0  0  0  0  0  0  0  0  0  0
    6.6605   -5.0325    3.3153 H   0  0  0  0  0  0  0  0  0  0  0  0
    5.9449   -0.5870    0.8149 H   0  0  0  0  0  0  0  0  0  0  0  0
    4.7272   -0.1780   -0.3426 H   0  0  0  0  0  0  0  0  0  0  0  0
    3.2976    1.2209    1.0602 H   0  0  0  0  0  0  0  0  0  0  0  0
    1.8041    1.4608    3.0215 H   0  0  0  0  0  0  0  0  0  0  0  0
    1.6740   -0.3579    4.7241 H   0  0  0  0  0  0  0  0  0  0  0  0
    3.0067   -2.4434    4.4247 H   0  0  0  0  0  0  0  0  0  0  0  0
    6.2291   -3.3549   -3.2262 H   0  0  0  0  0  0  0  0  0  0  0  0
    4.7689   -1.1960   -3.7850 H   0  0  0  0  0  0  0  0  0  0  0  0
    2.7553   -1.0843   -2.0720 H   0  0  0  0  0  0  0  0  0  0  0  0
    2.9666   -3.1219   -0.4522 H   0  0  0  0  0  0  0  0  0  0  0  0
    3.8350   -4.2068   -2.6524 H   0  0  0  0  0  0  0  0  0  0  0  0
    4.9139   -4.7346   -1.3610 H   0  0  0  0  0  0  0  0  0  0  0  0
  1  2  2  0
  2  6  1  0
  2  3  1  0
  3  4  1  0
  3 22  1  0
  3 23  1  0
  4  5  1  0
  5 14  1  0
  5  6  2  0
  6  7  1  0
  7 20  1  0
  7  8  1  1
  7 15  1  0
  8  9  1  0
  8 24  1  0
  8 25  1  0
  9 14  2  0
  9 10  1  0
 10 11  2  0
 10 26  1  0
 11 12  1  0
 11 27  1  0
 12 13  2  0
 12 28  1  0
 13 14  1  0
 13 29  1  0
 15 16  2  0
 15 17  1  0
 17 21  1  0
 17 18  1  0
 17 30  1  6
 18 19  2  0
 18 31  1  0
 19 20  1  0
 19 32  1  0
 20 21  1  0
 20 33  1  1
 21 34  1  0
 21 35  1  0
M  END
>  <i_m_ct_stereo_status>  (257) 
1

>  <s_m_source_file>  (257) 
/var/tmp/pbs.5076255.sched01/tmp4185l44a/86vs10_z9v.sdf

>  <i_m_source_file_index>  (257) 
23

>  <i_lp_mmshare_version>  (257) 
48012

>  <i_f3d_flags>  (257) 
0

>  <s_epik_input>  (257) 
W2NIXTFbY0hdW2NIXVtjSF1jKFtDSDJdMiljMUMoT1tDSDJdQzM9Tyk9QzNbQ0BAXTI0W0NASF01W0NIXT1bQ0hdW0NAQEhdKEM0PU8pW0NIMl01

>  <s_epik_cmdline>  (257) 
J2VwaWtfcHl0aG9uJywgJy1waHQnLCAnMi4wJywgJy1waCcsICc3LjAnLCAnLXRuJywgJzgnLCAnLW1hJywgJzIwMCcsICctaW1hZScsICc8aW5maWxlLm1hZT4nLCAnLW9tYWUnLCAnPG91dGZpbGUubWFlPic=

>  <r_lp_tautomer_probability>  (257) 
1

>  <r_epik_Ionization_Penalty>  (257) 
0.0290675

>  <r_epik_Ionization_Penalty_Charging>  (257) 
0

>  <r_epik_Ionization_Penalty_Neutral>  (257) 
0.0290675

>  <r_epik_State_Penalty>  (257) 
0.0240424

>  <r_epik_Charging_Adjusted_Penalty>  (257) 
0.0240424

>  <i_epik_Tot_Q>  (257) 
0

>  <i_epik_Tot_abs_Q>  (257) 
0

>  <s_lp_Force_Field>  (257) 
OPLS3e

>  <r_lp_Energy>  (257) 
29.4992

>  <b_lp_Chiralities_Consistent>  (257) 
1

>  <s_lp_Variant>  (257) 
74:0-1

>  <s_i_glide_gridfile>  (257) 
pfpi4k_grid

>  <i_i_glide_lignum>  (257) 
23

>  <i_i_glide_rotatable_bonds>  (257) 
0

>  <r_i_docking_score>  (257) 
-3.82979

>  <r_i_glide_ligand_efficiency>  (257) 
-0.182371

>  <r_i_glide_ligand_efficiency_sa>  (257) 
-0.503147

>  <r_i_glide_ligand_efficiency_ln>  (257) 
-0.946907

>  <r_i_glide_gscore>  (257) 
-3.82979

>  <r_i_glide_lipo>  (257) 
-0.50414

>  <r_i_glide_hbond>  (257) 
-0.16

>  <r_i_glide_metal>  (257) 
-0

>  <r_i_glide_rewards>  (257) 
-1.61202

>  <r_i_glide_evdw>  (257) 
-22.9876

>  <r_i_glide_ecoul>  (257) 
-2.51488

>  <r_i_glide_erotb>  (257) 
0

>  <r_i_glide_esite>  (257) 
-0.027015

>  <r_i_glide_emodel>  (257) 
-31.8638

>  <r_i_glide_energy>  (257) 
-25.5025

>  <r_i_glide_einternal>  (257) 
0

>  <r_i_glide_intrahb_reward>  (257) 
-0

>  <i_i_glide_confnum>  (257) 
1

>  <i_i_glide_posenum>  (257) 
35

>  <r_i_glide_eff_state_penalty>  (257) 
0

>  <ligand_id>  (257) 
74

>  <original_smiles>  (257) 
O=C1COC2=C1C1(Cc3ccccc32)C(=O)C2C=CC1C2

>  <smiles>  (257) 
[H]C1=C([H])C2([H])C([H])([H])C1([H])C(=O)C21C2=C(OC([H])([H])C2=O)c2c([H])c([H])c([H])c([H])c2C1([H])[H]

$$$$
74:0:1
     RDKit          3D

 35 39  0  0  1  0  0  0  0  0999 V2000
    8.2932   -3.6667   -0.2983 O   0  0  0  0  0  0  0  0  0  0  0  0
    7.5888   -4.3047    0.4862 C   0  0  0  0  0  0  0  0  0  0  0  0
    8.1127   -5.4015    1.4085 C   0  0  0  0  0  0  0  0  0  0  0  0
    6.9633   -5.8085    2.1588 O   0  0  0  0  0  0  0  0  0  0  0  0
    5.8999   -5.0837    1.7025 C   0  0  0  0  0  0  0  0  0  0  0  0
    6.1549   -4.2146    0.7272 C   0  0  0  0  0  0  0  0  0  0  0  0
    5.1002   -3.2440    0.1681 C   0  0  1  0  0  0  0  0  0  0  0  0
    4.0670   -2.9356    1.3048 C   0  0  0  0  0  0  0  0  0  0  0  0
    3.6448   -4.1734    2.0982 C   0  0  0  0  0  0  0  0  0  0  0  0
    2.3357   -4.2942    2.6092 C   0  0  0  0  0  0  0  0  0  0  0  0
    1.9785   -5.4343    3.3546 C   0  0  0  0  0  0  0  0  0  0  0  0
    2.9270   -6.4466    3.6051 C   0  0  0  0  0  0  0  0  0  0  0  0
    4.2334   -6.3348    3.0929 C   0  0  0  0  0  0  0  0  0  0  0  0
    4.5864   -5.2054    2.3320 C   0  0  0  0  0  0  0  0  0  0  0  0
    5.6453   -1.9389   -0.4552 C   0  0  0  0  0  0  0  0  0  0  0  0
    6.2799   -1.0588    0.1234 O   0  0  0  0  0  0  0  0  0  0  0  0
    5.2467   -1.9131   -1.9324 C   0  0  2  0  0  0  0  0  0  0  0  0
    3.7315   -1.8515   -1.9902 C   0  0  0  0  0  0  0  0  0  0  0  0
    3.2539   -3.0203   -1.5503 C   0  0  0  0  0  0  0  0  0  0  0  0
    4.4473   -3.8577   -1.1183 C   0  0  1  0  0  0  0  0  0  0  0  0
    5.4248   -3.4074   -2.2237 C   0  0  0  0  0  0  0  0  0  0  0  0
    8.5144   -6.2350    0.8285 H   0  0  0  0  0  0  0  0  0  0  0  0
    8.8880   -5.0266    2.0786 H   0  0  0  0  0  0  0  0  0  0  0  0
    4.5481   -2.2803    2.0321 H   0  0  0  0  0  0  0  0  0  0  0  0
    3.1991   -2.3748    0.9592 H   0  0  0  0  0  0  0  0  0  0  0  0
    1.6128   -3.5102    2.4292 H   0  0  0  0  0  0  0  0  0  0  0  0
    0.9764   -5.5270    3.7491 H   0  0  0  0  0  0  0  0  0  0  0  0
    2.6543   -7.3136    4.1878 H   0  0  0  0  0  0  0  0  0  0  0  0
    4.9555   -7.1183    3.2660 H   0  0  0  0  0  0  0  0  0  0  0  0
    5.7807   -1.2191   -2.5748 H   0  0  0  0  0  0  0  0  0  0  0  0
    3.1513   -1.0162   -2.3527 H   0  0  0  0  0  0  0  0  0  0  0  0
    2.2196   -3.3245   -1.4667 H   0  0  0  0  0  0  0  0  0  0  0  0
    4.2570   -4.9330   -1.0886 H   0  0  0  0  0  0  0  0  0  0  0  0
    5.0695   -3.6817   -3.2208 H   0  0  0  0  0  0  0  0  0  0  0  0
    6.4457   -3.7719   -2.1207 H   0  0  0  0  0  0  0  0  0  0  0  0
  1  2  2  0
  2  6  1  0
  2  3  1  0
  3  4  1  0
  3 22  1  0
  3 23  1  0
  4  5  1  0
  5 14  1  0
  5  6  2  0
  6  7  1  0
  7 20  1  0
  7  8  1  1
  7 15  1  0
  8  9  1  0
  8 24  1  0
  8 25  1  0
  9 14  2  0
  9 10  1  0
 10 11  2  0
 10 26  1  0
 11 12  1  0
 11 27  1  0
 12 13  2  0
 12 28  1  0
 13 14  1  0
 13 29  1  0
 15 16  2  0
 15 17  1  0
 17 21  1  0
 17 18  1  0
 17 30  1  6
 18 19  2  0
 18 31  1  0
 19 20  1  0
 19 32  1  0
 20 21  1  0
 20 33  1  1
 21 34  1  0
 21 35  1  0
M  END
>  <i_m_ct_stereo_status>  (258) 
1

>  <s_m_source_file>  (258) 
/var/tmp/pbs.5076255.sched01/tmp4185l44a/86vs10_z9v.sdf

>  <i_m_source_file_index>  (258) 
23

>  <i_lp_mmshare_version>  (258) 
48012

>  <i_f3d_flags>  (258) 
0

>  <s_epik_input>  (258) 
W2NIXTFbY0hdW2NIXVtjSF1jKFtDSDJdMiljMUMoT1tDSDJdQzM9Tyk9QzNbQ0BAXTI0W0NASF01W0NIXT1bQ0hdW0NAQEhdKEM0PU8pW0NIMl01

>  <s_epik_cmdline>  (258) 
J2VwaWtfcHl0aG9uJywgJy1waHQnLCAnMi4wJywgJy1waCcsICc3LjAnLCAnLXRuJywgJzgnLCAnLW1hJywgJzIwMCcsICctaW1hZScsICc8aW5maWxlLm1hZT4nLCAnLW9tYWUnLCAnPG91dGZpbGUubWFlPic=

>  <r_lp_tautomer_probability>  (258) 
1

>  <r_epik_Ionization_Penalty>  (258) 
0.0290675

>  <r_epik_Ionization_Penalty_Charging>  (258) 
0

>  <r_epik_Ionization_Penalty_Neutral>  (258) 
0.0290675

>  <r_epik_State_Penalty>  (258) 
0.0240424

>  <r_epik_Charging_Adjusted_Penalty>  (258) 
0.0240424

>  <i_epik_Tot_Q>  (258) 
0

>  <i_epik_Tot_abs_Q>  (258) 
0

>  <s_lp_Force_Field>  (258) 
OPLS3e

>  <r_lp_Energy>  (258) 
29.4992

>  <b_lp_Chiralities_Consistent>  (258) 
1

>  <s_lp_Variant>  (258) 
74:0-1

>  <s_i_glide_gridfile>  (258) 
pfpi4k_grid

>  <i_i_glide_lignum>  (258) 
23

>  <i_i_glide_rotatable_bonds>  (258) 
0

>  <r_i_docking_score>  (258) 
-3.6859

>  <r_i_glide_ligand_efficiency>  (258) 
-0.175519

>  <r_i_glide_ligand_efficiency_sa>  (258) 
-0.484244

>  <r_i_glide_ligand_efficiency_ln>  (258) 
-0.911332

>  <r_i_glide_gscore>  (258) 
-3.6859

>  <r_i_glide_lipo>  (258) 
-0.483601

>  <r_i_glide_hbond>  (258) 
-0.0118114

>  <r_i_glide_metal>  (258) 
-0

>  <r_i_glide_rewards>  (258) 
-1.73143

>  <r_i_glide_evdw>  (258) 
-24.0478

>  <r_i_glide_ecoul>  (258) 
-1.54697

>  <r_i_glide_erotb>  (258) 
0

>  <r_i_glide_esite>  (258) 
-0.0246268

>  <r_i_glide_emodel>  (258) 
-31.7513

>  <r_i_glide_energy>  (258) 
-25.5947

>  <r_i_glide_einternal>  (258) 
0

>  <r_i_glide_intrahb_reward>  (258) 
-0

>  <i_i_glide_confnum>  (258) 
2

>  <i_i_glide_posenum>  (258) 
27

>  <r_i_glide_eff_state_penalty>  (258) 
0

>  <ligand_id>  (258) 
74

>  <original_smiles>  (258) 
O=C1COC2=C1C1(Cc3ccccc32)C(=O)C2C=CC1C2

>  <smiles>  (258) 
[H]C1=C([H])C2([H])C([H])([H])C1([H])C(=O)C21C2=C(OC([H])([H])C2=O)c2c([H])c([H])c([H])c([H])c2C1([H])[H]

$$$$
74:0:2
     RDKit          3D

 35 39  0  0  1  0  0  0  0  0999 V2000
    6.6616   -4.9510    0.5104 O   0  0  0  0  0  0  0  0  0  0  0  0
    5.7774   -4.5252    1.2549 C   0  0  0  0  0  0  0  0  0  0  0  0
    5.4636   -5.0943    2.6366 C   0  0  0  0  0  0  0  0  0  0  0  0
    4.4260   -4.2451    3.1450 O   0  0  0  0  0  0  0  0  0  0  0  0
    4.1336   -3.3342    2.1708 C   0  0  0  0  0  0  0  0  0  0  0  0
    4.8417   -3.4329    1.0450 C   0  0  0  0  0  0  0  0  0  0  0  0
    4.7291   -2.4231   -0.1092 C   0  0  1  0  0  0  0  0  0  0  0  0
    4.3123   -1.0351    0.4914 C   0  0  0  0  0  0  0  0  0  0  0  0
    3.2185   -1.1308    1.5580 C   0  0  0  0  0  0  0  0  0  0  0  0
    2.2462   -0.1191    1.6889 C   0  0  0  0  0  0  0  0  0  0  0  0
    1.2552   -0.2270    2.6846 C   0  0  0  0  0  0  0  0  0  0  0  0
    1.2366   -1.3386    3.5540 C   0  0  0  0  0  0  0  0  0  0  0  0
    2.1977   -2.3577    3.4182 C   0  0  0  0  0  0  0  0  0  0  0  0
    3.1779   -2.2584    2.4145 C   0  0  0  0  0  0  0  0  0  0  0  0
    5.9764   -2.2855   -1.0064 C   0  0  0  0  0  0  0  0  0  0  0  0
    7.0761   -1.8570   -0.6607 O   0  0  0  0  0  0  0  0  0  0  0  0
    5.6058   -2.6983   -2.4309 C   0  0  2  0  0  0  0  0  0  0  0  0
    4.5677   -1.7024   -2.9266 C   0  0  0  0  0  0  0  0  0  0  0  0
    3.4440   -1.8876   -2.2260 C   0  0  0  0  0  0  0  0  0  0  0  0
    3.7326   -2.9642   -1.1928 C   0  0  1  0  0  0  0  0  0  0  0  0
    4.6624   -3.8402   -2.0625 C   0  0  0  0  0  0  0  0  0  0  0  0
    5.1197   -6.1282    2.5520 H   0  0  0  0  0  0  0  0  0  0  0  0
    6.3369   -5.0652    3.2922 H   0  0  0  0  0  0  0  0  0  0  0  0
    5.1743   -0.6129    1.0089 H   0  0  0  0  0  0  0  0  0  0  0  0
    4.0595   -0.2925   -0.2666 H   0  0  0  0  0  0  0  0  0  0  0  0
    2.2541    0.7302    1.0191 H   0  0  0  0  0  0  0  0  0  0  0  0
    0.5088    0.5474    2.7724 H   0  0  0  0  0  0  0  0  0  0  0  0
    0.4781   -1.4134    4.3155 H   0  0  0  0  0  0  0  0  0  0  0  0
    2.1732   -3.2231    4.0628 H   0  0  0  0  0  0  0  0  0  0  0  0
    6.4179   -2.9408   -3.1187 H   0  0  0  0  0  0  0  0  0  0  0  0
    4.7040   -0.9923   -3.7262 H   0  0  0  0  0  0  0  0  0  0  0  0
    2.5045   -1.3577   -2.3229 H   0  0  0  0  0  0  0  0  0  0  0  0
    2.8401   -3.4697   -0.8106 H   0  0  0  0  0  0  0  0  0  0  0  0
    4.1534   -4.2355   -2.9450 H   0  0  0  0  0  0  0  0  0  0  0  0
    5.1306   -4.6766   -1.5450 H   0  0  0  0  0  0  0  0  0  0  0  0
  1  2  2  0
  2  6  1  0
  2  3  1  0
  3  4  1  0
  3 22  1  0
  3 23  1  0
  4  5  1  0
  5 14  1  0
  5  6  2  0
  6  7  1  0
  7 20  1  0
  7  8  1  1
  7 15  1  0
  8  9  1  0
  8 24  1  0
  8 25  1  0
  9 14  2  0
  9 10  1  0
 10 11  2  0
 10 26  1  0
 11 12  1  0
 11 27  1  0
 12 13  2  0
 12 28  1  0
 13 14  1  0
 13 29  1  0
 15 16  2  0
 15 17  1  0
 17 21  1  0
 17 18  1  0
 17 30  1  6
 18 19  2  0
 18 31  1  0
 19 20  1  0
 19 32  1  0
 20 21  1  0
 20 33  1  1
 21 34  1  0
 21 35  1  0
M  END
>  <i_m_ct_stereo_status>  (259) 
1

>  <s_m_source_file>  (259) 
/var/tmp/pbs.5076255.sched01/tmp4185l44a/86vs10_z9v.sdf

>  <i_m_source_file_index>  (259) 
23

>  <i_lp_mmshare_version>  (259) 
48012

>  <i_f3d_flags>  (259) 
0

>  <s_epik_input>  (259) 
W2NIXTFbY0hdW2NIXVtjSF1jKFtDSDJdMiljMUMoT1tDSDJdQzM9Tyk9QzNbQ0BAXTI0W0NASF01W0NIXT1bQ0hdW0NAQEhdKEM0PU8pW0NIMl01

>  <s_epik_cmdline>  (259) 
J2VwaWtfcHl0aG9uJywgJy1waHQnLCAnMi4wJywgJy1waCcsICc3LjAnLCAnLXRuJywgJzgnLCAnLW1hJywgJzIwMCcsICctaW1hZScsICc8aW5maWxlLm1hZT4nLCAnLW9tYWUnLCAnPG91dGZpbGUubWFlPic=

>  <r_lp_tautomer_probability>  (259) 
1

>  <r_epik_Ionization_Penalty>  (259) 
0.0290675

>  <r_epik_Ionization_Penalty_Charging>  (259) 
0

>  <r_epik_Ionization_Penalty_Neutral>  (259) 
0.0290675

>  <r_epik_State_Penalty>  (259) 
0.0240424

>  <r_epik_Charging_Adjusted_Penalty>  (259) 
0.0240424

>  <i_epik_Tot_Q>  (259) 
0

>  <i_epik_Tot_abs_Q>  (259) 
0

>  <s_lp_Force_Field>  (259) 
OPLS3e

>  <r_lp_Energy>  (259) 
29.4992

>  <b_lp_Chiralities_Consistent>  (259) 
1

>  <s_lp_Variant>  (259) 
74:0-1

>  <s_i_glide_gridfile>  (259) 
pfpi4k_grid

>  <i_i_glide_lignum>  (259) 
23

>  <i_i_glide_rotatable_bonds>  (259) 
0

>  <r_i_docking_score>  (259) 
-3.52955

>  <r_i_glide_ligand_efficiency>  (259) 
-0.168074

>  <r_i_glide_ligand_efficiency_sa>  (259) 
-0.463703

>  <r_i_glide_ligand_efficiency_ln>  (259) 
-0.872673

>  <r_i_glide_gscore>  (259) 
-3.52955

>  <r_i_glide_lipo>  (259) 
-0.165866

>  <r_i_glide_hbond>  (259) 
-0.16

>  <r_i_glide_metal>  (259) 
-0

>  <r_i_glide_rewards>  (259) 
-1.60471

>  <r_i_glide_evdw>  (259) 
-23.4813

>  <r_i_glide_ecoul>  (259) 
-2.60819

>  <r_i_glide_erotb>  (259) 
0

>  <r_i_glide_esite>  (259) 
-0.0336776

>  <r_i_glide_emodel>  (259) 
-31.9604

>  <r_i_glide_energy>  (259) 
-26.0895

>  <r_i_glide_einternal>  (259) 
0

>  <r_i_glide_intrahb_reward>  (259) 
-0

>  <i_i_glide_confnum>  (259) 
1

>  <i_i_glide_posenum>  (259) 
1

>  <r_i_glide_eff_state_penalty>  (259) 
0

>  <ligand_id>  (259) 
74

>  <original_smiles>  (259) 
O=C1COC2=C1C1(Cc3ccccc32)C(=O)C2C=CC1C2

>  <smiles>  (259) 
[H]C1=C([H])C2([H])C([H])([H])C1([H])C(=O)C21C2=C(OC([H])([H])C2=O)c2c([H])c([H])c([H])c([H])c2C1([H])[H]

$$$$
74:1:0
     RDKit          3D

 34 38  0  0  1  0  0  0  0  0999 V2000
    5.4435   -0.2267    0.8482 O   0  0  0  0  0  0  0  0  0  0  0  0
    5.0950   -1.3572    1.5009 C   0  0  0  0  0  0  0  0  0  0  0  0
    5.0111   -1.4902    2.8586 C   0  0  0  0  0  0  0  0  0  0  0  0
    4.7147   -2.7724    3.1993 O   0  0  0  0  0  0  0  0  0  0  0  0
    4.6015   -3.4362    2.0209 C   0  0  0  0  0  0  0  0  0  0  0  0
    4.7825   -2.6296    0.9392 C   0  0  0  0  0  0  0  0  0  0  0  0
    4.6940   -3.1721   -0.4824 C   0  0  1  0  0  0  0  0  0  0  0  0
    5.1914   -4.6571   -0.4357 C   0  0  0  0  0  0  0  0  0  0  0  0
    4.6427   -5.4881    0.7365 C   0  0  0  0  0  0  0  0  0  0  0  0
    4.3846   -6.8622    0.5754 C   0  0  0  0  0  0  0  0  0  0  0  0
    3.8817   -7.6138    1.6589 C   0  0  0  0  0  0  0  0  0  0  0  0
    3.6561   -6.9931    2.9040 C   0  0  0  0  0  0  0  0  0  0  0  0
    3.9085   -5.6168    3.0698 C   0  0  0  0  0  0  0  0  0  0  0  0
    4.3825   -4.8626    1.9795 C   0  0  0  0  0  0  0  0  0  0  0  0
    3.2463   -3.1370   -1.0221 C   0  0  0  0  0  0  0  0  0  0  0  0
    2.2625   -3.6511   -0.4879 O   0  0  0  0  0  0  0  0  0  0  0  0
    3.2320   -2.3744   -2.3515 C   0  0  2  0  0  0  0  0  0  0  0  0
    4.1055   -3.1440   -3.3256 C   0  0  0  0  0  0  0  0  0  0  0  0
    5.3729   -3.0561   -2.9087 C   0  0  0  0  0  0  0  0  0  0  0  0
    5.3696   -2.2849   -1.5960 C   0  0  1  0  0  0  0  0  0  0  0  0
    4.2357   -1.2923   -1.9590 C   0  0  0  0  0  0  0  0  0  0  0  0
    5.1554   -0.8099    3.6856 H   0  0  0  0  0  0  0  0  0  0  0  0
    5.0010   -5.1865   -1.3693 H   0  0  0  0  0  0  0  0  0  0  0  0
    6.2744   -4.6416   -0.3049 H   0  0  0  0  0  0  0  0  0  0  0  0
    4.5547   -7.3368   -0.3807 H   0  0  0  0  0  0  0  0  0  0  0  0
    3.6705   -8.6640    1.5295 H   0  0  0  0  0  0  0  0  0  0  0  0
    3.2788   -7.5756    3.7316 H   0  0  0  0  0  0  0  0  0  0  0  0
    3.7160   -5.1389    4.0199 H   0  0  0  0  0  0  0  0  0  0  0  0
    2.2607   -2.0414   -2.7174 H   0  0  0  0  0  0  0  0  0  0  0  0
    3.7382   -3.6559   -4.2045 H   0  0  0  0  0  0  0  0  0  0  0  0
    6.2501   -3.4802   -3.3707 H   0  0  0  0  0  0  0  0  0  0  0  0
    6.3294   -1.8359   -1.3410 H   0  0  0  0  0  0  0  0  0  0  0  0
    4.4962   -0.6512   -2.8023 H   0  0  0  0  0  0  0  0  0  0  0  0
    3.8848   -0.6589   -1.1437 H   0  0  0  0  0  0  0  0  0  0  0  0
  1  2  1  0
  2  6  1  0
  2  3  2  0
  3  4  1  0
  3 22  1  0
  4  5  1  0
  5 14  1  0
  5  6  2  0
  6  7  1  0
  7 20  1  0
  7  8  1  1
  7 15  1  0
  8  9  1  0
  8 23  1  0
  8 24  1  0
  9 14  2  0
  9 10  1  0
 10 11  2  0
 10 25  1  0
 11 12  1  0
 11 26  1  0
 12 13  2  0
 12 27  1  0
 13 14  1  0
 13 28  1  0
 15 16  2  0
 15 17  1  0
 17 21  1  0
 17 18  1  0
 17 29  1  6
 18 19  2  0
 18 30  1  0
 19 20  1  0
 19 31  1  0
 20 21  1  0
 20 32  1  1
 21 33  1  0
 21 34  1  0
M  CHG  1   1  -1
M  END
>  <i_m_ct_stereo_status>  (260) 
1

>  <s_m_source_file>  (260) 
/var/tmp/pbs.5076255.sched01/tmp4185l44a/86vs10_z9v.sdf

>  <i_m_source_file_index>  (260) 
24

>  <i_lp_mmshare_version>  (260) 
48012

>  <i_f3d_flags>  (260) 
0

>  <s_epik_input>  (260) 
W2NIXTFbY0hdW2NIXVtjSF1jKFtDSDJdMiljMUMoT1tDSDJdQzM9Tyk9QzNbQ0BAXTI0W0NASF01W0NIXT1bQ0hdW0NAQEhdKEM0PU8pW0NIMl01

>  <s_epik_cmdline>  (260) 
J2VwaWtfcHl0aG9uJywgJy1waHQnLCAnMi4wJywgJy1waCcsICc3LjAnLCAnLXRuJywgJzgnLCAnLW1hJywgJzIwMCcsICctaW1hZScsICc8aW5maWxlLm1hZT4nLCAnLW9tYWUnLCAnPG91dGZpbGUubWFlPic=

>  <r_lp_tautomer_probability>  (260) 
1

>  <r_epik_Ionization_Penalty>  (260) 
1.79377

>  <r_epik_Ionization_Penalty_Charging>  (260) 
1.79377

>  <r_epik_Ionization_Penalty_Neutral>  (260) 
1.99311e-08

>  <r_epik_State_Penalty>  (260) 
1.9106

>  <r_epik_Charging_Adjusted_Penalty>  (260) 
3.70438

>  <i_epik_Tot_Q>  (260) 
-1

>  <i_epik_Tot_abs_Q>  (260) 
1

>  <s_lp_Force_Field>  (260) 
OPLS3e

>  <r_lp_Energy>  (260) 
45.0199

>  <b_lp_Chiralities_Consistent>  (260) 
1

>  <s_lp_Variant>  (260) 
74:0-2

>  <s_i_glide_gridfile>  (260) 
pfpi4k_grid

>  <i_i_glide_lignum>  (260) 
24

>  <i_i_glide_rotatable_bonds>  (260) 
0

>  <r_i_docking_score>  (260) 
-3.48109

>  <r_i_glide_ligand_efficiency>  (260) 
-0.165766

>  <r_i_glide_ligand_efficiency_sa>  (260) 
-0.457336

>  <r_i_glide_ligand_efficiency_ln>  (260) 
-0.860692

>  <r_i_glide_gscore>  (260) 
-3.48109

>  <r_i_glide_lipo>  (260) 
-0.838996

>  <r_i_glide_hbond>  (260) 
-0.040811

>  <r_i_glide_metal>  (260) 
-0

>  <r_i_glide_rewards>  (260) 
-1.54432

>  <r_i_glide_evdw>  (260) 
-25.391

>  <r_i_glide_ecoul>  (260) 
1.41727

>  <r_i_glide_erotb>  (260) 
0

>  <r_i_glide_esite>  (260) 
0

>  <r_i_glide_emodel>  (260) 
-31.9074

>  <r_i_glide_energy>  (260) 
-23.9737

>  <r_i_glide_einternal>  (260) 
0

>  <r_i_glide_intrahb_reward>  (260) 
-0

>  <i_i_glide_confnum>  (260) 
2

>  <i_i_glide_posenum>  (260) 
22

>  <r_i_glide_eff_state_penalty>  (260) 
0

>  <ligand_id>  (260) 
74

>  <original_smiles>  (260) 
O=C1COC2=C1C1(Cc3ccccc32)C(=O)C2C=CC1C2

>  <smiles>  (260) 
[H]C1=C([H])C2([H])C([H])([H])C1([H])C(=O)C21c2c(oc([H])c2[O-])-c2c([H])c([H])c([H])c([H])c2C1([H])[H]

$$$$
74:1:1
     RDKit          3D

 34 38  0  0  1  0  0  0  0  0999 V2000
   -2.2372    0.2539    6.4765 O   0  0  0  0  0  0  0  0  0  0  0  0
   -1.3739   -0.4127    5.6685 C   0  0  0  0  0  0  0  0  0  0  0  0
   -1.1947   -1.7640    5.6116 C   0  0  0  0  0  0  0  0  0  0  0  0
   -0.2106   -2.0933    4.7390 O   0  0  0  0  0  0  0  0  0  0  0  0
    0.2298   -0.9097    4.2432 C   0  0  0  0  0  0  0  0  0  0  0  0
   -0.4522    0.1592    4.7434 C   0  0  0  0  0  0  0  0  0  0  0  0
   -0.1078    1.5883    4.3338 C   0  0  1  0  0  0  0  0  0  0  0  0
    1.4269    1.6284    4.0132 C   0  0  0  0  0  0  0  0  0  0  0  0
    1.9435    0.4389    3.1801 C   0  0  0  0  0  0  0  0  0  0  0  0
    2.9843    0.6219    2.2477 C   0  0  0  0  0  0  0  0  0  0  0  0
    3.4536   -0.4729    1.4995 C   0  0  0  0  0  0  0  0  0  0  0  0
    2.8913   -1.7517    1.6836 C   0  0  0  0  0  0  0  0  0  0  0  0
    1.8404   -1.9423    2.6046 C   0  0  0  0  0  0  0  0  0  0  0  0
    1.3563   -0.8397    3.3408 C   0  0  0  0  0  0  0  0  0  0  0  0
   -0.8945    2.0140    3.0777 C   0  0  0  0  0  0  0  0  0  0  0  0
   -0.9841    1.3504    2.0521 O   0  0  0  0  0  0  0  0  0  0  0  0
   -1.6533    3.3186    3.3602 C   0  0  2  0  0  0  0  0  0  0  0  0
   -0.6179    4.3765    3.6789 C   0  0  0  0  0  0  0  0  0  0  0  0
   -0.0339    4.0587    4.8452 C   0  0  0  0  0  0  0  0  0  0  0  0
   -0.6138    2.7286    5.2963 C   0  0  1  0  0  0  0  0  0  0  0  0
   -2.0592    2.9818    4.7883 C   0  0  0  0  0  0  0  0  0  0  0  0
   -1.6495   -2.5947    6.1166 H   0  0  0  0  0  0  0  0  0  0  0  0
    1.7371    2.5680    3.5476 H   0  0  0  0  0  0  0  0  0  0  0  0
    1.9554    1.5720    4.9667 H   0  0  0  0  0  0  0  0  0  0  0  0
    3.4132    1.6053    2.1015 H   0  0  0  0  0  0  0  0  0  0  0  0
    4.2403   -0.3299    0.7820 H   0  0  0  0  0  0  0  0  0  0  0  0
    3.2532   -2.5888    1.1082 H   0  0  0  0  0  0  0  0  0  0  0  0
    1.3877   -2.9189    2.7267 H   0  0  0  0  0  0  0  0  0  0  0  0
   -2.4548    3.5892    2.6688 H   0  0  0  0  0  0  0  0  0  0  0  0
   -0.4159    5.2373    3.0606 H   0  0  0  0  0  0  0  0  0  0  0  0
    0.7369    4.6033    5.3633 H   0  0  0  0  0  0  0  0  0  0  0  0
   -0.5252    2.5322    6.3646 H   0  0  0  0  0  0  0  0  0  0  0  0
   -2.5384    3.8180    5.2941 H   0  0  0  0  0  0  0  0  0  0  0  0
   -2.7297    2.1316    4.8431 H   0  0  0  0  0  0  0  0  0  0  0  0
  1  2  1  0
  2  6  1  0
  2  3  2  0
  3  4  1  0
  3 22  1  0
  4  5  1  0
  5 14  1  0
  5  6  2  0
  6  7  1  0
  7 20  1  0
  7  8  1  6
  7 15  1  0
  8  9  1  0
  8 23  1  0
  8 24  1  0
  9 14  2  0
  9 10  1  0
 10 11  2  0
 10 25  1  0
 11 12  1  0
 11 26  1  0
 12 13  2  0
 12 27  1  0
 13 14  1  0
 13 28  1  0
 15 16  2  0
 15 17  1  0
 17 21  1  0
 17 18  1  0
 17 29  1  6
 18 19  2  0
 18 30  1  0
 19 20  1  0
 19 31  1  0
 20 21  1  0
 20 32  1  1
 21 33  1  0
 21 34  1  0
M  CHG  1   1  -1
M  END
>  <i_m_ct_stereo_status>  (261) 
1

>  <s_m_source_file>  (261) 
/var/tmp/pbs.5076255.sched01/tmp4185l44a/86vs10_z9v.sdf

>  <i_m_source_file_index>  (261) 
24

>  <i_lp_mmshare_version>  (261) 
48012

>  <i_f3d_flags>  (261) 
0

>  <s_epik_input>  (261) 
W2NIXTFbY0hdW2NIXVtjSF1jKFtDSDJdMiljMUMoT1tDSDJdQzM9Tyk9QzNbQ0BAXTI0W0NASF01W0NIXT1bQ0hdW0NAQEhdKEM0PU8pW0NIMl01

>  <s_epik_cmdline>  (261) 
J2VwaWtfcHl0aG9uJywgJy1waHQnLCAnMi4wJywgJy1waCcsICc3LjAnLCAnLXRuJywgJzgnLCAnLW1hJywgJzIwMCcsICctaW1hZScsICc8aW5maWxlLm1hZT4nLCAnLW9tYWUnLCAnPG91dGZpbGUubWFlPic=

>  <r_lp_tautomer_probability>  (261) 
1

>  <r_epik_Ionization_Penalty>  (261) 
1.79377

>  <r_epik_Ionization_Penalty_Charging>  (261) 
1.79377

>  <r_epik_Ionization_Penalty_Neutral>  (261) 
1.99311e-08

>  <r_epik_State_Penalty>  (261) 
1.9106

>  <r_epik_Charging_Adjusted_Penalty>  (261) 
3.70438

>  <i_epik_Tot_Q>  (261) 
-1

>  <i_epik_Tot_abs_Q>  (261) 
1

>  <s_lp_Force_Field>  (261) 
OPLS3e

>  <r_lp_Energy>  (261) 
45.0199

>  <b_lp_Chiralities_Consistent>  (261) 
1

>  <s_lp_Variant>  (261) 
74:0-2

>  <s_i_glide_gridfile>  (261) 
pfpi4k_grid

>  <i_i_glide_lignum>  (261) 
24

>  <i_i_glide_rotatable_bonds>  (261) 
0

>  <r_i_docking_score>  (261) 
-3.11911

>  <r_i_glide_ligand_efficiency>  (261) 
-0.148529

>  <r_i_glide_ligand_efficiency_sa>  (261) 
-0.409781

>  <r_i_glide_ligand_efficiency_ln>  (261) 
-0.771194

>  <r_i_glide_gscore>  (261) 
-3.11911

>  <r_i_glide_lipo>  (261) 
-0.0868274

>  <r_i_glide_hbond>  (261) 
-0.2

>  <r_i_glide_metal>  (261) 
-0

>  <r_i_glide_rewards>  (261) 
-1.51845

>  <r_i_glide_evdw>  (261) 
-21.8687

>  <r_i_glide_ecoul>  (261) 
-1.11202

>  <r_i_glide_erotb>  (261) 
0

>  <r_i_glide_esite>  (261) 
-0.0535927

>  <r_i_glide_emodel>  (261) 
-30.0061

>  <r_i_glide_energy>  (261) 
-22.9808

>  <r_i_glide_einternal>  (261) 
0

>  <r_i_glide_intrahb_reward>  (261) 
-0

>  <i_i_glide_confnum>  (261) 
2

>  <i_i_glide_posenum>  (261) 
26

>  <r_i_glide_eff_state_penalty>  (261) 
0

>  <ligand_id>  (261) 
74

>  <original_smiles>  (261) 
O=C1COC2=C1C1(Cc3ccccc32)C(=O)C2C=CC1C2

>  <smiles>  (261) 
[H]C1=C([H])C2([H])C([H])([H])C1([H])C(=O)C21c2c(oc([H])c2[O-])-c2c([H])c([H])c([H])c([H])c2C1([H])[H]

$$$$
74:1:2
     RDKit          3D

 34 38  0  0  1  0  0  0  0  0999 V2000
   -1.7557   -0.6295    6.0765 O   0  0  0  0  0  0  0  0  0  0  0  0
   -0.8882    0.0694    5.2882 C   0  0  0  0  0  0  0  0  0  0  0  0
   -0.3947   -0.3461    4.0851 C   0  0  0  0  0  0  0  0  0  0  0  0
    0.4559    0.5709    3.5422 O   0  0  0  0  0  0  0  0  0  0  0  0
    0.5110    1.5709    4.4548 C   0  0  0  0  0  0  0  0  0  0  0  0
   -0.2889    1.3443    5.5329 C   0  0  0  0  0  0  0  0  0  0  0  0
   -0.3489    2.3592    6.6696 C   0  0  1  0  0  0  0  0  0  0  0  0
    1.0619    3.0568    6.7691 C   0  0  0  0  0  0  0  0  0  0  0  0
    1.6653    3.4819    5.4216 C   0  0  0  0  0  0  0  0  0  0  0  0
    2.4527    4.6469    5.3207 C   0  0  0  0  0  0  0  0  0  0  0  0
    2.9975    5.0148    4.0784 C   0  0  0  0  0  0  0  0  0  0  0  0
    2.7705    4.2195    2.9390 C   0  0  0  0  0  0  0  0  0  0  0  0
    1.9796    3.0554    3.0276 C   0  0  0  0  0  0  0  0  0  0  0  0
    1.4104    2.6983    4.2686 C   0  0  0  0  0  0  0  0  0  0  0  0
   -1.4270    3.4409    6.4148 C   0  0  0  0  0  0  0  0  0  0  0  0
   -1.5344    4.1431    5.4108 O   0  0  0  0  0  0  0  0  0  0  0  0
   -2.3758    3.4835    7.6171 C   0  0  2  0  0  0  0  0  0  0  0  0
   -1.5585    3.8792    8.8305 C   0  0  0  0  0  0  0  0  0  0  0  0
   -0.7149    2.8789    9.1087 C   0  0  0  0  0  0  0  0  0  0  0  0
   -0.8974    1.8157    8.0369 C   0  0  1  0  0  0  0  0  0  0  0  0
   -2.4242    1.9811    7.8570 C   0  0  0  0  0  0  0  0  0  0  0  0
   -0.5367   -1.2284    3.4955 H   0  0  0  0  0  0  0  0  0  0  0  0
    1.0646    3.9085    7.4517 H   0  0  0  0  0  0  0  0  0  0  0  0
    1.7593    2.3303    7.1913 H   0  0  0  0  0  0  0  0  0  0  0  0
    2.6230    5.2607    6.1913 H   0  0  0  0  0  0  0  0  0  0  0  0
    3.5935    5.9070    3.9940 H   0  0  0  0  0  0  0  0  0  0  0  0
    3.1988    4.5020    1.9951 H   0  0  0  0  0  0  0  0  0  0  0  0
    1.7862    2.4639    2.1422 H   0  0  0  0  0  0  0  0  0  0  0  0
   -3.3332    3.9842    7.4843 H   0  0  0  0  0  0  0  0  0  0  0  0
   -1.6858    4.7978    9.3841 H   0  0  0  0  0  0  0  0  0  0  0  0
   -0.0148    2.8214    9.9269 H   0  0  0  0  0  0  0  0  0  0  0  0
   -0.5646    0.8178    8.3324 H   0  0  0  0  0  0  0  0  0  0  0  0
   -2.9701    1.7460    8.7708 H   0  0  0  0  0  0  0  0  0  0  0  0
   -2.8710    1.4246    7.0346 H   0  0  0  0  0  0  0  0  0  0  0  0
  1  2  1  0
  2  6  1  0
  2  3  2  0
  3  4  1  0
  3 22  1  0
  4  5  1  0
  5 14  1  0
  5  6  2  0
  6  7  1  0
  7 20  1  0
  7  8  1  1
  7 15  1  0
  8  9  1  0
  8 23  1  0
  8 24  1  0
  9 14  2  0
  9 10  1  0
 10 11  2  0
 10 25  1  0
 11 12  1  0
 11 26  1  0
 12 13  2  0
 12 27  1  0
 13 14  1  0
 13 28  1  0
 15 16  2  0
 15 17  1  0
 17 21  1  0
 17 18  1  0
 17 29  1  6
 18 19  2  0
 18 30  1  0
 19 20  1  0
 19 31  1  0
 20 21  1  0
 20 32  1  1
 21 33  1  0
 21 34  1  0
M  CHG  1   1  -1
M  END
>  <i_m_ct_stereo_status>  (262) 
1

>  <s_m_source_file>  (262) 
/var/tmp/pbs.5076255.sched01/tmp4185l44a/86vs10_z9v.sdf

>  <i_m_source_file_index>  (262) 
24

>  <i_lp_mmshare_version>  (262) 
48012

>  <i_f3d_flags>  (262) 
0

>  <s_epik_input>  (262) 
W2NIXTFbY0hdW2NIXVtjSF1jKFtDSDJdMiljMUMoT1tDSDJdQzM9Tyk9QzNbQ0BAXTI0W0NASF01W0NIXT1bQ0hdW0NAQEhdKEM0PU8pW0NIMl01

>  <s_epik_cmdline>  (262) 
J2VwaWtfcHl0aG9uJywgJy1waHQnLCAnMi4wJywgJy1waCcsICc3LjAnLCAnLXRuJywgJzgnLCAnLW1hJywgJzIwMCcsICctaW1hZScsICc8aW5maWxlLm1hZT4nLCAnLW9tYWUnLCAnPG91dGZpbGUubWFlPic=

>  <r_lp_tautomer_probability>  (262) 
1

>  <r_epik_Ionization_Penalty>  (262) 
1.79377

>  <r_epik_Ionization_Penalty_Charging>  (262) 
1.79377

>  <r_epik_Ionization_Penalty_Neutral>  (262) 
1.99311e-08

>  <r_epik_State_Penalty>  (262) 
1.9106

>  <r_epik_Charging_Adjusted_Penalty>  (262) 
3.70438

>  <i_epik_Tot_Q>  (262) 
-1

>  <i_epik_Tot_abs_Q>  (262) 
1

>  <s_lp_Force_Field>  (262) 
OPLS3e

>  <r_lp_Energy>  (262) 
45.0199

>  <b_lp_Chiralities_Consistent>  (262) 
1

>  <s_lp_Variant>  (262) 
74:0-2

>  <s_i_glide_gridfile>  (262) 
pfpi4k_grid

>  <i_i_glide_lignum>  (262) 
24

>  <i_i_glide_rotatable_bonds>  (262) 
0

>  <r_i_docking_score>  (262) 
-2.98091

>  <r_i_glide_ligand_efficiency>  (262) 
-0.141948

>  <r_i_glide_ligand_efficiency_sa>  (262) 
-0.391624

>  <r_i_glide_ligand_efficiency_ln>  (262) 
-0.737023

>  <r_i_glide_gscore>  (262) 
-2.98091

>  <r_i_glide_lipo>  (262) 
-0.0978154

>  <r_i_glide_hbond>  (262) 
-0.135672

>  <r_i_glide_metal>  (262) 
-0

>  <r_i_glide_rewards>  (262) 
-1.5691

>  <r_i_glide_evdw>  (262) 
-16.6455

>  <r_i_glide_ecoul>  (262) 
-2.30698

>  <r_i_glide_erotb>  (262) 
0

>  <r_i_glide_esite>  (262) 
0

>  <r_i_glide_emodel>  (262) 
-25.7027

>  <r_i_glide_energy>  (262) 
-18.9525

>  <r_i_glide_einternal>  (262) 
0

>  <r_i_glide_intrahb_reward>  (262) 
-0

>  <i_i_glide_confnum>  (262) 
2

>  <i_i_glide_posenum>  (262) 
39

>  <r_i_glide_eff_state_penalty>  (262) 
0

>  <ligand_id>  (262) 
74

>  <original_smiles>  (262) 
O=C1COC2=C1C1(Cc3ccccc32)C(=O)C2C=CC1C2

>  <smiles>  (262) 
[H]C1=C([H])C2([H])C([H])([H])C1([H])C(=O)C21c2c(oc([H])c2[O-])-c2c([H])c([H])c([H])c([H])c2C1([H])[H]

$$$$
75:0:0
     RDKit          3D

 31 33  0  0  1  0  0  0  0  0999 V2000
    3.1664   -1.4759   -2.6118 C   0  0  0  0  0  0  0  0  0  0  0  0
    4.1059   -2.6857   -2.6071 C   0  0  0  0  0  0  0  0  0  0  0  0
    3.9368   -3.5047   -3.8973 C   0  0  0  0  0  0  0  0  0  0  0  0
    5.4147   -2.2469   -2.5238 O   0  0  0  0  0  0  0  0  0  0  0  0
    6.0977   -3.1833   -1.7023 C   0  0  0  0  0  0  0  0  0  0  0  0
    5.0296   -4.1985   -1.2801 C   0  0  1  0  0  0  0  0  0  0  0  0
    5.1716   -4.7315    0.1490 C   0  0  0  0  0  0  0  0  0  0  0  0
    3.9737   -5.4223    0.5931 N   0  0  0  0  0  0  0  0  0  0  0  0
    2.7519   -4.8891    0.8089 C   0  0  0  0  0  0  0  0  0  0  0  0
    1.7853   -5.7082    1.2262 N   0  0  0  0  0  0  0  0  0  0  0  0
    2.4635   -6.9080    1.3125 C   0  0  0  0  0  0  0  0  0  0  0  0
    1.9562   -8.0812    1.6980 N   0  0  0  0  0  0  0  0  0  0  0  0
    2.8380   -9.1092    1.6822 C   0  0  0  0  0  0  0  0  0  0  0  0
    4.1872   -8.9635    1.2817 C   0  0  0  0  0  0  0  0  0  0  0  0
    4.7307   -7.7876    0.8850 N   0  0  0  0  0  0  0  0  0  0  0  0
    3.8251   -6.7657    0.9176 C   0  0  0  0  0  0  0  0  0  0  0  0
    3.8411   -3.4615   -1.4927 O   0  0  0  0  0  0  0  0  0  0  0  0
    3.2815   -0.8788   -1.7077 H   0  0  0  0  0  0  0  0  0  0  0  0
    2.1423   -1.8375   -2.6602 H   0  0  0  0  0  0  0  0  0  0  0  0
    3.3495   -0.8405   -3.4789 H   0  0  0  0  0  0  0  0  0  0  0  0
    4.6256   -4.3498   -3.9760 H   0  0  0  0  0  0  0  0  0  0  0  0
    4.1309   -2.8321   -4.7202 H   0  0  0  0  0  0  0  0  0  0  0  0
    2.9126   -3.8737   -3.9656 H   0  0  0  0  0  0  0  0  0  0  0  0
    6.9164   -3.6436   -2.2579 H   0  0  0  0  0  0  0  0  0  0  0  0
    6.5233   -2.6589   -0.8419 H   0  0  0  0  0  0  0  0  0  0  0  0
    5.0154   -5.0530   -1.9546 H   0  0  0  0  0  0  0  0  0  0  0  0
    6.0159   -5.4220    0.1903 H   0  0  0  0  0  0  0  0  0  0  0  0
    5.3737   -3.9309    0.8603 H   0  0  0  0  0  0  0  0  0  0  0  0
    2.5696   -3.8378    0.6467 H   0  0  0  0  0  0  0  0  0  0  0  0
    2.4522  -10.0681    1.9939 H   0  0  0  0  0  0  0  0  0  0  0  0
    4.8477   -9.8179    1.2804 H   0  0  0  0  0  0  0  0  0  0  0  0
  1  2  1  0
  1 18  1  0
  1 19  1  0
  1 20  1  0
  2 17  1  0
  2  3  1  0
  2  4  1  0
  3 21  1  0
  3 22  1  0
  3 23  1  0
  4  5  1  0
  5  6  1  0
  5 24  1  0
  5 25  1  0
  6  7  1  0
  6 17  1  0
  6 26  1  6
  7  8  1  0
  7 27  1  0
  7 28  1  0
  8 16  1  0
  8  9  1  0
  9 10  2  0
  9 29  1  0
 10 11  1  0
 11 16  2  0
 11 12  1  0
 12 13  2  0
 13 14  1  0
 13 30  1  0
 14 15  2  0
 14 31  1  0
 15 16  1  0
M  END
>  <i_m_ct_stereo_status>  (263) 
1

>  <s_m_source_file>  (263) 
/var/tmp/pbs.5076255.sched01/tmp4185l44a/86vs10_z9v.sdf

>  <i_m_source_file_index>  (263) 
25

>  <i_lp_mmshare_version>  (263) 
48012

>  <i_f3d_flags>  (263) 
0

>  <s_epik_input>  (263) 
W0NIM11DMShbQ0gzXSlPW0NIMl1bQ0BIXShPMSlbQ0gyXW4oW2NIXW4yKWMoYzIzKW5bY0hdW2NIXW4z

>  <s_epik_cmdline>  (263) 
J2VwaWtfcHl0aG9uJywgJy1waHQnLCAnMi4wJywgJy1waCcsICc3LjAnLCAnLXRuJywgJzgnLCAnLW1hJywgJzIwMCcsICctaW1hZScsICc8aW5maWxlLm1hZT4nLCAnLW9tYWUnLCAnPG91dGZpbGUubWFlPic=

>  <r_lp_tautomer_probability>  (263) 
1

>  <r_epik_Ionization_Penalty>  (263) 
1.54927e-06

>  <r_epik_Ionization_Penalty_Charging>  (263) 
0

>  <r_epik_Ionization_Penalty_Neutral>  (263) 
1.54927e-06

>  <r_epik_State_Penalty>  (263) 
-0

>  <r_epik_Charging_Adjusted_Penalty>  (263) 
0

>  <i_epik_Tot_Q>  (263) 
0

>  <i_epik_Tot_abs_Q>  (263) 
0

>  <s_lp_Force_Field>  (263) 
OPLS3e

>  <r_lp_Energy>  (263) 
-0.154109

>  <b_lp_Chiralities_Consistent>  (263) 
1

>  <s_lp_Variant>  (263) 
75:0-1

>  <s_i_glide_gridfile>  (263) 
pfpi4k_grid

>  <i_i_glide_lignum>  (263) 
25

>  <i_i_glide_rotatable_bonds>  (263) 
2

>  <r_i_docking_score>  (263) 
-3.19125

>  <r_i_glide_ligand_efficiency>  (263) 
-0.187721

>  <r_i_glide_ligand_efficiency_sa>  (263) 
-0.482682

>  <r_i_glide_ligand_efficiency_ln>  (263) 
-0.832526

>  <r_i_glide_gscore>  (263) 
-3.19125

>  <r_i_glide_lipo>  (263) 
-0.227688

>  <r_i_glide_hbond>  (263) 
-0.0717635

>  <r_i_glide_metal>  (263) 
-0

>  <r_i_glide_rewards>  (263) 
-2.01716

>  <r_i_glide_evdw>  (263) 
-23.2125

>  <r_i_glide_ecoul>  (263) 
-2.03877

>  <r_i_glide_erotb>  (263) 
0.625793

>  <r_i_glide_esite>  (263) 
-0.0339896

>  <r_i_glide_emodel>  (263) 
-29.9672

>  <r_i_glide_energy>  (263) 
-25.2513

>  <r_i_glide_einternal>  (263) 
0.76826

>  <r_i_glide_intrahb_reward>  (263) 
-0

>  <i_i_glide_confnum>  (263) 
4

>  <i_i_glide_posenum>  (263) 
11

>  <r_i_glide_eff_state_penalty>  (263) 
0

>  <ligand_id>  (263) 
75

>  <original_smiles>  (263) 
CC1(C)OCC(Cn2cnc3nccnc32)O1

>  <smiles>  (263) 
[H]c1nc2nc([H])n(C([H])([H])C3([H])OC(C([H])([H])[H])(C([H])([H])[H])OC3([H])[H])c2nc1[H]

$$$$
75:0:1
     RDKit          3D

 31 33  0  0  1  0  0  0  0  0999 V2000
    0.6741   -6.8436    2.5127 C   0  0  0  0  0  0  0  0  0  0  0  0
    1.9666   -6.3475    1.8614 C   0  0  0  0  0  0  0  0  0  0  0  0
    3.1288   -7.3373    1.9848 C   0  0  0  0  0  0  0  0  0  0  0  0
    1.7335   -6.2324    0.5211 O   0  0  0  0  0  0  0  0  0  0  0  0
    2.3874   -5.0608    0.1604 C   0  0  0  0  0  0  0  0  0  0  0  0
    3.1025   -4.4784    1.3762 C   0  0  1  0  0  0  0  0  0  0  0  0
    3.1658   -2.9249    1.4305 C   0  0  0  0  0  0  0  0  0  0  0  0
    3.9050   -2.2883    0.3224 N   0  0  0  0  0  0  0  0  0  0  0  0
    5.0334   -1.5546    0.3887 C   0  0  0  0  0  0  0  0  0  0  0  0
    5.5503   -1.1219   -0.7818 N   0  0  0  0  0  0  0  0  0  0  0  0
    4.6145   -1.5619   -1.6911 C   0  0  0  0  0  0  0  0  0  0  0  0
    4.6221   -1.4259   -3.0245 N   0  0  0  0  0  0  0  0  0  0  0  0
    3.6477   -2.0469   -3.6917 C   0  0  0  0  0  0  0  0  0  0  0  0
    2.6400   -2.7773   -3.0371 C   0  0  0  0  0  0  0  0  0  0  0  0
    2.6179   -2.9314   -1.7095 N   0  0  0  0  0  0  0  0  0  0  0  0
    3.5874   -2.3154   -1.0360 C   0  0  0  0  0  0  0  0  0  0  0  0
    2.3110   -5.0938    2.3853 O   0  0  0  0  0  0  0  0  0  0  0  0
   -0.1492   -6.1493    2.3389 H   0  0  0  0  0  0  0  0  0  0  0  0
    0.8516   -6.9671    3.5820 H   0  0  0  0  0  0  0  0  0  0  0  0
    0.4142   -7.8038    2.0601 H   0  0  0  0  0  0  0  0  0  0  0  0
    4.0184   -7.0022    1.4443 H   0  0  0  0  0  0  0  0  0  0  0  0
    2.8264   -8.2823    1.5273 H   0  0  0  0  0  0  0  0  0  0  0  0
    3.3616   -7.4597    3.0377 H   0  0  0  0  0  0  0  0  0  0  0  0
    3.0784   -5.2297   -0.6596 H   0  0  0  0  0  0  0  0  0  0  0  0
    1.5769   -4.4214   -0.1570 H   0  0  0  0  0  0  0  0  0  0  0  0
    4.1352   -4.8341    1.4586 H   0  0  0  0  0  0  0  0  0  0  0  0
    2.1672   -2.4858    1.4807 H   0  0  0  0  0  0  0  0  0  0  0  0
    3.6517   -2.6478    2.3623 H   0  0  0  0  0  0  0  0  0  0  0  0
    5.4877   -1.3524    1.3507 H   0  0  0  0  0  0  0  0  0  0  0  0
    3.6782   -1.9635   -4.7804 H   0  0  0  0  0  0  0  0  0  0  0  0
    1.9060   -3.2837   -3.6117 H   0  0  0  0  0  0  0  0  0  0  0  0
  1  2  1  0
  1 18  1  0
  1 19  1  0
  1 20  1  0
  2 17  1  0
  2  3  1  0
  2  4  1  0
  3 21  1  0
  3 22  1  0
  3 23  1  0
  4  5  1  0
  5  6  1  0
  5 24  1  0
  5 25  1  0
  6  7  1  0
  6 17  1  0
  6 26  1  1
  7  8  1  0
  7 27  1  0
  7 28  1  0
  8 16  1  0
  8  9  1  0
  9 10  2  0
  9 29  1  0
 10 11  1  0
 11 16  2  0
 11 12  1  0
 12 13  2  0
 13 14  1  0
 13 30  1  0
 14 15  2  0
 14 31  1  0
 15 16  1  0
M  END
>  <i_m_ct_stereo_status>  (264) 
1

>  <s_m_source_file>  (264) 
/var/tmp/pbs.5076255.sched01/tmp4185l44a/86vs10_z9v.sdf

>  <i_m_source_file_index>  (264) 
25

>  <i_lp_mmshare_version>  (264) 
48012

>  <i_f3d_flags>  (264) 
0

>  <s_epik_input>  (264) 
W0NIM11DMShbQ0gzXSlPW0NIMl1bQ0BIXShPMSlbQ0gyXW4oW2NIXW4yKWMoYzIzKW5bY0hdW2NIXW4z

>  <s_epik_cmdline>  (264) 
J2VwaWtfcHl0aG9uJywgJy1waHQnLCAnMi4wJywgJy1waCcsICc3LjAnLCAnLXRuJywgJzgnLCAnLW1hJywgJzIwMCcsICctaW1hZScsICc8aW5maWxlLm1hZT4nLCAnLW9tYWUnLCAnPG91dGZpbGUubWFlPic=

>  <r_lp_tautomer_probability>  (264) 
1

>  <r_epik_Ionization_Penalty>  (264) 
1.54927e-06

>  <r_epik_Ionization_Penalty_Charging>  (264) 
0

>  <r_epik_Ionization_Penalty_Neutral>  (264) 
1.54927e-06

>  <r_epik_State_Penalty>  (264) 
-0

>  <r_epik_Charging_Adjusted_Penalty>  (264) 
0

>  <i_epik_Tot_Q>  (264) 
0

>  <i_epik_Tot_abs_Q>  (264) 
0

>  <s_lp_Force_Field>  (264) 
OPLS3e

>  <r_lp_Energy>  (264) 
-0.154109

>  <b_lp_Chiralities_Consistent>  (264) 
1

>  <s_lp_Variant>  (264) 
75:0-1

>  <s_i_glide_gridfile>  (264) 
pfpi4k_grid

>  <i_i_glide_lignum>  (264) 
25

>  <i_i_glide_rotatable_bonds>  (264) 
2

>  <r_i_docking_score>  (264) 
-2.94108

>  <r_i_glide_ligand_efficiency>  (264) 
-0.173005

>  <r_i_glide_ligand_efficiency_sa>  (264) 
-0.444844

>  <r_i_glide_ligand_efficiency_ln>  (264) 
-0.767262

>  <r_i_glide_gscore>  (264) 
-2.94108

>  <r_i_glide_lipo>  (264) 
-0.288967

>  <r_i_glide_hbond>  (264) 
-0.01047

>  <r_i_glide_metal>  (264) 
-0

>  <r_i_glide_rewards>  (264) 
-1.87675

>  <r_i_glide_evdw>  (264) 
-20.6638

>  <r_i_glide_ecoul>  (264) 
-1.44728

>  <r_i_glide_erotb>  (264) 
0.625793

>  <r_i_glide_esite>  (264) 
-0.140407

>  <r_i_glide_emodel>  (264) 
-24.01

>  <r_i_glide_energy>  (264) 
-22.1111

>  <r_i_glide_einternal>  (264) 
1.8214

>  <r_i_glide_intrahb_reward>  (264) 
-0

>  <i_i_glide_confnum>  (264) 
5

>  <i_i_glide_posenum>  (264) 
33

>  <r_i_glide_eff_state_penalty>  (264) 
0

>  <ligand_id>  (264) 
75

>  <original_smiles>  (264) 
CC1(C)OCC(Cn2cnc3nccnc32)O1

>  <smiles>  (264) 
[H]c1nc2nc([H])n(C([H])([H])C3([H])OC(C([H])([H])[H])(C([H])([H])[H])OC3([H])[H])c2nc1[H]

$$$$
75:0:2
     RDKit          3D

 31 33  0  0  1  0  0  0  0  0999 V2000
    4.1907   -0.6447   -2.7951 C   0  0  0  0  0  0  0  0  0  0  0  0
    4.5353   -1.6740   -1.7062 C   0  0  0  0  0  0  0  0  0  0  0  0
    4.0294   -3.0781   -2.1087 C   0  0  0  0  0  0  0  0  0  0  0  0
    5.9132   -1.7133   -1.5347 O   0  0  0  0  0  0  0  0  0  0  0  0
    6.1436   -1.8947   -0.1434 C   0  0  0  0  0  0  0  0  0  0  0  0
    4.7517   -1.9130    0.4910 C   0  0  1  0  0  0  0  0  0  0  0  0
    4.6584   -1.2443    1.8647 C   0  0  0  0  0  0  0  0  0  0  0  0
    3.2894   -1.2270    2.3438 N   0  0  0  0  0  0  0  0  0  0  0  0
    2.5694   -2.2424    2.8678 C   0  0  0  0  0  0  0  0  0  0  0  0
    1.3163   -1.9757    3.2427 N   0  0  0  0  0  0  0  0  0  0  0  0
    1.2046   -0.6389    2.9065 C   0  0  0  0  0  0  0  0  0  0  0  0
    0.1351    0.1443    3.0648 N   0  0  0  0  0  0  0  0  0  0  0  0
    0.2982    1.4224    2.6303 C   0  0  0  0  0  0  0  0  0  0  0  0
    1.5154    1.8960    2.0856 C   0  0  0  0  0  0  0  0  0  0  0  0
    2.6181    1.1298    1.9268 N   0  0  0  0  0  0  0  0  0  0  0  0
    2.4184   -0.1488    2.3472 C   0  0  0  0  0  0  0  0  0  0  0  0
    3.9651   -1.2818   -0.5003 O   0  0  0  0  0  0  0  0  0  0  0  0
    4.5741    0.3460   -2.5583 H   0  0  0  0  0  0  0  0  0  0  0  0
    3.1085   -0.5743   -2.9116 H   0  0  0  0  0  0  0  0  0  0  0  0
    4.6183   -0.9554   -3.7476 H   0  0  0  0  0  0  0  0  0  0  0  0
    4.2906   -3.8487   -1.3837 H   0  0  0  0  0  0  0  0  0  0  0  0
    4.4626   -3.3665   -3.0661 H   0  0  0  0  0  0  0  0  0  0  0  0
    2.9442   -3.0559   -2.2083 H   0  0  0  0  0  0  0  0  0  0  0  0
    6.6767   -2.8308    0.0346 H   0  0  0  0  0  0  0  0  0  0  0  0
    6.7577   -1.0700    0.2293 H   0  0  0  0  0  0  0  0  0  0  0  0
    4.4064   -2.9415    0.5984 H   0  0  0  0  0  0  0  0  0  0  0  0
    5.2597   -1.7958    2.5854 H   0  0  0  0  0  0  0  0  0  0  0  0
    5.0507   -0.2244    1.8379 H   0  0  0  0  0  0  0  0  0  0  0  0
    3.0003   -3.2281    2.9825 H   0  0  0  0  0  0  0  0  0  0  0  0
   -0.5530    2.0757    2.7280 H   0  0  0  0  0  0  0  0  0  0  0  0
    1.6117    2.9216    1.7668 H   0  0  0  0  0  0  0  0  0  0  0  0
  1  2  1  0
  1 18  1  0
  1 19  1  0
  1 20  1  0
  2 17  1  0
  2  3  1  0
  2  4  1  0
  3 21  1  0
  3 22  1  0
  3 23  1  0
  4  5  1  0
  5  6  1  0
  5 24  1  0
  5 25  1  0
  6  7  1  0
  6 17  1  0
  6 26  1  1
  7  8  1  0
  7 27  1  0
  7 28  1  0
  8 16  1  0
  8  9  1  0
  9 10  2  0
  9 29  1  0
 10 11  1  0
 11 16  2  0
 11 12  1  0
 12 13  2  0
 13 14  1  0
 13 30  1  0
 14 15  2  0
 14 31  1  0
 15 16  1  0
M  END
>  <i_m_ct_stereo_status>  (265) 
1

>  <s_m_source_file>  (265) 
/var/tmp/pbs.5076255.sched01/tmp4185l44a/86vs10_z9v.sdf

>  <i_m_source_file_index>  (265) 
25

>  <i_lp_mmshare_version>  (265) 
48012

>  <i_f3d_flags>  (265) 
0

>  <s_epik_input>  (265) 
W0NIM11DMShbQ0gzXSlPW0NIMl1bQ0BIXShPMSlbQ0gyXW4oW2NIXW4yKWMoYzIzKW5bY0hdW2NIXW4z

>  <s_epik_cmdline>  (265) 
J2VwaWtfcHl0aG9uJywgJy1waHQnLCAnMi4wJywgJy1waCcsICc3LjAnLCAnLXRuJywgJzgnLCAnLW1hJywgJzIwMCcsICctaW1hZScsICc8aW5maWxlLm1hZT4nLCAnLW9tYWUnLCAnPG91dGZpbGUubWFlPic=

>  <r_lp_tautomer_probability>  (265) 
1

>  <r_epik_Ionization_Penalty>  (265) 
1.54927e-06

>  <r_epik_Ionization_Penalty_Charging>  (265) 
0

>  <r_epik_Ionization_Penalty_Neutral>  (265) 
1.54927e-06

>  <r_epik_State_Penalty>  (265) 
-0

>  <r_epik_Charging_Adjusted_Penalty>  (265) 
0

>  <i_epik_Tot_Q>  (265) 
0

>  <i_epik_Tot_abs_Q>  (265) 
0

>  <s_lp_Force_Field>  (265) 
OPLS3e

>  <r_lp_Energy>  (265) 
-0.154109

>  <b_lp_Chiralities_Consistent>  (265) 
1

>  <s_lp_Variant>  (265) 
75:0-1

>  <s_i_glide_gridfile>  (265) 
pfpi4k_grid

>  <i_i_glide_lignum>  (265) 
25

>  <i_i_glide_rotatable_bonds>  (265) 
2

>  <r_i_docking_score>  (265) 
-2.49499

>  <r_i_glide_ligand_efficiency>  (265) 
-0.146764

>  <r_i_glide_ligand_efficiency_sa>  (265) 
-0.377373

>  <r_i_glide_ligand_efficiency_ln>  (265) 
-0.650889

>  <r_i_glide_gscore>  (265) 
-2.49499

>  <r_i_glide_lipo>  (265) 
-0.190147

>  <r_i_glide_hbond>  (265) 
-0.0847078

>  <r_i_glide_metal>  (265) 
-0

>  <r_i_glide_rewards>  (265) 
-1.8119

>  <r_i_glide_evdw>  (265) 
-20.1597

>  <r_i_glide_ecoul>  (265) 
0.420977

>  <r_i_glide_erotb>  (265) 
0.625793

>  <r_i_glide_esite>  (265) 
-0.0891959

>  <r_i_glide_emodel>  (265) 
-23.6926

>  <r_i_glide_energy>  (265) 
-19.7387

>  <r_i_glide_einternal>  (265) 
0.0473677

>  <r_i_glide_intrahb_reward>  (265) 
-0

>  <i_i_glide_confnum>  (265) 
1

>  <i_i_glide_posenum>  (265) 
3

>  <r_i_glide_eff_state_penalty>  (265) 
0

>  <ligand_id>  (265) 
75

>  <original_smiles>  (265) 
CC1(C)OCC(Cn2cnc3nccnc32)O1

>  <smiles>  (265) 
[H]c1nc2nc([H])n(C([H])([H])C3([H])OC(C([H])([H])[H])(C([H])([H])[H])OC3([H])[H])c2nc1[H]

$$$$
77:0:0
     RDKit          3D

 53 58  0  0  1  0  0  0  0  0999 V2000
    3.4919   -0.4920   -4.5403 C   0  0  0  0  0  0  0  0  0  0  0  0
    3.6440   -1.4851   -3.6471 C   0  0  0  0  0  0  0  0  0  0  0  0
    4.4141   -1.3044   -2.3905 C   0  0  0  0  0  0  0  0  0  0  0  0
    5.0534   -0.3003   -2.1176 O   0  0  0  0  0  0  0  0  0  0  0  0
    4.3298   -2.5099   -1.4244 C   0  0  2  0  0  0  0  0  0  0  0  0
    4.9066   -3.7129   -2.2440 C   0  0  0  0  0  0  0  0  0  0  0  0
    4.3232   -3.8210   -3.6776 C   0  0  0  0  0  0  0  0  0  0  0  0
    3.0988   -2.9097   -3.7843 C   0  0  1  0  0  0  0  0  0  0  0  0
    2.1530   -3.2450   -2.5994 C   0  0  0  0  0  0  0  0  0  0  0  0
    2.8293   -2.7525   -1.3159 C   0  0  1  0  0  0  0  0  0  0  0  0
    2.5443   -3.1049    0.1333 C   0  0  1  0  0  0  0  0  0  0  0  0
    2.9251   -4.4812    0.2368 O   0  0  0  0  0  0  0  0  0  0  0  0
    3.7918   -5.0529    1.2383 C   0  0  1  0  0  0  0  0  0  0  0  0
    2.8189   -5.7639    2.2199 C   0  0  0  0  0  0  0  0  0  0  0  0
    4.7377   -6.0422    0.5092 C   0  0  0  0  0  0  0  0  0  0  0  0
    4.2222   -7.1945    0.4292 O   0  0  0  0  0  0  0  0  0  0  0  0
    5.9777   -5.6016    0.1261 C   0  0  0  0  0  0  0  0  0  0  0  0
    6.4758   -4.2368    0.2168 C   0  0  0  0  0  0  0  0  0  0  0  0
    7.5790   -3.9059   -0.2217 O   0  0  0  0  0  0  0  0  0  0  0  0
    5.5925   -3.2209    0.9474 C   0  0  2  0  0  0  0  0  0  0  0  0
    6.5960   -2.3328    1.6716 C   0  0  0  0  0  0  0  0  0  0  0  0
    4.7514   -4.0608    1.9859 C   0  0  1  0  0  0  0  0  0  0  0  0
    4.1126   -3.2224    3.0835 C   0  0  0  0  0  0  0  0  0  0  0  0
    3.2257   -2.2221    2.4236 C   0  0  0  0  0  0  0  0  0  0  0  0
    2.3994   -1.6207    3.1143 O   0  0  0  0  0  0  0  0  0  0  0  0
    3.3561   -2.0233    0.8898 C   0  0  2  0  0  0  0  0  0  0  0  0
    2.9301   -0.5596    0.7307 C   0  0  0  0  0  0  0  0  0  0  0  0
    4.7140   -2.2328    0.1183 C   0  0  2  0  0  0  0  0  0  0  0  0
    2.9410   -0.6529   -5.4533 H   0  0  0  0  0  0  0  0  0  0  0  0
    3.9160    0.4882   -4.3747 H   0  0  0  0  0  0  0  0  0  0  0  0
    5.9916   -3.6523   -2.3064 H   0  0  0  0  0  0  0  0  0  0  0  0
    4.6265   -4.6376   -1.7480 H   0  0  0  0  0  0  0  0  0  0  0  0
    5.0755   -3.5449   -4.4028 H   0  0  0  0  0  0  0  0  0  0  0  0
    4.0773   -4.8544   -3.9374 H   0  0  0  0  0  0  0  0  0  0  0  0
    2.5857   -3.0506   -4.7302 H   0  0  0  0  0  0  0  0  0  0  0  0
    1.1738   -2.7845   -2.7504 H   0  0  0  0  0  0  0  0  0  0  0  0
    1.9161   -4.2720   -2.5269 H   0  0  0  0  0  0  0  0  0  0  0  0
    2.3449   -1.8261   -1.4211 H   0  0  0  0  0  0  0  0  0  0  0  0
    1.4861   -2.9935    0.3566 H   0  0  0  0  0  0  0  0  0  0  0  0
    3.3640   -6.3023    2.9994 H   0  0  0  0  0  0  0  0  0  0  0  0
    2.1911   -6.4958    1.6962 H   0  0  0  0  0  0  0  0  0  0  0  0
    2.1276   -5.0661    2.6933 H   0  0  0  0  0  0  0  0  0  0  0  0
    6.6972   -6.2530   -0.3128 H   0  0  0  0  0  0  0  0  0  0  0  0
    6.1697   -1.6341    2.3946 H   0  0  0  0  0  0  0  0  0  0  0  0
    7.3544   -1.8306    1.0545 H   0  0  0  0  0  0  0  0  0  0  0  0
    7.0142   -3.1287    2.2412 H   0  0  0  0  0  0  0  0  0  0  0  0
    5.4319   -4.6908    2.5641 H   0  0  0  0  0  0  0  0  0  0  0  0
    3.5373   -3.8179    3.7917 H   0  0  0  0  0  0  0  0  0  0  0  0
    4.8546   -2.6857    3.6753 H   0  0  0  0  0  0  0  0  0  0  0  0
    3.1118   -0.2670   -0.2878 H   0  0  0  0  0  0  0  0  0  0  0  0
    3.4473    0.1498    1.3649 H   0  0  0  0  0  0  0  0  0  0  0  0
    1.8593   -0.4302    0.8855 H   0  0  0  0  0  0  0  0  0  0  0  0
    5.2256   -1.2698    0.1366 H   0  0  0  0  0  0  0  0  0  0  0  0
  1  2  2  0
  1 29  1  0
  1 30  1  0
  2  8  1  0
  2  3  1  0
  3  4  2  0
  3  5  1  0
  5 10  1  0
  5 28  1  0
  5  6  1  6
  6  7  1  0
  6 31  1  0
  6 32  1  0
  7  8  1  0
  7 33  1  0
  7 34  1  0
  8  9  1  0
  8 35  1  6
  9 10  1  0
  9 36  1  0
  9 37  1  0
 10 11  1  0
 10 38  1  1
 11 26  1  0
 11 12  1  0
 11 39  1  6
 12 13  1  0
 13 22  1  0
 13 14  1  1
 13 15  1  0
 14 40  1  0
 14 41  1  0
 14 42  1  0
 15 16  1  0
 15 17  2  0
 17 18  1  0
 17 43  1  0
 18 19  2  0
 18 20  1  0
 20 28  1  0
 20 21  1  1
 20 22  1  0
 21 44  1  0
 21 45  1  0
 21 46  1  0
 22 23  1  0
 22 47  1  1
 23 24  1  0
 23 48  1  0
 23 49  1  0
 24 25  2  0
 24 26  1  0
 26 27  1  1
 26 28  1  0
 27 50  1  0
 27 51  1  0
 27 52  1  0
 28 53  1  6
M  CHG  1  16  -1
M  END
>  <i_m_ct_stereo_status>  (266) 
1

>  <s_m_source_file>  (266) 
/var/tmp/pbs.5076255.sched01/tmp4185l44a/86vs10_z9v.sdf

>  <i_m_source_file_index>  (266) 
28

>  <i_lp_mmshare_version>  (266) 
48012

>  <i_f3d_flags>  (266) 
0

>  <s_epik_input>  (266) 
Tz1DMUMoPVtDSDJdKVtDQEBIXShbQ0gyXVtDSDJdMilbQ0gyXVtDQEhdKFtDQF0xMjMpW0NAQEhdNFtDQF01KFtDSDNdKVtDQEhdM1tDQEBdNihbQ0gzXSlbQ0BASF0oW0NIMl1DNT1PKVtDQF0oTzQpKFtDSDNdKUMoPU8pW0NIMl1DNj1P

>  <s_epik_cmdline>  (266) 
J2VwaWtfcHl0aG9uJywgJy1waHQnLCAnMi4wJywgJy1waCcsICc3LjAnLCAnLXRuJywgJzgnLCAnLW1hJywgJzIwMCcsICctaW1hZScsICc8aW5maWxlLm1hZT4nLCAnLW9tYWUnLCAnPG91dGZpbGUubWFlPic=

>  <r_lp_tautomer_probability>  (266) 
0.99995

>  <r_epik_Ionization_Penalty>  (266) 
0.00150694

>  <r_epik_Ionization_Penalty_Charging>  (266) 
0.00149309

>  <r_epik_Ionization_Penalty_Neutral>  (266) 
1.38515e-05

>  <r_epik_State_Penalty>  (266) 
0.000999974

>  <r_epik_Charging_Adjusted_Penalty>  (266) 
0.00249306

>  <i_epik_Tot_Q>  (266) 
-1

>  <i_epik_Tot_abs_Q>  (266) 
1

>  <s_lp_Force_Field>  (266) 
OPLS3e

>  <r_lp_Energy>  (266) 
99.504

>  <b_lp_Chiralities_Consistent>  (266) 
1

>  <s_lp_Variant>  (266) 
77:0-1

>  <s_i_glide_gridfile>  (266) 
pfpi4k_grid

>  <i_i_glide_lignum>  (266) 
28

>  <i_i_glide_rotatable_bonds>  (266) 
0

>  <r_i_docking_score>  (266) 
-2.5858

>  <r_i_glide_ligand_efficiency>  (266) 
-0.09235

>  <r_i_glide_ligand_efficiency_sa>  (266) 
-0.280429

>  <r_i_glide_ligand_efficiency_ln>  (266) 
-0.596879

>  <r_i_glide_gscore>  (266) 
-2.5858

>  <r_i_glide_lipo>  (266) 
-1.26471

>  <r_i_glide_hbond>  (266) 
0

>  <r_i_glide_metal>  (266) 
-0

>  <r_i_glide_rewards>  (266) 
-0.941757

>  <r_i_glide_evdw>  (266) 
-6.06842

>  <r_i_glide_ecoul>  (266) 
-0.234576

>  <r_i_glide_erotb>  (266) 
0

>  <r_i_glide_esite>  (266) 
-0.0407297

>  <r_i_glide_emodel>  (266) 
-7.69044

>  <r_i_glide_energy>  (266) 
-6.30299

>  <r_i_glide_einternal>  (266) 
0

>  <r_i_glide_intrahb_reward>  (266) 
-0

>  <i_i_glide_confnum>  (266) 
1

>  <i_i_glide_posenum>  (266) 
2

>  <r_i_glide_eff_state_penalty>  (266) 
0

>  <ligand_id>  (266) 
77

>  <original_smiles>  (266) 
C=C1C(=O)C23CCC1CC2C1OC2(C)C(=O)CC(=O)C4(C)C2CC(=O)C1(C)C43

>  <smiles>  (266) 
[H]C([H])=C1C(=O)C23C([H])([H])C([H])([H])C1([H])C([H])([H])C2([H])C1([H])OC2(C([H])([H])[H])C([O-])=C([H])C(=O)C4(C([H])([H])[H])C2([H])C([H])([H])C(=O)C1(C([H])([H])[H])C43[H]

$$$$
77:0:1
     RDKit          3D

 53 58  0  0  1  0  0  0  0  0999 V2000
    5.4145   -1.4792   -1.1149 C   0  0  0  0  0  0  0  0  0  0  0  0
    4.9174   -2.3578   -0.2281 C   0  0  0  0  0  0  0  0  0  0  0  0
    5.1654   -2.2219    1.2391 C   0  0  0  0  0  0  0  0  0  0  0  0
    5.9375   -1.4113    1.7541 O   0  0  0  0  0  0  0  0  0  0  0  0
    4.3210   -3.2192    2.0736 C   0  0  2  0  0  0  0  0  0  0  0  0
    4.7938   -4.6307    1.5634 C   0  0  0  0  0  0  0  0  0  0  0  0
    4.8017   -4.7971    0.0220 C   0  0  0  0  0  0  0  0  0  0  0  0
    4.0700   -3.5952   -0.5819 C   0  0  1  0  0  0  0  0  0  0  0  0
    2.6682   -3.5450    0.1012 C   0  0  0  0  0  0  0  0  0  0  0  0
    2.8840   -2.9700    1.5241 C   0  0  1  0  0  0  0  0  0  0  0  0
    1.9710   -3.1290    2.7404 C   0  0  1  0  0  0  0  0  0  0  0  0
    1.9425   -4.5510    2.9783 O   0  0  0  0  0  0  0  0  0  0  0  0
    2.1086   -5.2288    4.2537 C   0  0  1  0  0  0  0  0  0  0  0  0
    0.6653   -5.5214    4.7561 C   0  0  0  0  0  0  0  0  0  0  0  0
    2.9053   -6.5312    3.9465 C   0  0  0  0  0  0  0  0  0  0  0  0
    2.1615   -7.4767    3.6003 O   0  0  0  0  0  0  0  0  0  0  0  0
    4.2756   -6.5228    4.0908 C   0  0  0  0  0  0  0  0  0  0  0  0
    5.0836   -5.3470    4.4538 C   0  0  0  0  0  0  0  0  0  0  0  0
    6.3074   -5.4094    4.4868 O   0  0  0  0  0  0  0  0  0  0  0  0
    4.3471   -4.0289    4.8105 C   0  0  2  0  0  0  0  0  0  0  0  0
    5.1868   -3.4038    5.9755 C   0  0  0  0  0  0  0  0  0  0  0  0
    2.9460   -4.4719    5.3532 C   0  0  1  0  0  0  0  0  0  0  0  0
    2.2085   -3.3404    6.0597 C   0  0  0  0  0  0  0  0  0  0  0  0
    1.9847   -2.2129    5.0970 C   0  0  0  0  0  0  0  0  0  0  0  0
    1.1663   -1.3348    5.3878 O   0  0  0  0  0  0  0  0  0  0  0  0
    2.7493   -2.2343    3.7521 C   0  0  2  0  0  0  0  0  0  0  0  0
    2.8406   -0.7180    3.3653 C   0  0  0  0  0  0  0  0  0  0  0  0
    4.1767   -2.9159    3.6610 C   0  0  2  0  0  0  0  0  0  0  0  0
    5.2474   -1.5955   -2.1757 H   0  0  0  0  0  0  0  0  0  0  0  0
    6.0027   -0.6375   -0.7898 H   0  0  0  0  0  0  0  0  0  0  0  0
    5.7882   -4.8797    1.9343 H   0  0  0  0  0  0  0  0  0  0  0  0
    4.0966   -5.3918    1.8979 H   0  0  0  0  0  0  0  0  0  0  0  0
    5.8252   -4.8399   -0.3581 H   0  0  0  0  0  0  0  0  0  0  0  0
    4.3117   -5.7252   -0.2724 H   0  0  0  0  0  0  0  0  0  0  0  0
    3.9783   -3.7025   -1.6645 H   0  0  0  0  0  0  0  0  0  0  0  0
    2.0184   -2.8823   -0.4737 H   0  0  0  0  0  0  0  0  0  0  0  0
    2.1997   -4.5280    0.1121 H   0  0  0  0  0  0  0  0  0  0  0  0
    2.7421   -1.9252    1.2544 H   0  0  0  0  0  0  0  0  0  0  0  0
    0.9688   -2.7503    2.5584 H   0  0  0  0  0  0  0  0  0  0  0  0
    0.6807   -6.0903    5.6901 H   0  0  0  0  0  0  0  0  0  0  0  0
    0.1014   -6.1078    4.0272 H   0  0  0  0  0  0  0  0  0  0  0  0
    0.0917   -4.6082    4.9076 H   0  0  0  0  0  0  0  0  0  0  0  0
    4.8379   -7.4275    3.8899 H   0  0  0  0  0  0  0  0  0  0  0  0
    4.7617   -2.4801    6.3695 H   0  0  0  0  0  0  0  0  0  0  0  0
    6.2016   -3.1506    5.6599 H   0  0  0  0  0  0  0  0  0  0  0  0
    5.2850   -4.1014    6.8138 H   0  0  0  0  0  0  0  0  0  0  0  0
    3.1189   -5.1918    6.1617 H   0  0  0  0  0  0  0  0  0  0  0  0
    1.2561   -3.6680    6.4692 H   0  0  0  0  0  0  0  0  0  0  0  0
    2.7710   -2.9605    6.9117 H   0  0  0  0  0  0  0  0  0  0  0  0
    3.5279   -0.4868    2.5551 H   0  0  0  0  0  0  0  0  0  0  0  0
    3.2049   -0.1134    4.1990 H   0  0  0  0  0  0  0  0  0  0  0  0
    1.8663   -0.3190    3.0731 H   0  0  0  0  0  0  0  0  0  0  0  0
    4.9062   -2.1415    3.9006 H   0  0  0  0  0  0  0  0  0  0  0  0
  1  2  2  0
  1 29  1  0
  1 30  1  0
  2  8  1  0
  2  3  1  0
  3  4  2  0
  3  5  1  0
  5 10  1  0
  5 28  1  0
  5  6  1  1
  6  7  1  0
  6 31  1  0
  6 32  1  0
  7  8  1  0
  7 33  1  0
  7 34  1  0
  8  9  1  0
  8 35  1  6
  9 10  1  0
  9 36  1  0
  9 37  1  0
 10 11  1  0
 10 38  1  6
 11 26  1  0
 11 12  1  0
 11 39  1  6
 12 13  1  0
 13 22  1  0
 13 14  1  1
 13 15  1  0
 14 40  1  0
 14 41  1  0
 14 42  1  0
 15 16  1  0
 15 17  2  0
 17 18  1  0
 17 43  1  0
 18 19  2  0
 18 20  1  0
 20 28  1  0
 20 21  1  1
 20 22  1  0
 21 44  1  0
 21 45  1  0
 21 46  1  0
 22 23  1  0
 22 47  1  1
 23 24  1  0
 23 48  1  0
 23 49  1  0
 24 25  2  0
 24 26  1  0
 26 27  1  6
 26 28  1  0
 27 50  1  0
 27 51  1  0
 27 52  1  0
 28 53  1  1
M  CHG  1  16  -1
M  END
>  <i_m_ct_stereo_status>  (267) 
1

>  <s_m_source_file>  (267) 
/var/tmp/pbs.5076255.sched01/tmp4185l44a/86vs10_z9v.sdf

>  <i_m_source_file_index>  (267) 
28

>  <i_lp_mmshare_version>  (267) 
48012

>  <i_f3d_flags>  (267) 
0

>  <s_epik_input>  (267) 
Tz1DMUMoPVtDSDJdKVtDQEBIXShbQ0gyXVtDSDJdMilbQ0gyXVtDQEhdKFtDQF0xMjMpW0NAQEhdNFtDQF01KFtDSDNdKVtDQEhdM1tDQEBdNihbQ0gzXSlbQ0BASF0oW0NIMl1DNT1PKVtDQF0oTzQpKFtDSDNdKUMoPU8pW0NIMl1DNj1P

>  <s_epik_cmdline>  (267) 
J2VwaWtfcHl0aG9uJywgJy1waHQnLCAnMi4wJywgJy1waCcsICc3LjAnLCAnLXRuJywgJzgnLCAnLW1hJywgJzIwMCcsICctaW1hZScsICc8aW5maWxlLm1hZT4nLCAnLW9tYWUnLCAnPG91dGZpbGUubWFlPic=

>  <r_lp_tautomer_probability>  (267) 
0.99995

>  <r_epik_Ionization_Penalty>  (267) 
0.00150694

>  <r_epik_Ionization_Penalty_Charging>  (267) 
0.00149309

>  <r_epik_Ionization_Penalty_Neutral>  (267) 
1.38515e-05

>  <r_epik_State_Penalty>  (267) 
0.000999974

>  <r_epik_Charging_Adjusted_Penalty>  (267) 
0.00249306

>  <i_epik_Tot_Q>  (267) 
-1

>  <i_epik_Tot_abs_Q>  (267) 
1

>  <s_lp_Force_Field>  (267) 
OPLS3e

>  <r_lp_Energy>  (267) 
99.504

>  <b_lp_Chiralities_Consistent>  (267) 
1

>  <s_lp_Variant>  (267) 
77:0-1

>  <s_i_glide_gridfile>  (267) 
pfpi4k_grid

>  <i_i_glide_lignum>  (267) 
28

>  <i_i_glide_rotatable_bonds>  (267) 
0

>  <r_i_docking_score>  (267) 
-1.92575

>  <r_i_glide_ligand_efficiency>  (267) 
-0.0687768

>  <r_i_glide_ligand_efficiency_sa>  (267) 
-0.208847

>  <r_i_glide_ligand_efficiency_ln>  (267) 
-0.44452

>  <r_i_glide_gscore>  (267) 
-1.92575

>  <r_i_glide_lipo>  (267) 
-0.0885069

>  <r_i_glide_hbond>  (267) 
0

>  <r_i_glide_metal>  (267) 
-0

>  <r_i_glide_rewards>  (267) 
-0.874634

>  <r_i_glide_evdw>  (267) 
-20.3877

>  <r_i_glide_ecoul>  (267) 
0.37849

>  <r_i_glide_erotb>  (267) 
0

>  <r_i_glide_esite>  (267) 
0

>  <r_i_glide_emodel>  (267) 
-22.1503

>  <r_i_glide_energy>  (267) 
-20.0092

>  <r_i_glide_einternal>  (267) 
0

>  <r_i_glide_intrahb_reward>  (267) 
-0

>  <i_i_glide_confnum>  (267) 
2

>  <i_i_glide_posenum>  (267) 
1

>  <r_i_glide_eff_state_penalty>  (267) 
0

>  <ligand_id>  (267) 
77

>  <original_smiles>  (267) 
C=C1C(=O)C23CCC1CC2C1OC2(C)C(=O)CC(=O)C4(C)C2CC(=O)C1(C)C43

>  <smiles>  (267) 
[H]C([H])=C1C(=O)C23C([H])([H])C([H])([H])C1([H])C([H])([H])C2([H])C1([H])OC2(C([H])([H])[H])C([O-])=C([H])C(=O)C4(C([H])([H])[H])C2([H])C([H])([H])C(=O)C1(C([H])([H])[H])C43[H]

$$$$
77:0:2
     RDKit          3D

 53 58  0  0  1  0  0  0  0  0999 V2000
    4.4517   -0.0649   -3.1247 C   0  0  0  0  0  0  0  0  0  0  0  0
    4.5394   -1.1870   -2.4188 C   0  0  0  0  0  0  0  0  0  0  0  0
    4.8694   -1.2791   -0.9426 C   0  0  0  0  0  0  0  0  0  0  0  0
    5.2723   -0.3806   -0.2088 O   0  0  0  0  0  0  0  0  0  0  0  0
    4.6109   -2.6813   -0.3804 C   0  0  2  0  0  0  0  0  0  0  0  0
    5.6059   -3.5943   -1.1709 C   0  0  0  0  0  0  0  0  0  0  0  0
    5.5490   -3.4087   -2.7041 C   0  0  0  0  0  0  0  0  0  0  0  0
    4.3269   -2.5550   -3.0479 C   0  0  1  0  0  0  0  0  0  0  0  0
    3.1091   -3.2134   -2.3895 C   0  0  0  0  0  0  0  0  0  0  0  0
    3.1882   -2.9459   -0.8777 C   0  0  1  0  0  0  0  0  0  0  0  0
    2.5513   -3.7399    0.2367 C   0  0  1  0  0  0  0  0  0  0  0  0
    3.1415   -5.0482    0.1796 O   0  0  0  0  0  0  0  0  0  0  0  0
    3.6158   -5.8258    1.2973 C   0  0  1  0  0  0  0  0  0  0  0  0
    2.4927   -6.7951    1.7201 C   0  0  0  0  0  0  0  0  0  0  0  0
    4.8777   -6.5791    0.7403 C   0  0  0  0  0  0  0  0  0  0  0  0
    4.5764   -7.6804    0.2143 O   0  0  0  0  0  0  0  0  0  0  0  0
    6.1075   -5.9976    0.8876 C   0  0  0  0  0  0  0  0  0  0  0  0
    6.3587   -4.6786    1.4902 C   0  0  0  0  0  0  0  0  0  0  0  0
    7.4687   -4.1837    1.4925 O   0  0  0  0  0  0  0  0  0  0  0  0
    5.1444   -3.9261    2.1078 C   0  0  2  0  0  0  0  0  0  0  0  0
    5.6153   -3.2250    3.3911 C   0  0  0  0  0  0  0  0  0  0  0  0
    4.1386   -5.0203    2.5299 C   0  0  1  0  0  0  0  0  0  0  0  0
    3.0508   -4.4842    3.4575 C   0  0  0  0  0  0  0  0  0  0  0  0
    2.3220   -3.3991    2.7583 C   0  0  0  0  0  0  0  0  0  0  0  0
    1.2479   -3.0120    3.2521 O   0  0  0  0  0  0  0  0  0  0  0  0
    2.9049   -2.8183    1.4530 C   0  0  2  0  0  0  0  0  0  0  0  0
    2.3239   -1.3627    1.4475 C   0  0  0  0  0  0  0  0  0  0  0  0
    4.4640   -2.7851    1.2308 C   0  0  2  0  0  0  0  0  0  0  0  0
    4.2851   -0.1033   -4.2039 H   0  0  0  0  0  0  0  0  0  0  0  0
    4.6680    0.9316   -2.7179 H   0  0  0  0  0  0  0  0  0  0  0  0
    6.6395   -3.4407   -0.8445 H   0  0  0  0  0  0  0  0  0  0  0  0
    5.3278   -4.6259   -1.0221 H   0  0  0  0  0  0  0  0  0  0  0  0
    6.4637   -2.9416   -3.0720 H   0  0  0  0  0  0  0  0  0  0  0  0
    5.4539   -4.3748   -3.1969 H   0  0  0  0  0  0  0  0  0  0  0  0
    4.2179   -2.4652   -4.1348 H   0  0  0  0  0  0  0  0  0  0  0  0
    2.1898   -2.8104   -2.8099 H   0  0  0  0  0  0  0  0  0  0  0  0
    3.1206   -4.2530   -2.6325 H   0  0  0  0  0  0  0  0  0  0  0  0
    2.6191   -2.0283   -0.8995 H   0  0  0  0  0  0  0  0  0  0  0  0
    1.5066   -3.8620    0.0177 H   0  0  0  0  0  0  0  0  0  0  0  0
    2.8408   -7.4725    2.5066 H   0  0  0  0  0  0  0  0  0  0  0  0
    2.1721   -7.4225    0.8948 H   0  0  0  0  0  0  0  0  0  0  0  0
    1.6002   -6.2651    2.0431 H   0  0  0  0  0  0  0  0  0  0  0  0
    7.0060   -6.4870    0.5159 H   0  0  0  0  0  0  0  0  0  0  0  0
    4.8769   -2.6566    3.9659 H   0  0  0  0  0  0  0  0  0  0  0  0
    6.2583   -2.4486    3.0204 H   0  0  0  0  0  0  0  0  0  0  0  0
    6.1999   -3.9015    4.0280 H   0  0  0  0  0  0  0  0  0  0  0  0
    4.6813   -5.7211    3.1727 H   0  0  0  0  0  0  0  0  0  0  0  0
    2.3677   -5.2632    3.7748 H   0  0  0  0  0  0  0  0  0  0  0  0
    3.4599   -4.0760    4.3815 H   0  0  0  0  0  0  0  0  0  0  0  0
    2.7245   -0.7053    0.6770 H   0  0  0  0  0  0  0  0  0  0  0  0
    2.5048   -0.8325    2.3869 H   0  0  0  0  0  0  0  0  0  0  0  0
    1.2358   -1.3891    1.3306 H   0  0  0  0  0  0  0  0  0  0  0  0
    4.7973   -1.8295    1.6447 H   0  0  0  0  0  0  0  0  0  0  0  0
  1  2  2  0
  1 29  1  0
  1 30  1  0
  2  8  1  0
  2  3  1  0
  3  4  2  0
  3  5  1  0
  5 10  1  0
  5 28  1  0
  5  6  1  6
  6  7  1  0
  6 31  1  0
  6 32  1  0
  7  8  1  0
  7 33  1  0
  7 34  1  0
  8  9  1  0
  8 35  1  6
  9 10  1  0
  9 36  1  0
  9 37  1  0
 10 11  1  0
 10 38  1  6
 11 26  1  0
 11 12  1  0
 11 39  1  6
 12 13  1  0
 13 22  1  0
 13 14  1  1
 13 15  1  0
 14 40  1  0
 14 41  1  0
 14 42  1  0
 15 16  1  0
 15 17  2  0
 17 18  1  0
 17 43  1  0
 18 19  2  0
 18 20  1  0
 20 28  1  0
 20 21  1  1
 20 22  1  0
 21 44  1  0
 21 45  1  0
 21 46  1  0
 22 23  1  0
 22 47  1  1
 23 24  1  0
 23 48  1  0
 23 49  1  0
 24 25  2  0
 24 26  1  0
 26 27  1  6
 26 28  1  0
 27 50  1  0
 27 51  1  0
 27 52  1  0
 28 53  1  1
M  CHG  1  16  -1
M  END
>  <i_m_ct_stereo_status>  (268) 
1

>  <s_m_source_file>  (268) 
/var/tmp/pbs.5076255.sched01/tmp4185l44a/86vs10_z9v.sdf

>  <i_m_source_file_index>  (268) 
28

>  <i_lp_mmshare_version>  (268) 
48012

>  <i_f3d_flags>  (268) 
0

>  <s_epik_input>  (268) 
Tz1DMUMoPVtDSDJdKVtDQEBIXShbQ0gyXVtDSDJdMilbQ0gyXVtDQEhdKFtDQF0xMjMpW0NAQEhdNFtDQF01KFtDSDNdKVtDQEhdM1tDQEBdNihbQ0gzXSlbQ0BASF0oW0NIMl1DNT1PKVtDQF0oTzQpKFtDSDNdKUMoPU8pW0NIMl1DNj1P

>  <s_epik_cmdline>  (268) 
J2VwaWtfcHl0aG9uJywgJy1waHQnLCAnMi4wJywgJy1waCcsICc3LjAnLCAnLXRuJywgJzgnLCAnLW1hJywgJzIwMCcsICctaW1hZScsICc8aW5maWxlLm1hZT4nLCAnLW9tYWUnLCAnPG91dGZpbGUubWFlPic=

>  <r_lp_tautomer_probability>  (268) 
0.99995

>  <r_epik_Ionization_Penalty>  (268) 
0.00150694

>  <r_epik_Ionization_Penalty_Charging>  (268) 
0.00149309

>  <r_epik_Ionization_Penalty_Neutral>  (268) 
1.38515e-05

>  <r_epik_State_Penalty>  (268) 
0.000999974

>  <r_epik_Charging_Adjusted_Penalty>  (268) 
0.00249306

>  <i_epik_Tot_Q>  (268) 
-1

>  <i_epik_Tot_abs_Q>  (268) 
1

>  <s_lp_Force_Field>  (268) 
OPLS3e

>  <r_lp_Energy>  (268) 
99.504

>  <b_lp_Chiralities_Consistent>  (268) 
1

>  <s_lp_Variant>  (268) 
77:0-1

>  <s_i_glide_gridfile>  (268) 
pfpi4k_grid

>  <i_i_glide_lignum>  (268) 
28

>  <i_i_glide_rotatable_bonds>  (268) 
0

>  <r_i_docking_score>  (268) 
-1.59077

>  <r_i_glide_ligand_efficiency>  (268) 
-0.0568134

>  <r_i_glide_ligand_efficiency_sa>  (268) 
-0.172519

>  <r_i_glide_ligand_efficiency_ln>  (268) 
-0.367197

>  <r_i_glide_gscore>  (268) 
-1.59077

>  <r_i_glide_lipo>  (268) 
-0.81092

>  <r_i_glide_hbond>  (268) 
0

>  <r_i_glide_metal>  (268) 
-0

>  <r_i_glide_rewards>  (268) 
-0.918099

>  <r_i_glide_evdw>  (268) 
-4.12825

>  <r_i_glide_ecoul>  (268) 
2.57774

>  <r_i_glide_erotb>  (268) 
0

>  <r_i_glide_esite>  (268) 
-0.0420048

>  <r_i_glide_emodel>  (268) 
-0.973036

>  <r_i_glide_energy>  (268) 
-1.55051

>  <r_i_glide_einternal>  (268) 
0

>  <r_i_glide_intrahb_reward>  (268) 
-0

>  <i_i_glide_confnum>  (268) 
2

>  <i_i_glide_posenum>  (268) 
30

>  <r_i_glide_eff_state_penalty>  (268) 
0

>  <ligand_id>  (268) 
77

>  <original_smiles>  (268) 
C=C1C(=O)C23CCC1CC2C1OC2(C)C(=O)CC(=O)C4(C)C2CC(=O)C1(C)C43

>  <smiles>  (268) 
[H]C([H])=C1C(=O)C23C([H])([H])C([H])([H])C1([H])C([H])([H])C2([H])C1([H])OC2(C([H])([H])[H])C([O-])=C([H])C(=O)C4(C([H])([H])[H])C2([H])C([H])([H])C(=O)C1(C([H])([H])[H])C43[H]

$$$$
78:0:0
     RDKit          3D

 32 34  0  0  1  0  0  0  0  0999 V2000
    1.9695   -4.1080   -0.9069 C   0  0  0  0  0  0  0  0  0  0  0  0
    2.9594   -3.3054   -1.6701 C   0  0  0  0  0  0  0  0  0  0  0  0
    2.5007   -2.8067   -2.8094 N   0  0  0  0  0  0  0  0  0  0  0  0
    3.3423   -2.0919   -3.5241 C   0  0  0  0  0  0  0  0  0  0  0  0
    4.6278   -1.8334   -3.2908 N   0  0  0  0  0  0  0  0  0  0  0  0
    5.1018   -2.3855   -2.1340 C   0  0  0  0  0  0  0  0  0  0  0  0
    6.3886   -2.3090   -1.6268 N   0  0  0  0  0  0  0  0  0  0  0  0
    6.4322   -2.9882   -0.5235 N   0  0  0  0  0  0  0  0  0  0  0  0
    5.1735   -3.5075   -0.2715 N   0  0  0  0  0  0  0  0  0  0  0  0
    5.0449   -4.4000    0.9110 C   0  0  2  0  0  0  0  0  0  0  0  0
    5.1709   -5.8443    0.4938 C   0  0  0  0  0  0  0  0  0  0  0  0
    4.0709   -6.5070    0.8173 C   0  0  0  0  0  0  0  0  0  0  0  0
    3.1699   -5.5662    1.5344 C   0  0  1  0  0  0  0  0  0  0  0  0
    2.5440   -6.1007    2.8293 C   0  0  0  0  0  0  0  0  0  0  0  0
    1.3724   -7.1542    2.6303 C   0  0  0  0  0  0  0  0  0  0  0  0
    0.0722   -6.6898    1.9316 C   0  0  0  0  0  0  0  0  0  0  0  0
    0.0827   -6.3360    0.7300 O   0  0  0  0  0  0  0  0  0  0  0  0
   -0.9675   -6.7177    2.6262 O   0  0  0  0  0  0  0  0  0  0  0  0
    3.7980   -4.3087    1.5291 O   0  0  0  0  0  0  0  0  0  0  0  0
    4.2621   -3.1312   -1.2922 C   0  0  0  0  0  0  0  0  0  0  0  0
    1.8730   -3.6711    0.0838 H   0  0  0  0  0  0  0  0  0  0  0  0
    2.4431   -5.0729   -0.8691 H   0  0  0  0  0  0  0  0  0  0  0  0
    0.9854   -4.2582   -1.3749 H   0  0  0  0  0  0  0  0  0  0  0  0
    2.8908   -1.6901   -4.4044 H   0  0  0  0  0  0  0  0  0  0  0  0
    5.7947   -4.1472    1.6584 H   0  0  0  0  0  0  0  0  0  0  0  0
    6.0553   -6.2439   -0.0275 H   0  0  0  0  0  0  0  0  0  0  0  0
    3.8196   -7.5388    0.5548 H   0  0  0  0  0  0  0  0  0  0  0  0
    2.2395   -5.5235    0.9783 H   0  0  0  0  0  0  0  0  0  0  0  0
    3.3833   -6.5463    3.3845 H   0  0  0  0  0  0  0  0  0  0  0  0
    2.1695   -5.2448    3.3877 H   0  0  0  0  0  0  0  0  0  0  0  0
    1.7430   -8.0427    2.1298 H   0  0  0  0  0  0  0  0  0  0  0  0
    1.1016   -7.4791    3.6280 H   0  0  0  0  0  0  0  0  0  0  0  0
  1  2  1  0
  1 21  1  0
  1 22  1  0
  1 23  1  0
  2 20  2  0
  2  3  1  0
  3  4  2  0
  4  5  1  0
  4 24  1  0
  5  6  2  0
  6 20  1  0
  6  7  1  0
  7  8  2  0
  8  9  1  0
  9 10  1  0
  9 20  1  0
 10 19  1  0
 10 11  1  0
 10 25  1  1
 11 12  2  0
 11 26  1  0
 12 13  1  0
 12 27  1  0
 13 14  1  0
 13 19  1  0
 13 28  1  6
 14 15  1  0
 14 29  1  0
 14 30  1  0
 15 16  1  0
 15 31  1  0
 15 32  1  0
 16 17  2  0
 16 18  1  0
M  CHG  1  18  -1
M  END
>  <i_m_ct_stereo_status>  (269) 
1

>  <s_m_source_file>  (269) 
/var/tmp/pbs.5076255.sched01/tmp4185l44a/86vs10_z9v.sdf

>  <i_m_source_file_index>  (269) 
29

>  <i_lp_mmshare_version>  (269) 
48012

>  <i_f3d_flags>  (269) 
0

>  <s_epik_input>  (269) 
bjFbY0hdbmMoW0NIM10pYyhjMTIpbihubjIpW0NAQEhdM1tDSF09W0NIXVtDQEhdKE8zKVtDSDJdW0NIMl1DKD1PKVtPSF0=

>  <s_epik_cmdline>  (269) 
J2VwaWtfcHl0aG9uJywgJy1waHQnLCAnMi4wJywgJy1waCcsICc3LjAnLCAnLXRuJywgJzgnLCAnLW1hJywgJzIwMCcsICctaW1hZScsICc8aW5maWxlLm1hZT4nLCAnLW9tYWUnLCAnPG91dGZpbGUubWFlPic=

>  <r_lp_tautomer_probability>  (269) 
1

>  <r_epik_Ionization_Penalty>  (269) 
0.00185731

>  <r_epik_Ionization_Penalty_Charging>  (269) 
0.00185731

>  <r_epik_Ionization_Penalty_Neutral>  (269) 
1.65598e-11

>  <r_epik_State_Penalty>  (269) 
0.00126239

>  <r_epik_Charging_Adjusted_Penalty>  (269) 
0.0031197

>  <i_epik_Tot_Q>  (269) 
-1

>  <i_epik_Tot_abs_Q>  (269) 
1

>  <s_epik_Chemistry_Notes>  (269) 
This compound contains an acetal/aminal-like group ( X-CH(R)-Y where X, Y are N, S, or O) that may be acid/base labile, releasing an aldehyde.

>  <s_lp_Force_Field>  (269) 
OPLS3e

>  <r_lp_Energy>  (269) 
5.71827

>  <b_lp_Chiralities_Consistent>  (269) 
1

>  <s_lp_Variant>  (269) 
78:0-1

>  <s_i_glide_gridfile>  (269) 
pfpi4k_grid

>  <i_i_glide_lignum>  (269) 
29

>  <i_i_glide_rotatable_bonds>  (269) 
4

>  <r_i_docking_score>  (269) 
-4.37508

>  <r_i_glide_ligand_efficiency>  (269) 
-0.218754

>  <r_i_glide_ligand_efficiency_sa>  (269) 
-0.59379

>  <r_i_glide_ligand_efficiency_ln>  (269) 
-1.09494

>  <r_i_glide_gscore>  (269) 
-4.37508

>  <r_i_glide_lipo>  (269) 
-0.355875

>  <r_i_glide_hbond>  (269) 
-0.4

>  <r_i_glide_metal>  (269) 
-0

>  <r_i_glide_rewards>  (269) 
-2.03201

>  <r_i_glide_evdw>  (269) 
-21.1079

>  <r_i_glide_ecoul>  (269) 
-7.25482

>  <r_i_glide_erotb>  (269) 
0.716084

>  <r_i_glide_esite>  (269) 
-0.159658

>  <r_i_glide_emodel>  (269) 
-36.2943

>  <r_i_glide_energy>  (269) 
-28.3628

>  <r_i_glide_einternal>  (269) 
2.73048

>  <r_i_glide_intrahb_reward>  (269) 
-0

>  <i_i_glide_confnum>  (269) 
1

>  <i_i_glide_posenum>  (269) 
38

>  <r_i_glide_eff_state_penalty>  (269) 
0

>  <ligand_id>  (269) 
78

>  <original_smiles>  (269) 
Cc1ncnc2nnn(C3C=CC(CCC(=O)O)O3)c12

>  <smiles>  (269) 
[H]C1=C([H])C([H])(C([H])([H])C([H])([H])C(=O)[O-])OC1([H])n1nnc2nc([H])nc(C([H])([H])[H])c21

$$$$
78:0:1
     RDKit          3D

 32 34  0  0  1  0  0  0  0  0999 V2000
    1.1750   -7.4637    9.0021 C   0  0  0  0  0  0  0  0  0  0  0  0
    0.4414   -6.1471    9.0387 C   0  0  0  0  0  0  0  0  0  0  0  0
   -0.1765   -5.8104   10.1850 N   0  0  0  0  0  0  0  0  0  0  0  0
   -0.8174   -4.6386   10.2282 C   0  0  0  0  0  0  0  0  0  0  0  0
   -0.9574   -3.7160    9.2627 N   0  0  0  0  0  0  0  0  0  0  0  0
   -0.3517   -4.0641    8.1189 C   0  0  0  0  0  0  0  0  0  0  0  0
   -0.3028   -3.3130    6.9549 N   0  0  0  0  0  0  0  0  0  0  0  0
    0.3831   -3.9807    6.0702 N   0  0  0  0  0  0  0  0  0  0  0  0
    0.7861   -5.1658    6.6281 N   0  0  0  0  0  0  0  0  0  0  0  0
    1.6383   -6.0736    5.8618 C   0  0  2  0  0  0  0  0  0  0  0  0
    3.0380   -5.5626    5.6846 C   0  0  0  0  0  0  0  0  0  0  0  0
    3.3177   -5.4954    4.3880 C   0  0  0  0  0  0  0  0  0  0  0  0
    2.1317   -5.9614    3.5972 C   0  0  1  0  0  0  0  0  0  0  0  0
    2.5044   -7.1556    2.6765 C   0  0  0  0  0  0  0  0  0  0  0  0
    1.3594   -7.8443    1.8957 C   0  0  0  0  0  0  0  0  0  0  0  0
    0.3208   -6.8564    1.3765 C   0  0  0  0  0  0  0  0  0  0  0  0
   -0.6977   -6.6541    2.0687 O   0  0  0  0  0  0  0  0  0  0  0  0
    0.5789   -6.2465    0.3157 O   0  0  0  0  0  0  0  0  0  0  0  0
    1.1289   -6.2744    4.5734 O   0  0  0  0  0  0  0  0  0  0  0  0
    0.3612   -5.2616    7.9445 C   0  0  0  0  0  0  0  0  0  0  0  0
    2.2439   -7.3012    8.8511 H   0  0  0  0  0  0  0  0  0  0  0  0
    0.7869   -8.0875    8.1977 H   0  0  0  0  0  0  0  0  0  0  0  0
    1.0394   -8.0074    9.9381 H   0  0  0  0  0  0  0  0  0  0  0  0
   -1.3261   -4.4283   11.1533 H   0  0  0  0  0  0  0  0  0  0  0  0
    1.6722   -7.0448    6.3353 H   0  0  0  0  0  0  0  0  0  0  0  0
    3.6990   -5.3311    6.5105 H   0  0  0  0  0  0  0  0  0  0  0  0
    4.2499   -5.1836    3.9351 H   0  0  0  0  0  0  0  0  0  0  0  0
    1.7797   -5.1228    3.0099 H   0  0  0  0  0  0  0  0  0  0  0  0
    3.2518   -6.8135    1.9548 H   0  0  0  0  0  0  0  0  0  0  0  0
    3.0199   -7.9260    3.2574 H   0  0  0  0  0  0  0  0  0  0  0  0
    1.7619   -8.4330    1.0673 H   0  0  0  0  0  0  0  0  0  0  0  0
    0.8627   -8.5488    2.5583 H   0  0  0  0  0  0  0  0  0  0  0  0
  1  2  1  0
  1 21  1  0
  1 22  1  0
  1 23  1  0
  2 20  2  0
  2  3  1  0
  3  4  2  0
  4  5  1  0
  4 24  1  0
  5  6  2  0
  6 20  1  0
  6  7  1  0
  7  8  2  0
  8  9  1  0
  9 10  1  0
  9 20  1  0
 10 19  1  0
 10 11  1  0
 10 25  1  1
 11 12  2  0
 11 26  1  0
 12 13  1  0
 12 27  1  0
 13 14  1  0
 13 19  1  0
 13 28  1  6
 14 15  1  0
 14 29  1  0
 14 30  1  0
 15 16  1  0
 15 31  1  0
 15 32  1  0
 16 17  2  0
 16 18  1  0
M  CHG  1  18  -1
M  END
>  <i_m_ct_stereo_status>  (270) 
1

>  <s_m_source_file>  (270) 
/var/tmp/pbs.5076255.sched01/tmp4185l44a/86vs10_z9v.sdf

>  <i_m_source_file_index>  (270) 
29

>  <i_lp_mmshare_version>  (270) 
48012

>  <i_f3d_flags>  (270) 
0

>  <s_epik_input>  (270) 
bjFbY0hdbmMoW0NIM10pYyhjMTIpbihubjIpW0NAQEhdM1tDSF09W0NIXVtDQEhdKE8zKVtDSDJdW0NIMl1DKD1PKVtPSF0=

>  <s_epik_cmdline>  (270) 
J2VwaWtfcHl0aG9uJywgJy1waHQnLCAnMi4wJywgJy1waCcsICc3LjAnLCAnLXRuJywgJzgnLCAnLW1hJywgJzIwMCcsICctaW1hZScsICc8aW5maWxlLm1hZT4nLCAnLW9tYWUnLCAnPG91dGZpbGUubWFlPic=

>  <r_lp_tautomer_probability>  (270) 
1

>  <r_epik_Ionization_Penalty>  (270) 
0.00185731

>  <r_epik_Ionization_Penalty_Charging>  (270) 
0.00185731

>  <r_epik_Ionization_Penalty_Neutral>  (270) 
1.65598e-11

>  <r_epik_State_Penalty>  (270) 
0.00126239

>  <r_epik_Charging_Adjusted_Penalty>  (270) 
0.0031197

>  <i_epik_Tot_Q>  (270) 
-1

>  <i_epik_Tot_abs_Q>  (270) 
1

>  <s_epik_Chemistry_Notes>  (270) 
This compound contains an acetal/aminal-like group ( X-CH(R)-Y where X, Y are N, S, or O) that may be acid/base labile, releasing an aldehyde.

>  <s_lp_Force_Field>  (270) 
OPLS3e

>  <r_lp_Energy>  (270) 
5.71827

>  <b_lp_Chiralities_Consistent>  (270) 
1

>  <s_lp_Variant>  (270) 
78:0-1

>  <s_i_glide_gridfile>  (270) 
pfpi4k_grid

>  <i_i_glide_lignum>  (270) 
29

>  <i_i_glide_rotatable_bonds>  (270) 
4

>  <r_i_docking_score>  (270) 
-4.19076

>  <r_i_glide_ligand_efficiency>  (270) 
-0.209538

>  <r_i_glide_ligand_efficiency_sa>  (270) 
-0.568774

>  <r_i_glide_ligand_efficiency_ln>  (270) 
-1.04881

>  <r_i_glide_gscore>  (270) 
-4.19076

>  <r_i_glide_lipo>  (270) 
0

>  <r_i_glide_hbond>  (270) 
-0.842551

>  <r_i_glide_metal>  (270) 
-0

>  <r_i_glide_rewards>  (270) 
-1.53917

>  <r_i_glide_evdw>  (270) 
-12.2136

>  <r_i_glide_ecoul>  (270) 
-11.5381

>  <r_i_glide_erotb>  (270) 
0.716084

>  <r_i_glide_esite>  (270) 
-0.183738

>  <r_i_glide_emodel>  (270) 
-33.6694

>  <r_i_glide_energy>  (270) 
-23.7516

>  <r_i_glide_einternal>  (270) 
3.04087

>  <r_i_glide_intrahb_reward>  (270) 
-0

>  <i_i_glide_confnum>  (270) 
3

>  <i_i_glide_posenum>  (270) 
6

>  <r_i_glide_eff_state_penalty>  (270) 
0

>  <ligand_id>  (270) 
78

>  <original_smiles>  (270) 
Cc1ncnc2nnn(C3C=CC(CCC(=O)O)O3)c12

>  <smiles>  (270) 
[H]C1=C([H])C([H])(C([H])([H])C([H])([H])C(=O)[O-])OC1([H])n1nnc2nc([H])nc(C([H])([H])[H])c21

$$$$
78:0:2
     RDKit          3D

 32 34  0  0  1  0  0  0  0  0999 V2000
    3.1432  -10.2444    2.5884 C   0  0  0  0  0  0  0  0  0  0  0  0
    1.8422   -9.4852    2.5282 C   0  0  0  0  0  0  0  0  0  0  0  0
    0.7303  -10.1216    2.9233 N   0  0  0  0  0  0  0  0  0  0  0  0
   -0.4281   -9.4524    2.8780 C   0  0  0  0  0  0  0  0  0  0  0  0
   -0.6502   -8.1816    2.4789 N   0  0  0  0  0  0  0  0  0  0  0  0
    0.4567   -7.5624    2.0686 C   0  0  0  0  0  0  0  0  0  0  0  0
    0.5558   -6.2697    1.5810 N   0  0  0  0  0  0  0  0  0  0  0  0
    1.8042   -6.0119    1.3320 N   0  0  0  0  0  0  0  0  0  0  0  0
    2.5438   -7.1211    1.6224 N   0  0  0  0  0  0  0  0  0  0  0  0
    3.9933   -7.1160    1.4365 C   0  0  2  0  0  0  0  0  0  0  0  0
    4.7264   -7.1566    2.7478 C   0  0  0  0  0  0  0  0  0  0  0  0
    5.5482   -6.1288    2.8391 C   0  0  0  0  0  0  0  0  0  0  0  0
    5.4354   -5.2992    1.6017 C   0  0  1  0  0  0  0  0  0  0  0  0
    6.8312   -5.1534    0.9382 C   0  0  0  0  0  0  0  0  0  0  0  0
    6.9306   -4.1490   -0.2342 C   0  0  0  0  0  0  0  0  0  0  0  0
    6.7678   -2.6657    0.1131 C   0  0  0  0  0  0  0  0  0  0  0  0
    7.0138   -1.8512   -0.8125 O   0  0  0  0  0  0  0  0  0  0  0  0
    6.4103   -2.3421    1.2641 O   0  0  0  0  0  0  0  0  0  0  0  0
    4.4475   -5.9547    0.7839 O   0  0  0  0  0  0  0  0  0  0  0  0
    1.7404   -8.1457    2.0844 C   0  0  0  0  0  0  0  0  0  0  0  0
    3.8104   -9.8201    3.3336 H   0  0  0  0  0  0  0  0  0  0  0  0
    3.6336  -10.2377    1.6153 H   0  0  0  0  0  0  0  0  0  0  0  0
    2.9704  -11.2821    2.8881 H   0  0  0  0  0  0  0  0  0  0  0  0
   -1.2971   -9.9960    3.1770 H   0  0  0  0  0  0  0  0  0  0  0  0
    4.2739   -7.9549    0.8031 H   0  0  0  0  0  0  0  0  0  0  0  0
    4.5860   -7.9063    3.5050 H   0  0  0  0  0  0  0  0  0  0  0  0
    6.1947   -5.8882    3.6706 H   0  0  0  0  0  0  0  0  0  0  0  0
    4.9964   -4.3629    1.9269 H   0  0  0  0  0  0  0  0  0  0  0  0
    7.5594   -4.8514    1.6876 H   0  0  0  0  0  0  0  0  0  0  0  0
    7.1846   -6.1334    0.5985 H   0  0  0  0  0  0  0  0  0  0  0  0
    7.9147   -4.2541   -0.6985 H   0  0  0  0  0  0  0  0  0  0  0  0
    6.1884   -4.4081   -0.9856 H   0  0  0  0  0  0  0  0  0  0  0  0
  1  2  1  0
  1 21  1  0
  1 22  1  0
  1 23  1  0
  2 20  2  0
  2  3  1  0
  3  4  2  0
  4  5  1  0
  4 24  1  0
  5  6  2  0
  6 20  1  0
  6  7  1  0
  7  8  2  0
  8  9  1  0
  9 10  1  0
  9 20  1  0
 10 19  1  0
 10 11  1  0
 10 25  1  6
 11 12  2  0
 11 26  1  0
 12 13  1  0
 12 27  1  0
 13 14  1  0
 13 19  1  0
 13 28  1  1
 14 15  1  0
 14 29  1  0
 14 30  1  0
 15 16  1  0
 15 31  1  0
 15 32  1  0
 16 17  2  0
 16 18  1  0
M  CHG  1  18  -1
M  END
>  <i_m_ct_stereo_status>  (271) 
1

>  <s_m_source_file>  (271) 
/var/tmp/pbs.5076255.sched01/tmp4185l44a/86vs10_z9v.sdf

>  <i_m_source_file_index>  (271) 
29

>  <i_lp_mmshare_version>  (271) 
48012

>  <i_f3d_flags>  (271) 
0

>  <s_epik_input>  (271) 
bjFbY0hdbmMoW0NIM10pYyhjMTIpbihubjIpW0NAQEhdM1tDSF09W0NIXVtDQEhdKE8zKVtDSDJdW0NIMl1DKD1PKVtPSF0=

>  <s_epik_cmdline>  (271) 
J2VwaWtfcHl0aG9uJywgJy1waHQnLCAnMi4wJywgJy1waCcsICc3LjAnLCAnLXRuJywgJzgnLCAnLW1hJywgJzIwMCcsICctaW1hZScsICc8aW5maWxlLm1hZT4nLCAnLW9tYWUnLCAnPG91dGZpbGUubWFlPic=

>  <r_lp_tautomer_probability>  (271) 
1

>  <r_epik_Ionization_Penalty>  (271) 
0.00185731

>  <r_epik_Ionization_Penalty_Charging>  (271) 
0.00185731

>  <r_epik_Ionization_Penalty_Neutral>  (271) 
1.65598e-11

>  <r_epik_State_Penalty>  (271) 
0.00126239

>  <r_epik_Charging_Adjusted_Penalty>  (271) 
0.0031197

>  <i_epik_Tot_Q>  (271) 
-1

>  <i_epik_Tot_abs_Q>  (271) 
1

>  <s_epik_Chemistry_Notes>  (271) 
This compound contains an acetal/aminal-like group ( X-CH(R)-Y where X, Y are N, S, or O) that may be acid/base labile, releasing an aldehyde.

>  <s_lp_Force_Field>  (271) 
OPLS3e

>  <r_lp_Energy>  (271) 
5.71827

>  <b_lp_Chiralities_Consistent>  (271) 
1

>  <s_lp_Variant>  (271) 
78:0-1

>  <s_i_glide_gridfile>  (271) 
pfpi4k_grid

>  <i_i_glide_lignum>  (271) 
29

>  <i_i_glide_rotatable_bonds>  (271) 
4

>  <r_i_docking_score>  (271) 
-3.56114

>  <r_i_glide_ligand_efficiency>  (271) 
-0.178057

>  <r_i_glide_ligand_efficiency_sa>  (271) 
-0.483321

>  <r_i_glide_ligand_efficiency_ln>  (271) 
-0.891235

>  <r_i_glide_gscore>  (271) 
-3.56114

>  <r_i_glide_lipo>  (271) 
-0.293207

>  <r_i_glide_hbond>  (271) 
-0.2

>  <r_i_glide_metal>  (271) 
-0

>  <r_i_glide_rewards>  (271) 
-1.73263

>  <r_i_glide_evdw>  (271) 
-21.3011

>  <r_i_glide_ecoul>  (271) 
-5.0336

>  <r_i_glide_erotb>  (271) 
0.716084

>  <r_i_glide_esite>  (271) 
-0.231287

>  <r_i_glide_emodel>  (271) 
-35.2488

>  <r_i_glide_energy>  (271) 
-26.3347

>  <r_i_glide_einternal>  (271) 
1.13965

>  <r_i_glide_intrahb_reward>  (271) 
-0

>  <i_i_glide_confnum>  (271) 
2

>  <i_i_glide_posenum>  (271) 
2

>  <r_i_glide_eff_state_penalty>  (271) 
0

>  <ligand_id>  (271) 
78

>  <original_smiles>  (271) 
Cc1ncnc2nnn(C3C=CC(CCC(=O)O)O3)c12

>  <smiles>  (271) 
[H]C1=C([H])C([H])(C([H])([H])C([H])([H])C(=O)[O-])OC1([H])n1nnc2nc([H])nc(C([H])([H])[H])c21

$$$$
79:0:0
     RDKit          3D

 39 42  0  0  1  0  0  0  0  0999 V2000
    7.2856   -3.2777   -0.3740 C   0  0  0  0  0  0  0  0  0  0  0  0
    5.8164   -3.1337   -0.8526 C   0  0  2  0  0  0  0  0  0  0  0  0
    5.8126   -2.5572   -2.2798 C   0  0  0  0  0  0  0  0  0  0  0  0
    4.4653   -2.0541   -2.8171 C   0  0  0  0  0  0  0  0  0  0  0  0
    4.2840   -1.9295   -4.0250 O   0  0  0  0  0  0  0  0  0  0  0  0
    3.5639   -1.6507   -1.8923 O   0  0  0  0  0  0  0  0  0  0  0  0
    3.5034   -2.2125   -0.5821 C   0  0  1  0  0  0  0  0  0  0  0  0
    2.7046   -3.5181   -0.7099 C   0  0  0  0  0  0  0  0  0  0  0  0
    2.8589   -4.4836    0.4650 C   0  0  1  0  0  0  0  0  0  0  0  0
    3.6680   -5.5747    0.0786 O   0  0  0  0  0  0  0  0  0  0  0  0
    3.4219   -3.8439    1.7387 C   0  0  2  0  0  0  0  0  0  0  0  0
    3.2976   -4.7525    2.9760 C   0  0  0  0  0  0  0  0  0  0  0  0
    2.2837   -3.9094    3.5685 O   0  0  0  0  0  0  0  0  0  0  0  0
    2.5259   -2.9091    2.5505 C   0  0  1  0  0  0  0  0  0  0  0  0
    3.3593   -1.8334    2.9745 O   0  0  0  0  0  0  0  0  0  0  0  0
    4.7324   -2.1700    2.7633 C   0  0  0  0  0  0  0  0  0  0  0  0
    4.7339   -3.0793    1.5156 C   0  0  2  0  0  0  0  0  0  0  0  0
    4.8873   -2.3341    0.1159 C   0  0  1  0  0  0  0  0  0  0  0  0
    5.4237   -0.8790    0.2679 C   0  0  0  0  0  0  0  0  0  0  0  0
    7.7866   -2.3178   -0.2370 H   0  0  0  0  0  0  0  0  0  0  0  0
    7.8723   -3.8383   -1.1047 H   0  0  0  0  0  0  0  0  0  0  0  0
    7.3751   -3.8258    0.5641 H   0  0  0  0  0  0  0  0  0  0  0  0
    5.4327   -4.1467   -0.9437 H   0  0  0  0  0  0  0  0  0  0  0  0
    6.4686   -1.6941   -2.3115 H   0  0  0  0  0  0  0  0  0  0  0  0
    6.2335   -3.2757   -2.9836 H   0  0  0  0  0  0  0  0  0  0  0  0
    2.9042   -1.5364    0.0295 H   0  0  0  0  0  0  0  0  0  0  0  0
    1.6549   -3.2420   -0.8131 H   0  0  0  0  0  0  0  0  0  0  0  0
    2.9279   -4.0386   -1.6403 H   0  0  0  0  0  0  0  0  0  0  0  0
    1.8748   -4.9027    0.6738 H   0  0  0  0  0  0  0  0  0  0  0  0
    3.4163   -5.8453   -0.8009 H   0  0  0  0  0  0  0  0  0  0  0  0
    2.9159   -5.7478    2.7445 H   0  0  0  0  0  0  0  0  0  0  0  0
    4.1924   -4.8191    3.5960 H   0  0  0  0  0  0  0  0  0  0  0  0
    1.6209   -2.5914    2.0341 H   0  0  0  0  0  0  0  0  0  0  0  0
    5.3589   -1.2803    2.7230 H   0  0  0  0  0  0  0  0  0  0  0  0
    5.0981   -2.7380    3.6162 H   0  0  0  0  0  0  0  0  0  0  0  0
    5.5597   -3.7788    1.6373 H   0  0  0  0  0  0  0  0  0  0  0  0
    4.7156   -0.2472    0.8074 H   0  0  0  0  0  0  0  0  0  0  0  0
    5.5594   -0.3863   -0.6936 H   0  0  0  0  0  0  0  0  0  0  0  0
    6.3838   -0.8311    0.7836 H   0  0  0  0  0  0  0  0  0  0  0  0
  1  2  1  0
  1 20  1  0
  1 21  1  0
  1 22  1  0
  2 18  1  0
  2  3  1  0
  2 23  1  6
  3  4  1  0
  3 24  1  0
  3 25  1  0
  4  5  2  0
  4  6  1  0
  6  7  1  0
  7 18  1  0
  7  8  1  0
  7 26  1  1
  8  9  1  0
  8 27  1  0
  8 28  1  0
  9 10  1  0
  9 11  1  0
  9 29  1  1
 10 30  1  0
 11 14  1  0
 11 17  1  0
 11 12  1  1
 12 13  1  0
 12 31  1  0
 12 32  1  0
 13 14  1  0
 14 15  1  0
 14 33  1  6
 15 16  1  0
 16 17  1  0
 16 34  1  0
 16 35  1  0
 17 18  1  0
 17 36  1  1
 18 19  1  1
 19 37  1  0
 19 38  1  0
 19 39  1  0
M  END
>  <i_m_ct_stereo_status>  (272) 
1

>  <s_m_source_file>  (272) 
/var/tmp/pbs.5076255.sched01/tmp4185l44a/86vs10_z9v.sdf

>  <i_m_source_file_index>  (272) 
30

>  <i_lp_mmshare_version>  (272) 
48012

>  <i_f3d_flags>  (272) 
0

>  <s_epik_input>  (272) 
W0NIM11bQ0BASF0xW0NIMl1DKD1PKU9bQ0BASF0oW0NIMl1bQ0BIXTJbT0hdKVtDQEBdMShbQ0gzXSlbQ0BIXTNbQ0gyXU9bQ0BASF0oW0NAQF0yMzQpT1tDSDJdNA==

>  <s_epik_cmdline>  (272) 
J2VwaWtfcHl0aG9uJywgJy1waHQnLCAnMi4wJywgJy1waCcsICc3LjAnLCAnLXRuJywgJzgnLCAnLW1hJywgJzIwMCcsICctaW1hZScsICc8aW5maWxlLm1hZT4nLCAnLW9tYWUnLCAnPG91dGZpbGUubWFlPic=

>  <r_lp_tautomer_probability>  (272) 
1

>  <r_epik_Ionization_Penalty>  (272) 
7.81106e-08

>  <r_epik_Ionization_Penalty_Charging>  (272) 
0

>  <r_epik_Ionization_Penalty_Neutral>  (272) 
7.81106e-08

>  <r_epik_State_Penalty>  (272) 
-0

>  <r_epik_Charging_Adjusted_Penalty>  (272) 
0

>  <i_epik_Tot_Q>  (272) 
0

>  <i_epik_Tot_abs_Q>  (272) 
0

>  <s_epik_Chemistry_Notes>  (272) 
This compound has an ester and may undergo hydrolysis at high or low pH. This compound contains an acetal/aminal-like group ( X-CH(R)-Y where X, Y are N, S, or O) that may be acid/base labile, releasing an aldehyde.

>  <s_lp_Force_Field>  (272) 
OPLS3e

>  <r_lp_Energy>  (272) 
25.2037

>  <b_lp_Chiralities_Consistent>  (272) 
1

>  <s_lp_Variant>  (272) 
79:0-1

>  <s_i_glide_gridfile>  (272) 
pfpi4k_grid

>  <i_i_glide_lignum>  (272) 
30

>  <i_i_glide_rotatable_bonds>  (272) 
1

>  <r_i_docking_score>  (272) 
-4.56194

>  <r_i_glide_ligand_efficiency>  (272) 
-0.240102

>  <r_i_glide_ligand_efficiency_sa>  (272) 
-0.640688

>  <r_i_glide_ligand_efficiency_ln>  (272) 
-1.15655

>  <r_i_glide_gscore>  (272) 
-4.56194

>  <r_i_glide_lipo>  (272) 
-0.387419

>  <r_i_glide_hbond>  (272) 
-0.511983

>  <r_i_glide_metal>  (272) 
-0

>  <r_i_glide_rewards>  (272) 
-1.67248

>  <r_i_glide_evdw>  (272) 
-22.6573

>  <r_i_glide_ecoul>  (272) 
-5.69031

>  <r_i_glide_erotb>  (272) 
0

>  <r_i_glide_esite>  (272) 
-0.00364306

>  <r_i_glide_emodel>  (272) 
-35.7563

>  <r_i_glide_energy>  (272) 
-28.3476

>  <r_i_glide_einternal>  (272) 
0.735011

>  <r_i_glide_intrahb_reward>  (272) 
-0

>  <i_i_glide_confnum>  (272) 
2

>  <i_i_glide_posenum>  (272) 
37

>  <r_i_glide_eff_state_penalty>  (272) 
0

>  <ligand_id>  (272) 
79

>  <original_smiles>  (272) 
CC1CC(=O)OC2CC(O)C34COC3OCC4C12C

>  <smiles>  (272) 
[H]OC1([H])C([H])([H])C2([H])OC(=O)C([H])([H])C([H])(C([H])([H])[H])C2(C([H])([H])[H])C2([H])C([H])([H])OC3([H])OC([H])([H])C312

$$$$
79:0:1
     RDKit          3D

 39 42  0  0  1  0  0  0  0  0999 V2000
    2.0254   -1.1659    2.2971 C   0  0  0  0  0  0  0  0  0  0  0  0
    2.9949   -2.3742    2.3241 C   0  0  2  0  0  0  0  0  0  0  0  0
    3.1701   -2.8244    3.7885 C   0  0  0  0  0  0  0  0  0  0  0  0
    4.3035   -3.8205    4.0566 C   0  0  0  0  0  0  0  0  0  0  0  0
    4.2804   -4.5145    5.0694 O   0  0  0  0  0  0  0  0  0  0  0  0
    5.3453   -3.8113    3.1860 O   0  0  0  0  0  0  0  0  0  0  0  0
    5.2068   -3.4273    1.8171 C   0  0  1  0  0  0  0  0  0  0  0  0
    4.7248   -4.6830    1.0662 C   0  0  0  0  0  0  0  0  0  0  0  0
    4.1347   -4.4157   -0.3205 C   0  0  1  0  0  0  0  0  0  0  0  0
    2.7363   -4.6044   -0.3207 O   0  0  0  0  0  0  0  0  0  0  0  0
    4.4688   -3.0419   -0.9002 C   0  0  2  0  0  0  0  0  0  0  0  0
    4.0961   -2.9033   -2.3919 C   0  0  0  0  0  0  0  0  0  0  0  0
    5.4794   -2.8842   -2.7952 O   0  0  0  0  0  0  0  0  0  0  0  0
    5.8860   -2.7978   -1.4154 C   0  0  1  0  0  0  0  0  0  0  0  0
    6.2262   -1.4740   -0.9940 O   0  0  0  0  0  0  0  0  0  0  0  0
    5.0543   -0.7888   -0.5656 C   0  0  0  0  0  0  0  0  0  0  0  0
    4.1518   -1.8738    0.0434 C   0  0  2  0  0  0  0  0  0  0  0  0
    4.3613   -2.1418    1.6037 C   0  0  1  0  0  0  0  0  0  0  0  0
    5.1288   -0.9857    2.3198 C   0  0  0  0  0  0  0  0  0  0  0  0
    2.4395   -0.2843    2.7940 H   0  0  0  0  0  0  0  0  0  0  0  0
    1.0967   -1.4133    2.8169 H   0  0  0  0  0  0  0  0  0  0  0  0
    1.7382   -0.8677    1.2872 H   0  0  0  0  0  0  0  0  0  0  0  0
    2.4757   -3.1825    1.8113 H   0  0  0  0  0  0  0  0  0  0  0  0
    3.3770   -1.9641    4.4204 H   0  0  0  0  0  0  0  0  0  0  0  0
    2.2412   -3.2587    4.1515 H   0  0  0  0  0  0  0  0  0  0  0  0
    6.2077   -3.2079    1.4443 H   0  0  0  0  0  0  0  0  0  0  0  0
    5.5904   -5.3386    0.9477 H   0  0  0  0  0  0  0  0  0  0  0  0
    4.0148   -5.2647    1.6538 H   0  0  0  0  0  0  0  0  0  0  0  0
    4.5223   -5.1878   -0.9818 H   0  0  0  0  0  0  0  0  0  0  0  0
    2.5005   -4.9134   -1.1903 H   0  0  0  0  0  0  0  0  0  0  0  0
    3.5704   -3.7716   -2.7939 H   0  0  0  0  0  0  0  0  0  0  0  0
    3.5798   -1.9796   -2.6621 H   0  0  0  0  0  0  0  0  0  0  0  0
    6.6135   -3.5599   -1.1252 H   0  0  0  0  0  0  0  0  0  0  0  0
    5.3043    0.0520    0.0765 H   0  0  0  0  0  0  0  0  0  0  0  0
    4.5628   -0.3479   -1.4298 H   0  0  0  0  0  0  0  0  0  0  0  0
    3.1305   -1.5600   -0.1317 H   0  0  0  0  0  0  0  0  0  0  0  0
    6.1507   -0.8915    1.9484 H   0  0  0  0  0  0  0  0  0  0  0  0
    5.2293   -1.1553    3.3930 H   0  0  0  0  0  0  0  0  0  0  0  0
    4.6346   -0.0209    2.2044 H   0  0  0  0  0  0  0  0  0  0  0  0
  1  2  1  0
  1 20  1  0
  1 21  1  0
  1 22  1  0
  2 18  1  0
  2  3  1  0
  2 23  1  6
  3  4  1  0
  3 24  1  0
  3 25  1  0
  4  5  2  0
  4  6  1  0
  6  7  1  0
  7 18  1  0
  7  8  1  0
  7 26  1  6
  8  9  1  0
  8 27  1  0
  8 28  1  0
  9 10  1  0
  9 11  1  0
  9 29  1  6
 10 30  1  0
 11 14  1  0
 11 17  1  0
 11 12  1  6
 12 13  1  0
 12 31  1  0
 12 32  1  0
 13 14  1  0
 14 15  1  0
 14 33  1  1
 15 16  1  0
 16 17  1  0
 16 34  1  0
 16 35  1  0
 17 18  1  0
 17 36  1  1
 18 19  1  1
 19 37  1  0
 19 38  1  0
 19 39  1  0
M  END
>  <i_m_ct_stereo_status>  (273) 
1

>  <s_m_source_file>  (273) 
/var/tmp/pbs.5076255.sched01/tmp4185l44a/86vs10_z9v.sdf

>  <i_m_source_file_index>  (273) 
30

>  <i_lp_mmshare_version>  (273) 
48012

>  <i_f3d_flags>  (273) 
0

>  <s_epik_input>  (273) 
W0NIM11bQ0BASF0xW0NIMl1DKD1PKU9bQ0BASF0oW0NIMl1bQ0BIXTJbT0hdKVtDQEBdMShbQ0gzXSlbQ0BIXTNbQ0gyXU9bQ0BASF0oW0NAQF0yMzQpT1tDSDJdNA==

>  <s_epik_cmdline>  (273) 
J2VwaWtfcHl0aG9uJywgJy1waHQnLCAnMi4wJywgJy1waCcsICc3LjAnLCAnLXRuJywgJzgnLCAnLW1hJywgJzIwMCcsICctaW1hZScsICc8aW5maWxlLm1hZT4nLCAnLW9tYWUnLCAnPG91dGZpbGUubWFlPic=

>  <r_lp_tautomer_probability>  (273) 
1

>  <r_epik_Ionization_Penalty>  (273) 
7.81106e-08

>  <r_epik_Ionization_Penalty_Charging>  (273) 
0

>  <r_epik_Ionization_Penalty_Neutral>  (273) 
7.81106e-08

>  <r_epik_State_Penalty>  (273) 
-0

>  <r_epik_Charging_Adjusted_Penalty>  (273) 
0

>  <i_epik_Tot_Q>  (273) 
0

>  <i_epik_Tot_abs_Q>  (273) 
0

>  <s_epik_Chemistry_Notes>  (273) 
This compound has an ester and may undergo hydrolysis at high or low pH. This compound contains an acetal/aminal-like group ( X-CH(R)-Y where X, Y are N, S, or O) that may be acid/base labile, releasing an aldehyde.

>  <s_lp_Force_Field>  (273) 
OPLS3e

>  <r_lp_Energy>  (273) 
25.2037

>  <b_lp_Chiralities_Consistent>  (273) 
1

>  <s_lp_Variant>  (273) 
79:0-1

>  <s_i_glide_gridfile>  (273) 
pfpi4k_grid

>  <i_i_glide_lignum>  (273) 
30

>  <i_i_glide_rotatable_bonds>  (273) 
1

>  <r_i_docking_score>  (273) 
-4.26035

>  <r_i_glide_ligand_efficiency>  (273) 
-0.224229

>  <r_i_glide_ligand_efficiency_sa>  (273) 
-0.598333

>  <r_i_glide_ligand_efficiency_ln>  (273) 
-1.08009

>  <r_i_glide_gscore>  (273) 
-4.26035

>  <r_i_glide_lipo>  (273) 
-0.211856

>  <r_i_glide_hbond>  (273) 
-0.410233

>  <r_i_glide_metal>  (273) 
-0

>  <r_i_glide_rewards>  (273) 
-1.58608

>  <r_i_glide_evdw>  (273) 
-19.0041

>  <r_i_glide_ecoul>  (273) 
-7.33857

>  <r_i_glide_erotb>  (273) 
0

>  <r_i_glide_esite>  (273) 
-0.00118417

>  <r_i_glide_emodel>  (273) 
-33.0478

>  <r_i_glide_energy>  (273) 
-26.3427

>  <r_i_glide_einternal>  (273) 
0.694677

>  <r_i_glide_intrahb_reward>  (273) 
-0

>  <i_i_glide_confnum>  (273) 
2

>  <i_i_glide_posenum>  (273) 
6

>  <r_i_glide_eff_state_penalty>  (273) 
0

>  <ligand_id>  (273) 
79

>  <original_smiles>  (273) 
CC1CC(=O)OC2CC(O)C34COC3OCC4C12C

>  <smiles>  (273) 
[H]OC1([H])C([H])([H])C2([H])OC(=O)C([H])([H])C([H])(C([H])([H])[H])C2(C([H])([H])[H])C2([H])C([H])([H])OC3([H])OC([H])([H])C312

$$$$
79:0:2
     RDKit          3D

 39 42  0  0  1  0  0  0  0  0999 V2000
    7.4726   -3.2855   -0.0342 C   0  0  0  0  0  0  0  0  0  0  0  0
    6.0043   -3.2191   -0.5450 C   0  0  2  0  0  0  0  0  0  0  0  0
    6.0296   -2.9851   -2.0746 C   0  0  0  0  0  0  0  0  0  0  0  0
    4.6734   -2.6073   -2.7112 C   0  0  0  0  0  0  0  0  0  0  0  0
    4.5301   -2.7884   -3.9216 O   0  0  0  0  0  0  0  0  0  0  0  0
    3.8019   -1.9875   -1.9097 O   0  0  0  0  0  0  0  0  0  0  0  0
    3.7040   -2.2252   -0.5102 C   0  0  1  0  0  0  0  0  0  0  0  0
    2.8842   -3.5151   -0.3278 C   0  0  0  0  0  0  0  0  0  0  0  0
    3.0163   -4.1652    1.0485 C   0  0  1  0  0  0  0  0  0  0  0  0
    3.7954   -5.3363    0.9532 O   0  0  0  0  0  0  0  0  0  0  0  0
    3.5842   -3.2495    2.1348 C   0  0  2  0  0  0  0  0  0  0  0  0
    3.4424   -3.8310    3.5592 C   0  0  0  0  0  0  0  0  0  0  0  0
    2.4643   -2.8685    3.9139 O   0  0  0  0  0  0  0  0  0  0  0  0
    2.7095   -2.1509    2.6972 C   0  0  1  0  0  0  0  0  0  0  0  0
    3.5729   -1.0035    2.8567 O   0  0  0  0  0  0  0  0  0  0  0  0
    4.9330   -1.4137    2.7404 C   0  0  0  0  0  0  0  0  0  0  0  0
    4.9217   -2.6009    1.7403 C   0  0  2  0  0  0  0  0  0  0  0  0
    5.0860   -2.2121    0.2018 C   0  0  1  0  0  0  0  0  0  0  0  0
    5.6466   -0.7675    0.0264 C   0  0  0  0  0  0  0  0  0  0  0  0
    7.9920   -2.3302   -0.1285 H   0  0  0  0  0  0  0  0  0  0  0  0
    8.0403   -4.0140   -0.6104 H   0  0  0  0  0  0  0  0  0  0  0  0
    7.5438   -3.5974    1.0078 H   0  0  0  0  0  0  0  0  0  0  0  0
    5.5973   -4.2215   -0.4042 H   0  0  0  0  0  0  0  0  0  0  0  0
    6.7098   -2.1715   -2.3061 H   0  0  0  0  0  0  0  0  0  0  0  0
    6.4233   -3.8567   -2.5811 H   0  0  0  0  0  0  0  0  0  0  0  0
    3.1161   -1.4182   -0.0819 H   0  0  0  0  0  0  0  0  0  0  0  0
    1.8361   -3.2440   -0.4993 H   0  0  0  0  0  0  0  0  0  0  0  0
    3.0973   -4.2499   -1.0994 H   0  0  0  0  0  0  0  0  0  0  0  0
    2.0137   -4.4949    1.3551 H   0  0  0  0  0  0  0  0  0  0  0  0
    3.7564   -5.8116    1.7633 H   0  0  0  0  0  0  0  0  0  0  0  0
    3.0479   -4.8522    3.5657 H   0  0  0  0  0  0  0  0  0  0  0  0
    4.3448   -3.7736    4.1752 H   0  0  0  0  0  0  0  0  0  0  0  0
    1.8123   -1.9423    2.1113 H   0  0  0  0  0  0  0  0  0  0  0  0
    5.5839   -0.5731    2.4983 H   0  0  0  0  0  0  0  0  0  0  0  0
    5.2888   -1.7762    3.7048 H   0  0  0  0  0  0  0  0  0  0  0  0
    5.7284   -3.2575    2.0289 H   0  0  0  0  0  0  0  0  0  0  0  0
    4.9540   -0.0160    0.4015 H   0  0  0  0  0  0  0  0  0  0  0  0
    5.7791   -0.5221   -1.0287 H   0  0  0  0  0  0  0  0  0  0  0  0
    6.6132   -0.6233    0.5123 H   0  0  0  0  0  0  0  0  0  0  0  0
  1  2  1  0
  1 20  1  0
  1 21  1  0
  1 22  1  0
  2 18  1  0
  2  3  1  0
  2 23  1  6
  3  4  1  0
  3 24  1  0
  3 25  1  0
  4  5  2  0
  4  6  1  0
  6  7  1  0
  7 18  1  0
  7  8  1  0
  7 26  1  1
  8  9  1  0
  8 27  1  0
  8 28  1  0
  9 10  1  0
  9 11  1  0
  9 29  1  1
 10 30  1  0
 11 14  1  0
 11 17  1  0
 11 12  1  1
 12 13  1  0
 12 31  1  0
 12 32  1  0
 13 14  1  0
 14 15  1  0
 14 33  1  6
 15 16  1  0
 16 17  1  0
 16 34  1  0
 16 35  1  0
 17 18  1  0
 17 36  1  1
 18 19  1  1
 19 37  1  0
 19 38  1  0
 19 39  1  0
M  END
>  <i_m_ct_stereo_status>  (274) 
1

>  <s_m_source_file>  (274) 
/var/tmp/pbs.5076255.sched01/tmp4185l44a/86vs10_z9v.sdf

>  <i_m_source_file_index>  (274) 
30

>  <i_lp_mmshare_version>  (274) 
48012

>  <i_f3d_flags>  (274) 
0

>  <s_epik_input>  (274) 
W0NIM11bQ0BASF0xW0NIMl1DKD1PKU9bQ0BASF0oW0NIMl1bQ0BIXTJbT0hdKVtDQEBdMShbQ0gzXSlbQ0BIXTNbQ0gyXU9bQ0BASF0oW0NAQF0yMzQpT1tDSDJdNA==

>  <s_epik_cmdline>  (274) 
J2VwaWtfcHl0aG9uJywgJy1waHQnLCAnMi4wJywgJy1waCcsICc3LjAnLCAnLXRuJywgJzgnLCAnLW1hJywgJzIwMCcsICctaW1hZScsICc8aW5maWxlLm1hZT4nLCAnLW9tYWUnLCAnPG91dGZpbGUubWFlPic=

>  <r_lp_tautomer_probability>  (274) 
1

>  <r_epik_Ionization_Penalty>  (274) 
7.81106e-08

>  <r_epik_Ionization_Penalty_Charging>  (274) 
0

>  <r_epik_Ionization_Penalty_Neutral>  (274) 
7.81106e-08

>  <r_epik_State_Penalty>  (274) 
-0

>  <r_epik_Charging_Adjusted_Penalty>  (274) 
0

>  <i_epik_Tot_Q>  (274) 
0

>  <i_epik_Tot_abs_Q>  (274) 
0

>  <s_epik_Chemistry_Notes>  (274) 
This compound has an ester and may undergo hydrolysis at high or low pH. This compound contains an acetal/aminal-like group ( X-CH(R)-Y where X, Y are N, S, or O) that may be acid/base labile, releasing an aldehyde.

>  <s_lp_Force_Field>  (274) 
OPLS3e

>  <r_lp_Energy>  (274) 
25.2037

>  <b_lp_Chiralities_Consistent>  (274) 
1

>  <s_lp_Variant>  (274) 
79:0-1

>  <s_i_glide_gridfile>  (274) 
pfpi4k_grid

>  <i_i_glide_lignum>  (274) 
30

>  <i_i_glide_rotatable_bonds>  (274) 
1

>  <r_i_docking_score>  (274) 
-3.87282

>  <r_i_glide_ligand_efficiency>  (274) 
-0.203833

>  <r_i_glide_ligand_efficiency_sa>  (274) 
-0.543907

>  <r_i_glide_ligand_efficiency_ln>  (274) 
-0.981843

>  <r_i_glide_gscore>  (274) 
-3.87282

>  <r_i_glide_lipo>  (274) 
-0.497267

>  <r_i_glide_hbond>  (274) 
-0.107346

>  <r_i_glide_metal>  (274) 
-0

>  <r_i_glide_rewards>  (274) 
-1.7524

>  <r_i_glide_evdw>  (274) 
-23.7871

>  <r_i_glide_ecoul>  (274) 
-2.14867

>  <r_i_glide_erotb>  (274) 
0

>  <r_i_glide_esite>  (274) 
-0.00415289

>  <r_i_glide_emodel>  (274) 
-32.2984

>  <r_i_glide_energy>  (274) 
-25.9358

>  <r_i_glide_einternal>  (274) 
0.330661

>  <r_i_glide_intrahb_reward>  (274) 
-0

>  <i_i_glide_confnum>  (274) 
2

>  <i_i_glide_posenum>  (274) 
1

>  <r_i_glide_eff_state_penalty>  (274) 
0

>  <ligand_id>  (274) 
79

>  <original_smiles>  (274) 
CC1CC(=O)OC2CC(O)C34COC3OCC4C12C

>  <smiles>  (274) 
[H]OC1([H])C([H])([H])C2([H])OC(=O)C([H])([H])C([H])(C([H])([H])[H])C2(C([H])([H])[H])C2([H])C([H])([H])OC3([H])OC([H])([H])C312

$$$$
80:0:0
     RDKit          3D

 48 52  0  0  1  0  0  0  0  0999 V2000
    1.8110   -2.7752    3.0679 O   0  0  0  0  0  0  0  0  0  0  0  0
    2.8701   -3.2358    2.2559 C   0  0  2  0  0  0  0  0  0  0  0  0
    2.9250   -2.2544    1.0799 C   0  0  0  0  0  0  0  0  0  0  0  0
    4.0747   -2.3961    0.1948 N   0  0  1  0  0  0  0  0  0  0  0  0
    4.0158   -1.4537   -0.9242 C   0  0  0  0  0  0  0  0  0  0  0  0
    4.6488   -1.9621   -2.2060 C   0  0  0  0  0  0  0  0  0  0  0  0
    4.2174   -1.3205   -3.5398 C   0  0  0  0  0  0  0  0  0  0  0  0
    3.2583   -2.4886   -3.7634 C   0  0  0  0  0  0  0  0  0  0  0  0
    4.1298   -3.2831   -2.8099 C   0  0  0  0  0  0  0  0  0  0  0  0
    5.3605   -2.4150    0.9138 C   0  0  0  0  0  0  0  0  0  0  0  0
    5.3785   -3.2646    2.2075 C   0  0  2  0  0  0  0  0  0  0  0  0
    5.8738   -4.7380    2.1740 C   0  0  2  0  0  0  0  0  0  0  0  0
    5.4134   -5.7746    1.0937 C   0  0  0  0  0  0  0  0  0  0  0  0
    4.2271   -5.5175    0.1378 C   0  0  0  0  0  0  0  0  0  0  0  0
    2.7537   -5.3722    0.6538 C   0  0  0  0  0  0  0  0  0  0  0  0
    2.6627   -4.7230    2.0363 C   0  0  0  0  0  0  0  0  0  0  0  0
    3.1374   -5.4350    3.0497 C   0  0  0  0  0  0  0  0  0  0  0  0
    4.1066   -4.5980    3.8615 C   0  0  1  0  0  0  0  0  0  0  0  0
    5.4946   -5.1962    3.5937 C   0  0  0  0  0  0  0  0  0  0  0  0
    4.1268   -3.2227    3.1211 C   0  0  2  0  0  0  0  0  0  0  0  0
    1.0857   -2.5487    2.5201 H   0  0  0  0  0  0  0  0  0  0  0  0
    2.0061   -2.3458    0.5092 H   0  0  0  0  0  0  0  0  0  0  0  0
    2.9383   -1.2387    1.4806 H   0  0  0  0  0  0  0  0  0  0  0  0
    2.9808   -1.2278   -1.1728 H   0  0  0  0  0  0  0  0  0  0  0  0
    4.4179   -0.4696   -0.6443 H   0  0  0  0  0  0  0  0  0  0  0  0
    5.7361   -1.9858   -2.1430 H   0  0  0  0  0  0  0  0  0  0  0  0
    3.7170   -0.3500   -3.4465 H   0  0  0  0  0  0  0  0  0  0  0  0
    5.0055   -1.2994   -4.2887 H   0  0  0  0  0  0  0  0  0  0  0  0
    2.2693   -2.3107   -3.3407 H   0  0  0  0  0  0  0  0  0  0  0  0
    3.2047   -2.9144   -4.7649 H   0  0  0  0  0  0  0  0  0  0  0  0
    4.9099   -3.8685   -3.2993 H   0  0  0  0  0  0  0  0  0  0  0  0
    3.4732   -3.8828   -2.1865 H   0  0  0  0  0  0  0  0  0  0  0  0
    6.1636   -2.7209    0.2470 H   0  0  0  0  0  0  0  0  0  0  0  0
    5.5907   -1.3854    1.1996 H   0  0  0  0  0  0  0  0  0  0  0  0
    6.1409   -2.7719    2.8037 H   0  0  0  0  0  0  0  0  0  0  0  0
    6.9616   -4.7128    2.1047 H   0  0  0  0  0  0  0  0  0  0  0  0
    6.2748   -5.9187    0.4352 H   0  0  0  0  0  0  0  0  0  0  0  0
    5.2808   -6.7543    1.5568 H   0  0  0  0  0  0  0  0  0  0  0  0
    4.5528   -4.6932   -0.4770 H   0  0  0  0  0  0  0  0  0  0  0  0
    4.2165   -6.3551   -0.5673 H   0  0  0  0  0  0  0  0  0  0  0  0
    2.1513   -4.8300   -0.0705 H   0  0  0  0  0  0  0  0  0  0  0  0
    2.3104   -6.3674    0.7197 H   0  0  0  0  0  0  0  0  0  0  0  0
    3.2636   -6.5160    3.0371 H   0  0  0  0  0  0  0  0  0  0  0  0
    3.8274   -4.5653    4.9241 H   0  0  0  0  0  0  0  0  0  0  0  0
    5.5740   -6.2794    3.7343 H   0  0  0  0  0  0  0  0  0  0  0  0
    6.1944   -4.7345    4.2849 H   0  0  0  0  0  0  0  0  0  0  0  0
    4.1552   -2.3730    3.8080 H   0  0  0  0  0  0  0  0  0  0  0  0
    3.9631   -3.3329   -0.2099 H   0  0  0  0  0  0  0  0  0  0  0  0
  2  1  1  1
  1 21  1  0
  2 16  1  0
  2 20  1  0
  2  3  1  0
  3  4  1  0
  3 22  1  0
  3 23  1  0
  4  5  1  0
  4 10  1  0
  4 48  1  6
  5  6  1  0
  5 24  1  0
  5 25  1  0
  6  9  1  0
  6  7  1  0
  6 26  1  0
  7  8  1  0
  7 27  1  0
  7 28  1  0
  8  9  1  0
  8 29  1  0
  8 30  1  0
  9 31  1  0
  9 32  1  0
 10 11  1  0
 10 33  1  0
 10 34  1  0
 11 20  1  0
 11 12  1  0
 11 35  1  1
 12 19  1  0
 12 13  1  0
 12 36  1  1
 13 14  1  0
 13 37  1  0
 13 38  1  0
 14 15  1  0
 14 39  1  0
 14 40  1  0
 15 16  1  0
 15 41  1  0
 15 42  1  0
 16 17  2  0
 17 18  1  0
 17 43  1  0
 18 19  1  0
 18 20  1  0
 18 44  1  1
 19 45  1  0
 19 46  1  0
 20 47  1  1
M  CHG  1   4   1
M  END
>  <i_m_ct_stereo_status>  (275) 
1

>  <s_m_source_file>  (275) 
/var/tmp/pbs.5076255.sched01/tmp4185l44a/86vs10_z9v.sdf

>  <i_m_source_file_index>  (275) 
31

>  <i_lp_mmshare_version>  (275) 
48012

>  <i_f3d_flags>  (275) 
0

>  <s_epik_input>  (275) 
W09IXVtDQEBdMTJDMz1bQ0hdW0NAQEhdNFtDQEhdMltDQEBIXShbQ0BASF0oW0NIMl00KVtDSDJdW0NIMl1bQ0gyXTMpW0NIMl1OKFtDSDJdMSlbQ0gyXVtDSF01W0NIMl1bQ0gyXVtDSDJdNQ==

>  <s_epik_cmdline>  (275) 
J2VwaWtfcHl0aG9uJywgJy1waHQnLCAnMi4wJywgJy1waCcsICc3LjAnLCAnLXRuJywgJzgnLCAnLW1hJywgJzIwMCcsICctaW1hZScsICc8aW5maWxlLm1hZT4nLCAnLW9tYWUnLCAnPG91dGZpbGUubWFlPic=

>  <r_epik_Ionization_Penalty>  (275) 
0.00145586

>  <r_epik_Ionization_Penalty_Charging>  (275) 
0.00145585

>  <r_epik_Ionization_Penalty_Neutral>  (275) 
7.50756e-09

>  <r_epik_State_Penalty>  (275) 
0.000973375

>  <r_epik_Charging_Adjusted_Penalty>  (275) 
0.00242923

>  <i_epik_Tot_Q>  (275) 
1

>  <i_epik_Tot_abs_Q>  (275) 
1

>  <s_lp_Force_Field>  (275) 
OPLS3e

>  <r_lp_Energy>  (275) 
85.5485

>  <b_lp_Chiralities_Consistent>  (275) 
1

>  <s_lp_Variant>  (275) 
80:0-1

>  <s_i_glide_gridfile>  (275) 
pfpi4k_grid

>  <i_i_glide_lignum>  (275) 
31

>  <i_i_glide_rotatable_bonds>  (275) 
3

>  <r_i_docking_score>  (275) 
-3.47947

>  <r_i_glide_ligand_efficiency>  (275) 
-0.173974

>  <r_i_glide_ligand_efficiency_sa>  (275) 
-0.472237

>  <r_i_glide_ligand_efficiency_ln>  (275) 
-0.870797

>  <r_i_glide_gscore>  (275) 
-3.47947

>  <r_i_glide_lipo>  (275) 
-0.568251

>  <r_i_glide_hbond>  (275) 
0

>  <r_i_glide_metal>  (275) 
-0

>  <r_i_glide_rewards>  (275) 
-1.53804

>  <r_i_glide_evdw>  (275) 
-22.6031

>  <r_i_glide_ecoul>  (275) 
-4.71719

>  <r_i_glide_erotb>  (275) 
0.47689

>  <r_i_glide_esite>  (275) 
-0.0123378

>  <r_i_glide_emodel>  (275) 
-32.4958

>  <r_i_glide_energy>  (275) 
-27.3203

>  <r_i_glide_einternal>  (275) 
1.57837

>  <r_i_glide_intrahb_reward>  (275) 
-0

>  <i_i_glide_confnum>  (275) 
6

>  <i_i_glide_posenum>  (275) 
1

>  <r_i_glide_eff_state_penalty>  (275) 
0

>  <ligand_id>  (275) 
80

>  <original_smiles>  (275) 
OC12CN(CC3CCC3)CC3C4CCCC1=CC(C4)C32

>  <smiles>  (275) 
[H]OC12C3=C([H])C4([H])C([H])([H])C([H])(C([H])([H])C([H])([H])C3([H])[H])C([H])(C41[H])C([H])([H])[N+]([H])(C([H])([H])C1([H])C([H])([H])C([H])([H])C1([H])[H])C2([H])[H]

$$$$
80:0:1
     RDKit          3D

 48 52  0  0  1  0  0  0  0  0999 V2000
    3.4346   -2.1300    3.5786 O   0  0  0  0  0  0  0  0  0  0  0  0
    3.8884   -2.8831    2.4789 C   0  0  2  0  0  0  0  0  0  0  0  0
    3.7404   -1.9264    1.2783 C   0  0  0  0  0  0  0  0  0  0  0  0
    4.3447   -2.4381    0.0369 N   0  0  1  0  0  0  0  0  0  0  0  0
    4.1013   -1.4695   -1.0716 C   0  0  0  0  0  0  0  0  0  0  0  0
    4.5531   -1.9868   -2.4323 C   0  0  0  0  0  0  0  0  0  0  0  0
    3.9639   -1.3134   -3.6939 C   0  0  0  0  0  0  0  0  0  0  0  0
    2.9462   -2.4500   -3.7647 C   0  0  0  0  0  0  0  0  0  0  0  0
    3.9278   -3.2821   -2.9669 C   0  0  0  0  0  0  0  0  0  0  0  0
    5.7569   -2.8500    0.1963 C   0  0  0  0  0  0  0  0  0  0  0  0
    6.0408   -3.7024    1.4618 C   0  0  2  0  0  0  0  0  0  0  0  0
    6.0220   -5.2562    1.3925 C   0  0  2  0  0  0  0  0  0  0  0  0
    4.8655   -6.0682    0.7085 C   0  0  0  0  0  0  0  0  0  0  0  0
    3.5164   -5.4326    0.2923 C   0  0  0  0  0  0  0  0  0  0  0  0
    2.5059   -4.8384    1.3228 C   0  0  0  0  0  0  0  0  0  0  0  0
    3.1788   -4.2239    2.5246 C   0  0  0  0  0  0  0  0  0  0  0  0
    3.7848   -5.0568    3.3747 C   0  0  0  0  0  0  0  0  0  0  0  0
    5.2059   -4.6101    3.6088 C   0  0  1  0  0  0  0  0  0  0  0  0
    6.1387   -5.6043    2.8914 C   0  0  0  0  0  0  0  0  0  0  0  0
    5.3252   -3.2948    2.7717 C   0  0  2  0  0  0  0  0  0  0  0  0
    3.6463   -2.5977    4.3799 H   0  0  0  0  0  0  0  0  0  0  0  0
    2.6905   -1.6994    1.1258 H   0  0  0  0  0  0  0  0  0  0  0  0
    4.2290   -0.9907    1.5320 H   0  0  0  0  0  0  0  0  0  0  0  0
    3.0351   -1.2652   -1.1119 H   0  0  0  0  0  0  0  0  0  0  0  0
    4.5797   -0.5224   -0.8576 H   0  0  0  0  0  0  0  0  0  0  0  0
    5.6378   -2.0296   -2.5278 H   0  0  0  0  0  0  0  0  0  0  0  0
    3.5242   -0.3277   -3.5263 H   0  0  0  0  0  0  0  0  0  0  0  0
    4.6303   -1.3135   -4.5621 H   0  0  0  0  0  0  0  0  0  0  0  0
    2.0342   -2.2479   -3.2046 H   0  0  0  0  0  0  0  0  0  0  0  0
    2.7329   -2.8813   -4.7346 H   0  0  0  0  0  0  0  0  0  0  0  0
    4.6041   -3.8938   -3.5741 H   0  0  0  0  0  0  0  0  0  0  0  0
    3.3602   -3.8742   -2.2648 H   0  0  0  0  0  0  0  0  0  0  0  0
    6.0869   -3.4047   -0.6795 H   0  0  0  0  0  0  0  0  0  0  0  0
    6.3696   -1.9549    0.2404 H   0  0  0  0  0  0  0  0  0  0  0  0
    7.0935   -3.4915    1.6612 H   0  0  0  0  0  0  0  0  0  0  0  0
    6.9442   -5.5789    0.9001 H   0  0  0  0  0  0  0  0  0  0  0  0
    5.2829   -6.4486   -0.2228 H   0  0  0  0  0  0  0  0  0  0  0  0
    4.6564   -6.9678    1.2835 H   0  0  0  0  0  0  0  0  0  0  0  0
    3.7633   -4.7064   -0.4599 H   0  0  0  0  0  0  0  0  0  0  0  0
    2.9710   -6.1916   -0.2731 H   0  0  0  0  0  0  0  0  0  0  0  0
    1.8751   -4.1058    0.8237 H   0  0  0  0  0  0  0  0  0  0  0  0
    1.8405   -5.6383    1.6547 H   0  0  0  0  0  0  0  0  0  0  0  0
    3.5394   -6.1158    3.4638 H   0  0  0  0  0  0  0  0  0  0  0  0
    5.4250   -4.5067    4.6761 H   0  0  0  0  0  0  0  0  0  0  0  0
    5.9341   -6.6595    3.1022 H   0  0  0  0  0  0  0  0  0  0  0  0
    7.1648   -5.4238    3.2048 H   0  0  0  0  0  0  0  0  0  0  0  0
    5.8737   -2.5146    3.3001 H   0  0  0  0  0  0  0  0  0  0  0  0
    3.8281   -3.2637   -0.1884 H   0  0  0  0  0  0  0  0  0  0  0  0
  2  1  1  1
  1 21  1  0
  2 16  1  0
  2 20  1  0
  2  3  1  0
  3  4  1  0
  3 22  1  0
  3 23  1  0
  4  5  1  0
  4 10  1  0
  4 48  1  6
  5  6  1  0
  5 24  1  0
  5 25  1  0
  6  9  1  0
  6  7  1  0
  6 26  1  0
  7  8  1  0
  7 27  1  0
  7 28  1  0
  8  9  1  0
  8 29  1  0
  8 30  1  0
  9 31  1  0
  9 32  1  0
 10 11  1  0
 10 33  1  0
 10 34  1  0
 11 20  1  0
 11 12  1  0
 11 35  1  1
 12 19  1  0
 12 13  1  0
 12 36  1  6
 13 14  1  0
 13 37  1  0
 13 38  1  0
 14 15  1  0
 14 39  1  0
 14 40  1  0
 15 16  1  0
 15 41  1  0
 15 42  1  0
 16 17  2  0
 17 18  1  0
 17 43  1  0
 18 19  1  0
 18 20  1  0
 18 44  1  1
 19 45  1  0
 19 46  1  0
 20 47  1  1
M  CHG  1   4   1
M  END
>  <i_m_ct_stereo_status>  (276) 
1

>  <s_m_source_file>  (276) 
/var/tmp/pbs.5076255.sched01/tmp4185l44a/86vs10_z9v.sdf

>  <i_m_source_file_index>  (276) 
31

>  <i_lp_mmshare_version>  (276) 
48012

>  <i_f3d_flags>  (276) 
0

>  <s_epik_input>  (276) 
W09IXVtDQEBdMTJDMz1bQ0hdW0NAQEhdNFtDQEhdMltDQEBIXShbQ0BASF0oW0NIMl00KVtDSDJdW0NIMl1bQ0gyXTMpW0NIMl1OKFtDSDJdMSlbQ0gyXVtDSF01W0NIMl1bQ0gyXVtDSDJdNQ==

>  <s_epik_cmdline>  (276) 
J2VwaWtfcHl0aG9uJywgJy1waHQnLCAnMi4wJywgJy1waCcsICc3LjAnLCAnLXRuJywgJzgnLCAnLW1hJywgJzIwMCcsICctaW1hZScsICc8aW5maWxlLm1hZT4nLCAnLW9tYWUnLCAnPG91dGZpbGUubWFlPic=

>  <r_epik_Ionization_Penalty>  (276) 
0.00145586

>  <r_epik_Ionization_Penalty_Charging>  (276) 
0.00145585

>  <r_epik_Ionization_Penalty_Neutral>  (276) 
7.50756e-09

>  <r_epik_State_Penalty>  (276) 
0.000973375

>  <r_epik_Charging_Adjusted_Penalty>  (276) 
0.00242923

>  <i_epik_Tot_Q>  (276) 
1

>  <i_epik_Tot_abs_Q>  (276) 
1

>  <s_lp_Force_Field>  (276) 
OPLS3e

>  <r_lp_Energy>  (276) 
85.5485

>  <b_lp_Chiralities_Consistent>  (276) 
1

>  <s_lp_Variant>  (276) 
80:0-1

>  <s_i_glide_gridfile>  (276) 
pfpi4k_grid

>  <i_i_glide_lignum>  (276) 
31

>  <i_i_glide_rotatable_bonds>  (276) 
3

>  <r_i_docking_score>  (276) 
-3.30649

>  <r_i_glide_ligand_efficiency>  (276) 
-0.165325

>  <r_i_glide_ligand_efficiency_sa>  (276) 
-0.44876

>  <r_i_glide_ligand_efficiency_ln>  (276) 
-0.827507

>  <r_i_glide_gscore>  (276) 
-3.30649

>  <r_i_glide_lipo>  (276) 
-0.788792

>  <r_i_glide_hbond>  (276) 
0

>  <r_i_glide_metal>  (276) 
-0

>  <r_i_glide_rewards>  (276) 
-1.53804

>  <r_i_glide_evdw>  (276) 
-21.9076

>  <r_i_glide_ecoul>  (276) 
-2.35129

>  <r_i_glide_erotb>  (276) 
0.47689

>  <r_i_glide_esite>  (276) 
-0.00848201

>  <r_i_glide_emodel>  (276) 
-29.4234

>  <r_i_glide_energy>  (276) 
-24.2589

>  <r_i_glide_einternal>  (276) 
1.04014

>  <r_i_glide_intrahb_reward>  (276) 
-0

>  <i_i_glide_confnum>  (276) 
1

>  <i_i_glide_posenum>  (276) 
7

>  <r_i_glide_eff_state_penalty>  (276) 
0

>  <ligand_id>  (276) 
80

>  <original_smiles>  (276) 
OC12CN(CC3CCC3)CC3C4CCCC1=CC(C4)C32

>  <smiles>  (276) 
[H]OC12C3=C([H])C4([H])C([H])([H])C([H])(C([H])([H])C([H])([H])C3([H])[H])C([H])(C41[H])C([H])([H])[N+]([H])(C([H])([H])C1([H])C([H])([H])C([H])([H])C1([H])[H])C2([H])[H]

$$$$
80:0:2
     RDKit          3D

 48 52  0  0  1  0  0  0  0  0999 V2000
    6.1403   -4.6790    2.4435 O   0  0  0  0  0  0  0  0  0  0  0  0
    5.1505   -3.7608    2.0327 C   0  0  2  0  0  0  0  0  0  0  0  0
    5.1666   -3.8232    0.4986 C   0  0  0  0  0  0  0  0  0  0  0  0
    4.0618   -3.1012   -0.1528 N   0  0  1  0  0  0  0  0  0  0  0  0
    4.1868   -3.2208   -1.6161 C   0  0  0  0  0  0  0  0  0  0  0  0
    3.1501   -2.4323   -2.4128 C   0  0  0  0  0  0  0  0  0  0  0  0
    3.0410   -2.6772   -3.9197 C   0  0  0  0  0  0  0  0  0  0  0  0
    3.8791   -1.4155   -4.1562 C   0  0  0  0  0  0  0  0  0  0  0  0
    3.4544   -0.9624   -2.7580 C   0  0  0  0  0  0  0  0  0  0  0  0
    2.7383   -3.4928    0.3919 C   0  0  0  0  0  0  0  0  0  0  0  0
    2.6547   -3.5808    1.9285 C   0  0  2  0  0  0  0  0  0  0  0  0
    2.2038   -2.3395    2.7455 C   0  0  2  0  0  0  0  0  0  0  0  0
    2.7542   -0.8905    2.4749 C   0  0  0  0  0  0  0  0  0  0  0  0
    3.9998   -0.5816    1.5933 C   0  0  0  0  0  0  0  0  0  0  0  0
    5.4203   -1.0946    2.0203 C   0  0  0  0  0  0  0  0  0  0  0  0
    5.3894   -2.4368    2.7463 C   0  0  0  0  0  0  0  0  0  0  0  0
    4.8813   -2.4493    3.9772 C   0  0  0  0  0  0  0  0  0  0  0  0
    3.8469   -3.5405    4.0900 C   0  0  1  0  0  0  0  0  0  0  0  0
    2.4843   -2.8405    4.1767 C   0  0  0  0  0  0  0  0  0  0  0  0
    3.8448   -4.2151    2.6813 C   0  0  2  0  0  0  0  0  0  0  0  0
    6.9565   -4.4367    2.0412 H   0  0  0  0  0  0  0  0  0  0  0  0
    6.1235   -3.4620    0.1204 H   0  0  0  0  0  0  0  0  0  0  0  0
    5.0899   -4.8734    0.2175 H   0  0  0  0  0  0  0  0  0  0  0  0
    5.1829   -2.8730   -1.8945 H   0  0  0  0  0  0  0  0  0  0  0  0
    4.1723   -4.2649   -1.9195 H   0  0  0  0  0  0  0  0  0  0  0  0
    2.1284   -2.5423   -2.0545 H   0  0  0  0  0  0  0  0  0  0  0  0
    3.4967   -3.6126   -4.2647 H   0  0  0  0  0  0  0  0  0  0  0  0
    2.0092   -2.5842   -4.2845 H   0  0  0  0  0  0  0  0  0  0  0  0
    4.9432   -1.6404   -4.2104 H   0  0  0  0  0  0  0  0  0  0  0  0
    3.5340   -0.7817   -4.9785 H   0  0  0  0  0  0  0  0  0  0  0  0
    2.5564   -0.3381   -2.7628 H   0  0  0  0  0  0  0  0  0  0  0  0
    4.2540   -0.5011   -2.1700 H   0  0  0  0  0  0  0  0  0  0  0  0
    1.9787   -2.7756    0.0919 H   0  0  0  0  0  0  0  0  0  0  0  0
    2.4726   -4.4649   -0.0254 H   0  0  0  0  0  0  0  0  0  0  0  0
    1.8377   -4.2811    2.0974 H   0  0  0  0  0  0  0  0  0  0  0  0
    1.1225   -2.2546    2.6338 H   0  0  0  0  0  0  0  0  0  0  0  0
    1.9337   -0.3333    2.0182 H   0  0  0  0  0  0  0  0  0  0  0  0
    2.8863   -0.3878    3.4352 H   0  0  0  0  0  0  0  0  0  0  0  0
    3.7716   -0.8110    0.5566 H   0  0  0  0  0  0  0  0  0  0  0  0
    4.0759    0.5071    1.5694 H   0  0  0  0  0  0  0  0  0  0  0  0
    6.0880   -1.1335    1.1588 H   0  0  0  0  0  0  0  0  0  0  0  0
    5.8658   -0.3552    2.6973 H   0  0  0  0  0  0  0  0  0  0  0  0
    4.7410   -1.5529    4.5863 H   0  0  0  0  0  0  0  0  0  0  0  0
    4.0531   -4.2152    4.9265 H   0  0  0  0  0  0  0  0  0  0  0  0
    2.4309   -2.0411    4.9233 H   0  0  0  0  0  0  0  0  0  0  0  0
    1.7151   -3.5725    4.4240 H   0  0  0  0  0  0  0  0  0  0  0  0
    3.7603   -5.3058    2.7077 H   0  0  0  0  0  0  0  0  0  0  0  0
    4.1765   -2.1239    0.0886 H   0  0  0  0  0  0  0  0  0  0  0  0
  2  1  1  1
  1 21  1  0
  2 16  1  0
  2 20  1  0
  2  3  1  0
  3  4  1  0
  3 22  1  0
  3 23  1  0
  4  5  1  0
  4 10  1  0
  4 48  1  6
  5  6  1  0
  5 24  1  0
  5 25  1  0
  6  9  1  0
  6  7  1  0
  6 26  1  0
  7  8  1  0
  7 27  1  0
  7 28  1  0
  8  9  1  0
  8 29  1  0
  8 30  1  0
  9 31  1  0
  9 32  1  0
 10 11  1  0
 10 33  1  0
 10 34  1  0
 11 20  1  0
 11 12  1  0
 11 35  1  6
 12 19  1  0
 12 13  1  0
 12 36  1  1
 13 14  1  0
 13 37  1  0
 13 38  1  0
 14 15  1  0
 14 39  1  0
 14 40  1  0
 15 16  1  0
 15 41  1  0
 15 42  1  0
 16 17  2  0
 17 18  1  0
 17 43  1  0
 18 19  1  0
 18 20  1  0
 18 44  1  1
 19 45  1  0
 19 46  1  0
 20 47  1  1
M  CHG  1   4   1
M  END
>  <i_m_ct_stereo_status>  (277) 
1

>  <s_m_source_file>  (277) 
/var/tmp/pbs.5076255.sched01/tmp4185l44a/86vs10_z9v.sdf

>  <i_m_source_file_index>  (277) 
31

>  <i_lp_mmshare_version>  (277) 
48012

>  <i_f3d_flags>  (277) 
0

>  <s_epik_input>  (277) 
W09IXVtDQEBdMTJDMz1bQ0hdW0NAQEhdNFtDQEhdMltDQEBIXShbQ0BASF0oW0NIMl00KVtDSDJdW0NIMl1bQ0gyXTMpW0NIMl1OKFtDSDJdMSlbQ0gyXVtDSF01W0NIMl1bQ0gyXVtDSDJdNQ==

>  <s_epik_cmdline>  (277) 
J2VwaWtfcHl0aG9uJywgJy1waHQnLCAnMi4wJywgJy1waCcsICc3LjAnLCAnLXRuJywgJzgnLCAnLW1hJywgJzIwMCcsICctaW1hZScsICc8aW5maWxlLm1hZT4nLCAnLW9tYWUnLCAnPG91dGZpbGUubWFlPic=

>  <r_epik_Ionization_Penalty>  (277) 
0.00145586

>  <r_epik_Ionization_Penalty_Charging>  (277) 
0.00145585

>  <r_epik_Ionization_Penalty_Neutral>  (277) 
7.50756e-09

>  <r_epik_State_Penalty>  (277) 
0.000973375

>  <r_epik_Charging_Adjusted_Penalty>  (277) 
0.00242923

>  <i_epik_Tot_Q>  (277) 
1

>  <i_epik_Tot_abs_Q>  (277) 
1

>  <s_lp_Force_Field>  (277) 
OPLS3e

>  <r_lp_Energy>  (277) 
85.5485

>  <b_lp_Chiralities_Consistent>  (277) 
1

>  <s_lp_Variant>  (277) 
80:0-1

>  <s_i_glide_gridfile>  (277) 
pfpi4k_grid

>  <i_i_glide_lignum>  (277) 
31

>  <i_i_glide_rotatable_bonds>  (277) 
3

>  <r_i_docking_score>  (277) 
-3.15773

>  <r_i_glide_ligand_efficiency>  (277) 
-0.157887

>  <r_i_glide_ligand_efficiency_sa>  (277) 
-0.42857

>  <r_i_glide_ligand_efficiency_ln>  (277) 
-0.790276

>  <r_i_glide_gscore>  (277) 
-3.15773

>  <r_i_glide_lipo>  (277) 
-0.444901

>  <r_i_glide_hbond>  (277) 
0

>  <r_i_glide_metal>  (277) 
-0

>  <r_i_glide_rewards>  (277) 
-1.53804

>  <r_i_glide_evdw>  (277) 
-22.8867

>  <r_i_glide_ecoul>  (277) 
-3.38234

>  <r_i_glide_erotb>  (277) 
0.47689

>  <r_i_glide_esite>  (277) 
0

>  <r_i_glide_emodel>  (277) 
-31.6087

>  <r_i_glide_energy>  (277) 
-26.269

>  <r_i_glide_einternal>  (277) 
0.649789

>  <r_i_glide_intrahb_reward>  (277) 
-0

>  <i_i_glide_confnum>  (277) 
5

>  <i_i_glide_posenum>  (277) 
2

>  <r_i_glide_eff_state_penalty>  (277) 
0

>  <ligand_id>  (277) 
80

>  <original_smiles>  (277) 
OC12CN(CC3CCC3)CC3C4CCCC1=CC(C4)C32

>  <smiles>  (277) 
[H]OC12C3=C([H])C4([H])C([H])([H])C([H])(C([H])([H])C([H])([H])C3([H])[H])C([H])(C41[H])C([H])([H])[N+]([H])(C([H])([H])C1([H])C([H])([H])C([H])([H])C1([H])[H])C2([H])[H]

$$$$
81:0:0
     RDKit          3D

 48 51  0  0  1  0  0  0  0  0999 V2000
    2.0320   -1.9082    2.6777 C   0  0  0  0  0  0  0  0  0  0  0  0
    3.3029   -2.7853    2.6296 C   0  0  2  0  0  0  0  0  0  0  0  0
    4.2552   -2.4258    1.4999 C   0  0  2  0  0  0  0  0  0  0  0  0
    4.8080   -1.0054    1.3459 C   0  0  0  0  0  0  0  0  0  0  0  0
    6.2011   -1.0534    0.6744 C   0  0  0  0  0  0  0  0  0  0  0  0
    6.3885   -2.0954   -0.4647 C   0  0  2  0  0  0  0  0  0  0  0  0
    5.3609   -1.9068   -1.5756 C   0  0  0  0  0  0  0  0  0  0  0  0
    3.9408   -2.3200   -1.1252 C   0  0  1  0  0  0  0  0  0  0  0  0
    3.2041   -2.9064   -2.3523 C   0  0  0  0  0  0  0  0  0  0  0  0
    3.9363   -3.2056    0.1758 C   0  0  2  0  0  0  0  0  0  0  0  0
    2.5716   -3.6653    0.2073 O   0  0  0  0  0  0  0  0  0  0  0  0
    2.2471   -4.5999    1.3730 O   0  0  0  0  0  0  0  0  0  0  0  0
    3.0681   -4.3176    2.4949 C   0  0  2  0  0  0  0  0  0  0  0  0
    2.3714   -4.8911    3.7362 C   0  0  0  0  0  0  0  0  0  0  0  0
    4.3185   -5.0219    2.4340 O   0  0  0  0  0  0  0  0  0  0  0  0
    4.8928   -5.4332    1.1707 C   0  0  0  0  0  0  0  0  0  0  0  0
    6.2546   -6.0006    1.6208 C   0  0  0  0  0  0  0  0  0  0  0  0
    4.1142   -6.6400    0.5930 C   0  0  0  0  0  0  0  0  0  0  0  0
    5.0269   -4.2999    0.0762 C   0  0  2  0  0  0  0  0  0  0  0  0
    6.4302   -3.5815   -0.0113 C   0  0  0  0  0  0  0  0  0  0  0  0
    1.4334   -1.9861    1.7700 H   0  0  0  0  0  0  0  0  0  0  0  0
    2.2997   -0.8582    2.8058 H   0  0  0  0  0  0  0  0  0  0  0  0
    1.3988   -2.1736    3.5241 H   0  0  0  0  0  0  0  0  0  0  0  0
    3.8287   -2.6101    3.5725 H   0  0  0  0  0  0  0  0  0  0  0  0
    5.1399   -2.8655    1.9505 H   0  0  0  0  0  0  0  0  0  0  0  0
    4.1172   -0.3646    0.8015 H   0  0  0  0  0  0  0  0  0  0  0  0
    4.9144   -0.5467    2.3307 H   0  0  0  0  0  0  0  0  0  0  0  0
    6.4276   -0.0556    0.3013 H   0  0  0  0  0  0  0  0  0  0  0  0
    6.9517   -1.2494    1.4417 H   0  0  0  0  0  0  0  0  0  0  0  0
    7.3707   -1.8922   -0.8858 H   0  0  0  0  0  0  0  0  0  0  0  0
    5.3567   -0.8766   -1.9299 H   0  0  0  0  0  0  0  0  0  0  0  0
    5.6683   -2.5163   -2.4310 H   0  0  0  0  0  0  0  0  0  0  0  0
    3.3812   -1.4099   -0.9056 H   0  0  0  0  0  0  0  0  0  0  0  0
    3.6370   -3.8573   -2.6669 H   0  0  0  0  0  0  0  0  0  0  0  0
    3.2741   -2.2210   -3.1989 H   0  0  0  0  0  0  0  0  0  0  0  0
    2.1410   -3.0614   -2.1616 H   0  0  0  0  0  0  0  0  0  0  0  0
    2.2219   -5.9679    3.6414 H   0  0  0  0  0  0  0  0  0  0  0  0
    1.3920   -4.4392    3.9064 H   0  0  0  0  0  0  0  0  0  0  0  0
    2.9697   -4.7241    4.6355 H   0  0  0  0  0  0  0  0  0  0  0  0
    6.8829   -6.2794    0.7748 H   0  0  0  0  0  0  0  0  0  0  0  0
    6.1203   -6.8883    2.2379 H   0  0  0  0  0  0  0  0  0  0  0  0
    6.8030   -5.2937    2.2410 H   0  0  0  0  0  0  0  0  0  0  0  0
    4.6987   -7.1491   -0.1739 H   0  0  0  0  0  0  0  0  0  0  0  0
    3.1855   -6.3503    0.1080 H   0  0  0  0  0  0  0  0  0  0  0  0
    3.8800   -7.3732    1.3656 H   0  0  0  0  0  0  0  0  0  0  0  0
    4.8983   -4.7826   -0.8933 H   0  0  0  0  0  0  0  0  0  0  0  0
    7.0527   -4.1417   -0.7100 H   0  0  0  0  0  0  0  0  0  0  0  0
    6.9699   -3.6117    0.9336 H   0  0  0  0  0  0  0  0  0  0  0  0
  1  2  1  0
  1 21  1  0
  1 22  1  0
  1 23  1  0
  2 13  1  0
  2  3  1  0
  2 24  1  1
  3 10  1  0
  3  4  1  0
  3 25  1  1
  4  5  1  0
  4 26  1  0
  4 27  1  0
  5  6  1  0
  5 28  1  0
  5 29  1  0
  6 20  1  0
  6  7  1  0
  6 30  1  6
  7  8  1  0
  7 31  1  0
  7 32  1  0
  8  9  1  0
  8 10  1  0
  8 33  1  1
  9 34  1  0
  9 35  1  0
  9 36  1  0
 10 19  1  0
 10 11  1  1
 11 12  1  0
 12 13  1  0
 13 14  1  1
 13 15  1  0
 14 37  1  0
 14 38  1  0
 14 39  1  0
 15 16  1  0
 16 17  1  0
 16 18  1  0
 16 19  1  0
 17 40  1  0
 17 41  1  0
 17 42  1  0
 18 43  1  0
 18 44  1  0
 18 45  1  0
 19 20  1  0
 19 46  1  6
 20 47  1  0
 20 48  1  0
M  END
>  <i_m_ct_stereo_status>  (278) 
1

>  <s_m_source_file>  (278) 
/var/tmp/pbs.5076255.sched01/tmp4185l44a/86vs10_z9v.sdf

>  <i_m_source_file_index>  (278) 
32

>  <i_lp_mmshare_version>  (278) 
48012

>  <i_f3d_flags>  (278) 
0

>  <s_epik_input>  (278) 
W0NAQF0xMjNbQ0BASF00W0NAQEhdKFtDSDNdKVtDQF0oT08yKShbQ0gzXSlPQyhbQ0gzXSkoW0NIM10pW0NAQEhdM1tDSDJdW0NASF0oW0NIMl1bQ0gyXTQpW0NIMl1bQ0BIXTFbQ0gzXQ==

>  <s_epik_cmdline>  (278) 
J2VwaWtfcHl0aG9uJywgJy1waHQnLCAnMi4wJywgJy1waCcsICc3LjAnLCAnLXRuJywgJzgnLCAnLW1hJywgJzIwMCcsICctaW1hZScsICc8aW5maWxlLm1hZT4nLCAnLW9tYWUnLCAnPG91dGZpbGUubWFlPic=

>  <r_lp_tautomer_probability>  (278) 
1

>  <r_epik_Ionization_Penalty>  (278) 
6.85419e-14

>  <r_epik_Ionization_Penalty_Charging>  (278) 
0

>  <r_epik_Ionization_Penalty_Neutral>  (278) 
6.85419e-14

>  <r_epik_State_Penalty>  (278) 
-0

>  <r_epik_Charging_Adjusted_Penalty>  (278) 
0

>  <i_epik_Tot_Q>  (278) 
0

>  <i_epik_Tot_abs_Q>  (278) 
0

>  <s_lp_Force_Field>  (278) 
OPLS3e

>  <r_lp_Energy>  (278) 
62.3263

>  <b_lp_Chiralities_Consistent>  (278) 
1

>  <s_lp_Variant>  (278) 
81:0-1

>  <s_i_glide_gridfile>  (278) 
pfpi4k_grid

>  <i_i_glide_lignum>  (278) 
32

>  <i_i_glide_rotatable_bonds>  (278) 
0

>  <r_i_docking_score>  (278) 
-3.2844

>  <r_i_glide_ligand_efficiency>  (278) 
-0.16422

>  <r_i_glide_ligand_efficiency_sa>  (278) 
-0.445762

>  <r_i_glide_ligand_efficiency_ln>  (278) 
-0.821978

>  <r_i_glide_gscore>  (278) 
-3.2844

>  <r_i_glide_lipo>  (278) 
-0.628137

>  <r_i_glide_hbond>  (278) 
-0.0032636

>  <r_i_glide_metal>  (278) 
-0

>  <r_i_glide_rewards>  (278) 
-1.49726

>  <r_i_glide_evdw>  (278) 
-23.2561

>  <r_i_glide_ecoul>  (278) 
0.0501506

>  <r_i_glide_erotb>  (278) 
0

>  <r_i_glide_esite>  (278) 
-0.000461781

>  <r_i_glide_emodel>  (278) 
-27.967

>  <r_i_glide_energy>  (278) 
-23.206

>  <r_i_glide_einternal>  (278) 
0

>  <r_i_glide_intrahb_reward>  (278) 
-0

>  <i_i_glide_confnum>  (278) 
2

>  <i_i_glide_posenum>  (278) 
16

>  <r_i_glide_eff_state_penalty>  (278) 
0

>  <ligand_id>  (278) 
81

>  <original_smiles>  (278) 
CC1C2CCC3CC(C)C24OOC1(C)OC(C)(C)C4C3

>  <smiles>  (278) 
[H]C([H])([H])C12OOC34C([H])(C([H])([H])[H])C([H])([H])C([H])(C([H])([H])C([H])([H])C3([H])C1([H])C([H])([H])[H])C([H])([H])C4([H])C(C([H])([H])[H])(C([H])([H])[H])O2

$$$$
81:0:1
     RDKit          3D

 48 51  0  0  1  0  0  0  0  0999 V2000
    3.0857   -0.2485    1.2729 C   0  0  0  0  0  0  0  0  0  0  0  0
    3.8033   -1.5239    1.7577 C   0  0  2  0  0  0  0  0  0  0  0  0
    4.9603   -1.9625    0.8697 C   0  0  2  0  0  0  0  0  0  0  0  0
    6.1079   -1.0085    0.5468 C   0  0  0  0  0  0  0  0  0  0  0  0
    7.4038   -1.8247    0.3094 C   0  0  0  0  0  0  0  0  0  0  0  0
    7.2666   -3.1551   -0.4673 C   0  0  2  0  0  0  0  0  0  0  0  0
    6.6063   -2.9523   -1.8235 C   0  0  0  0  0  0  0  0  0  0  0  0
    5.1134   -2.5715   -1.6993 C   0  0  1  0  0  0  0  0  0  0  0  0
    4.3742   -3.1722   -2.9176 C   0  0  0  0  0  0  0  0  0  0  0  0
    4.5086   -2.9247   -0.2810 C   0  0  2  0  0  0  0  0  0  0  0  0
    3.0997   -2.7659   -0.5168 O   0  0  0  0  0  0  0  0  0  0  0  0
    2.2324   -3.0761    0.7017 O   0  0  0  0  0  0  0  0  0  0  0  0
    2.9160   -2.7909    1.9052 C   0  0  2  0  0  0  0  0  0  0  0  0
    1.8596   -2.6086    3.0144 C   0  0  0  0  0  0  0  0  0  0  0  0
    3.6954   -3.9117    2.3395 O   0  0  0  0  0  0  0  0  0  0  0  0
    4.1850   -4.9038    1.4019 C   0  0  0  0  0  0  0  0  0  0  0  0
    5.0583   -5.7853    2.3231 C   0  0  0  0  0  0  0  0  0  0  0  0
    3.0332   -5.8207    0.9227 C   0  0  0  0  0  0  0  0  0  0  0  0
    4.9840   -4.3318    0.1631 C   0  0  2  0  0  0  0  0  0  0  0  0
    6.5538   -4.2970    0.3206 C   0  0  0  0  0  0  0  0  0  0  0  0
    2.6482   -0.3773    0.2838 H   0  0  0  0  0  0  0  0  0  0  0  0
    3.7782    0.5936    1.2207 H   0  0  0  0  0  0  0  0  0  0  0  0
    2.2838    0.0477    1.9504 H   0  0  0  0  0  0  0  0  0  0  0  0
    4.2140   -1.2809    2.7394 H   0  0  0  0  0  0  0  0  0  0  0  0
    5.4726   -2.5458    1.6328 H   0  0  0  0  0  0  0  0  0  0  0  0
    5.8713   -0.3493   -0.2858 H   0  0  0  0  0  0  0  0  0  0  0  0
    6.2675   -0.3491    1.4000 H   0  0  0  0  0  0  0  0  0  0  0  0
    8.1568   -1.1891   -0.1531 H   0  0  0  0  0  0  0  0  0  0  0  0
    7.8084   -2.0654    1.2782 H   0  0  0  0  0  0  0  0  0  0  0  0
    8.2874   -3.4898   -0.6572 H   0  0  0  0  0  0  0  0  0  0  0  0
    7.1607   -2.1949   -2.3724 H   0  0  0  0  0  0  0  0  0  0  0  0
    6.7166   -3.8504   -2.4251 H   0  0  0  0  0  0  0  0  0  0  0  0
    5.0144   -1.5008   -1.8430 H   0  0  0  0  0  0  0  0  0  0  0  0
    4.3653   -4.2606   -2.8843 H   0  0  0  0  0  0  0  0  0  0  0  0
    4.8773   -2.8907   -3.8480 H   0  0  0  0  0  0  0  0  0  0  0  0
    3.3395   -2.8278   -2.9931 H   0  0  0  0  0  0  0  0  0  0  0  0
    1.2511   -3.5079    3.1199 H   0  0  0  0  0  0  0  0  0  0  0  0
    1.1843   -1.7795    2.8037 H   0  0  0  0  0  0  0  0  0  0  0  0
    2.3313   -2.4167    3.9813 H   0  0  0  0  0  0  0  0  0  0  0  0
    5.6052   -6.5478    1.7629 H   0  0  0  0  0  0  0  0  0  0  0  0
    4.4456   -6.2992    3.0673 H   0  0  0  0  0  0  0  0  0  0  0  0
    5.7759   -5.1906    2.8930 H   0  0  0  0  0  0  0  0  0  0  0  0
    3.4334   -6.7384    0.4872 H   0  0  0  0  0  0  0  0  0  0  0  0
    2.4186   -5.3689    0.1486 H   0  0  0  0  0  0  0  0  0  0  0  0
    2.3846   -6.1146    1.7475 H   0  0  0  0  0  0  0  0  0  0  0  0
    4.7909   -5.0047   -0.6712 H   0  0  0  0  0  0  0  0  0  0  0  0
    6.9432   -5.2578   -0.0173 H   0  0  0  0  0  0  0  0  0  0  0  0
    6.8806   -4.2249    1.3572 H   0  0  0  0  0  0  0  0  0  0  0  0
  1  2  1  0
  1 21  1  0
  1 22  1  0
  1 23  1  0
  2 13  1  0
  2  3  1  0
  2 24  1  1
  3 10  1  0
  3  4  1  0
  3 25  1  1
  4  5  1  0
  4 26  1  0
  4 27  1  0
  5  6  1  0
  5 28  1  0
  5 29  1  0
  6 20  1  0
  6  7  1  0
  6 30  1  6
  7  8  1  0
  7 31  1  0
  7 32  1  0
  8  9  1  0
  8 10  1  0
  8 33  1  6
  9 34  1  0
  9 35  1  0
  9 36  1  0
 10 19  1  0
 10 11  1  6
 11 12  1  0
 12 13  1  0
 13 14  1  1
 13 15  1  0
 14 37  1  0
 14 38  1  0
 14 39  1  0
 15 16  1  0
 16 17  1  0
 16 18  1  0
 16 19  1  0
 17 40  1  0
 17 41  1  0
 17 42  1  0
 18 43  1  0
 18 44  1  0
 18 45  1  0
 19 20  1  0
 19 46  1  6
 20 47  1  0
 20 48  1  0
M  END
>  <i_m_ct_stereo_status>  (279) 
1

>  <s_m_source_file>  (279) 
/var/tmp/pbs.5076255.sched01/tmp4185l44a/86vs10_z9v.sdf

>  <i_m_source_file_index>  (279) 
32

>  <i_lp_mmshare_version>  (279) 
48012

>  <i_f3d_flags>  (279) 
0

>  <s_epik_input>  (279) 
W0NAQF0xMjNbQ0BASF00W0NAQEhdKFtDSDNdKVtDQF0oT08yKShbQ0gzXSlPQyhbQ0gzXSkoW0NIM10pW0NAQEhdM1tDSDJdW0NASF0oW0NIMl1bQ0gyXTQpW0NIMl1bQ0BIXTFbQ0gzXQ==

>  <s_epik_cmdline>  (279) 
J2VwaWtfcHl0aG9uJywgJy1waHQnLCAnMi4wJywgJy1waCcsICc3LjAnLCAnLXRuJywgJzgnLCAnLW1hJywgJzIwMCcsICctaW1hZScsICc8aW5maWxlLm1hZT4nLCAnLW9tYWUnLCAnPG91dGZpbGUubWFlPic=

>  <r_lp_tautomer_probability>  (279) 
1

>  <r_epik_Ionization_Penalty>  (279) 
6.85419e-14

>  <r_epik_Ionization_Penalty_Charging>  (279) 
0

>  <r_epik_Ionization_Penalty_Neutral>  (279) 
6.85419e-14

>  <r_epik_State_Penalty>  (279) 
-0

>  <r_epik_Charging_Adjusted_Penalty>  (279) 
0

>  <i_epik_Tot_Q>  (279) 
0

>  <i_epik_Tot_abs_Q>  (279) 
0

>  <s_lp_Force_Field>  (279) 
OPLS3e

>  <r_lp_Energy>  (279) 
62.3263

>  <b_lp_Chiralities_Consistent>  (279) 
1

>  <s_lp_Variant>  (279) 
81:0-1

>  <s_i_glide_gridfile>  (279) 
pfpi4k_grid

>  <i_i_glide_lignum>  (279) 
32

>  <i_i_glide_rotatable_bonds>  (279) 
0

>  <r_i_docking_score>  (279) 
-3.05867

>  <r_i_glide_ligand_efficiency>  (279) 
-0.152933

>  <r_i_glide_ligand_efficiency_sa>  (279) 
-0.415125

>  <r_i_glide_ligand_efficiency_ln>  (279) 
-0.765484

>  <r_i_glide_gscore>  (279) 
-3.05867

>  <r_i_glide_lipo>  (279) 
-0.526085

>  <r_i_glide_hbond>  (279) 
-0.00143863

>  <r_i_glide_metal>  (279) 
-0

>  <r_i_glide_rewards>  (279) 
-1.49726

>  <r_i_glide_evdw>  (279) 
-22.4529

>  <r_i_glide_ecoul>  (279) 
0.64188

>  <r_i_glide_erotb>  (279) 
0

>  <r_i_glide_esite>  (279) 
-0.00752407

>  <r_i_glide_emodel>  (279) 
-26.1591

>  <r_i_glide_energy>  (279) 
-21.811

>  <r_i_glide_einternal>  (279) 
0

>  <r_i_glide_intrahb_reward>  (279) 
-0

>  <i_i_glide_confnum>  (279) 
2

>  <i_i_glide_posenum>  (279) 
20

>  <r_i_glide_eff_state_penalty>  (279) 
0

>  <ligand_id>  (279) 
81

>  <original_smiles>  (279) 
CC1C2CCC3CC(C)C24OOC1(C)OC(C)(C)C4C3

>  <smiles>  (279) 
[H]C([H])([H])C12OOC34C([H])(C([H])([H])[H])C([H])([H])C([H])(C([H])([H])C([H])([H])C3([H])C1([H])C([H])([H])[H])C([H])([H])C4([H])C(C([H])([H])[H])(C([H])([H])[H])O2

$$$$
81:0:2
     RDKit          3D

 48 51  0  0  1  0  0  0  0  0999 V2000
    3.6919   -0.2424    2.5252 C   0  0  0  0  0  0  0  0  0  0  0  0
    4.3164   -1.6434    2.6692 C   0  0  2  0  0  0  0  0  0  0  0  0
    5.0697   -2.1108    1.4253 C   0  0  2  0  0  0  0  0  0  0  0  0
    6.2047   -1.2779    0.8336 C   0  0  0  0  0  0  0  0  0  0  0  0
    7.2249   -2.2130    0.1391 C   0  0  0  0  0  0  0  0  0  0  0  0
    6.6315   -3.4049   -0.6586 C   0  0  2  0  0  0  0  0  0  0  0  0
    5.6206   -2.9623   -1.7081 C   0  0  0  0  0  0  0  0  0  0  0  0
    4.3243   -2.4203   -1.0808 C   0  0  1  0  0  0  0  0  0  0  0  0
    3.1608   -2.7834   -2.0289 C   0  0  0  0  0  0  0  0  0  0  0  0
    4.1346   -2.8603    0.4226 C   0  0  2  0  0  0  0  0  0  0  0  0
    2.7687   -2.4874    0.6686 O   0  0  0  0  0  0  0  0  0  0  0  0
    2.2707   -2.8353    2.0609 O   0  0  0  0  0  0  0  0  0  0  0  0
    3.3300   -2.7940    3.0031 C   0  0  2  0  0  0  0  0  0  0  0  0
    2.7153   -2.6096    4.3973 C   0  0  0  0  0  0  0  0  0  0  0  0
    4.0297   -4.0518    3.0879 O   0  0  0  0  0  0  0  0  0  0  0  0
    4.0360   -4.9706    1.9719 C   0  0  0  0  0  0  0  0  0  0  0  0
    4.9924   -6.0562    2.4902 C   0  0  0  0  0  0  0  0  0  0  0  0
    2.6615   -5.6617    1.8198 C   0  0  0  0  0  0  0  0  0  0  0  0
    4.4922   -4.3591    0.5839 C   0  0  2  0  0  0  0  0  0  0  0  0
    6.0131   -4.5365    0.2217 C   0  0  0  0  0  0  0  0  0  0  0  0
    2.9592   -0.1863    1.7188 H   0  0  0  0  0  0  0  0  0  0  0  0
    4.4602    0.5015    2.3234 H   0  0  0  0  0  0  0  0  0  0  0  0
    3.1986    0.0726    3.4467 H   0  0  0  0  0  0  0  0  0  0  0  0
    5.0364   -1.5710    3.4780 H   0  0  0  0  0  0  0  0  0  0  0  0
    5.6867   -2.8417    1.9435 H   0  0  0  0  0  0  0  0  0  0  0  0
    5.8328   -0.5022    0.1634 H   0  0  0  0  0  0  0  0  0  0  0  0
    6.7188   -0.7491    1.6313 H   0  0  0  0  0  0  0  0  0  0  0  0
    7.8700   -1.6285   -0.5076 H   0  0  0  0  0  0  0  0  0  0  0  0
    7.8993   -2.6201    0.8856 H   0  0  0  0  0  0  0  0  0  0  0  0
    7.4734   -3.8427   -1.1785 H   0  0  0  0  0  0  0  0  0  0  0  0
    6.0658   -2.2080   -2.3511 H   0  0  0  0  0  0  0  0  0  0  0  0
    5.4005   -3.8095   -2.3752 H   0  0  0  0  0  0  0  0  0  0  0  0
    4.3490   -1.3285   -1.1063 H   0  0  0  0  0  0  0  0  0  0  0  0
    2.9733   -3.8463   -2.0713 H   0  0  0  0  0  0  0  0  0  0  0  0
    3.3892   -2.4588   -3.0513 H   0  0  0  0  0  0  0  0  0  0  0  0
    2.2266   -2.2904   -1.7640 H   0  0  0  0  0  0  0  0  0  0  0  0
    2.0361   -3.4253    4.6332 H   0  0  0  0  0  0  0  0  0  0  0  0
    2.1492   -1.6833    4.4816 H   0  0  0  0  0  0  0  0  0  0  0  0
    3.4821   -2.5951    5.1670 H   0  0  0  0  0  0  0  0  0  0  0  0
    5.2093   -6.8092    1.7348 H   0  0  0  0  0  0  0  0  0  0  0  0
    4.5656   -6.5703    3.3489 H   0  0  0  0  0  0  0  0  0  0  0  0
    5.9327   -5.6374    2.8404 H   0  0  0  0  0  0  0  0  0  0  0  0
    2.7511   -6.5621    1.2095 H   0  0  0  0  0  0  0  0  0  0  0  0
    1.9149   -5.0388    1.3303 H   0  0  0  0  0  0  0  0  0  0  0  0
    2.2622   -5.9685    2.7877 H   0  0  0  0  0  0  0  0  0  0  0  0
    3.9436   -4.9001   -0.1932 H   0  0  0  0  0  0  0  0  0  0  0  0
    6.1022   -5.4691   -0.3185 H   0  0  0  0  0  0  0  0  0  0  0  0
    6.6513   -4.6639    1.0955 H   0  0  0  0  0  0  0  0  0  0  0  0
  1  2  1  0
  1 21  1  0
  1 22  1  0
  1 23  1  0
  2 13  1  0
  2  3  1  0
  2 24  1  1
  3 10  1  0
  3  4  1  0
  3 25  1  1
  4  5  1  0
  4 26  1  0
  4 27  1  0
  5  6  1  0
  5 28  1  0
  5 29  1  0
  6 20  1  0
  6  7  1  0
  6 30  1  6
  7  8  1  0
  7 31  1  0
  7 32  1  0
  8  9  1  0
  8 10  1  0
  8 33  1  1
  9 34  1  0
  9 35  1  0
  9 36  1  0
 10 19  1  0
 10 11  1  1
 11 12  1  0
 12 13  1  0
 13 14  1  1
 13 15  1  0
 14 37  1  0
 14 38  1  0
 14 39  1  0
 15 16  1  0
 16 17  1  0
 16 18  1  0
 16 19  1  0
 17 40  1  0
 17 41  1  0
 17 42  1  0
 18 43  1  0
 18 44  1  0
 18 45  1  0
 19 20  1  0
 19 46  1  6
 20 47  1  0
 20 48  1  0
M  END
>  <i_m_ct_stereo_status>  (280) 
1

>  <s_m_source_file>  (280) 
/var/tmp/pbs.5076255.sched01/tmp4185l44a/86vs10_z9v.sdf

>  <i_m_source_file_index>  (280) 
32

>  <i_lp_mmshare_version>  (280) 
48012

>  <i_f3d_flags>  (280) 
0

>  <s_epik_input>  (280) 
W0NAQF0xMjNbQ0BASF00W0NAQEhdKFtDSDNdKVtDQF0oT08yKShbQ0gzXSlPQyhbQ0gzXSkoW0NIM10pW0NAQEhdM1tDSDJdW0NASF0oW0NIMl1bQ0gyXTQpW0NIMl1bQ0BIXTFbQ0gzXQ==

>  <s_epik_cmdline>  (280) 
J2VwaWtfcHl0aG9uJywgJy1waHQnLCAnMi4wJywgJy1waCcsICc3LjAnLCAnLXRuJywgJzgnLCAnLW1hJywgJzIwMCcsICctaW1hZScsICc8aW5maWxlLm1hZT4nLCAnLW9tYWUnLCAnPG91dGZpbGUubWFlPic=

>  <r_lp_tautomer_probability>  (280) 
1

>  <r_epik_Ionization_Penalty>  (280) 
6.85419e-14

>  <r_epik_Ionization_Penalty_Charging>  (280) 
0

>  <r_epik_Ionization_Penalty_Neutral>  (280) 
6.85419e-14

>  <r_epik_State_Penalty>  (280) 
-0

>  <r_epik_Charging_Adjusted_Penalty>  (280) 
0

>  <i_epik_Tot_Q>  (280) 
0

>  <i_epik_Tot_abs_Q>  (280) 
0

>  <s_lp_Force_Field>  (280) 
OPLS3e

>  <r_lp_Energy>  (280) 
62.3263

>  <b_lp_Chiralities_Consistent>  (280) 
1

>  <s_lp_Variant>  (280) 
81:0-1

>  <s_i_glide_gridfile>  (280) 
pfpi4k_grid

>  <i_i_glide_lignum>  (280) 
32

>  <i_i_glide_rotatable_bonds>  (280) 
0

>  <r_i_docking_score>  (280) 
-2.91994

>  <r_i_glide_ligand_efficiency>  (280) 
-0.145997

>  <r_i_glide_ligand_efficiency_sa>  (280) 
-0.396297

>  <r_i_glide_ligand_efficiency_ln>  (280) 
-0.730765

>  <r_i_glide_gscore>  (280) 
-2.91994

>  <r_i_glide_lipo>  (280) 
-0.552117

>  <r_i_glide_hbond>  (280) 
0

>  <r_i_glide_metal>  (280) 
-0

>  <r_i_glide_rewards>  (280) 
-1.49739

>  <r_i_glide_evdw>  (280) 
-21.0237

>  <r_i_glide_ecoul>  (280) 
1.20501

>  <r_i_glide_erotb>  (280) 
0

>  <r_i_glide_esite>  (280) 
0

>  <r_i_glide_emodel>  (280) 
-24.0084

>  <r_i_glide_energy>  (280) 
-19.8187

>  <r_i_glide_einternal>  (280) 
0

>  <r_i_glide_intrahb_reward>  (280) 
-0

>  <i_i_glide_confnum>  (280) 
1

>  <i_i_glide_posenum>  (280) 
35

>  <r_i_glide_eff_state_penalty>  (280) 
0

>  <ligand_id>  (280) 
81

>  <original_smiles>  (280) 
CC1C2CCC3CC(C)C24OOC1(C)OC(C)(C)C4C3

>  <smiles>  (280) 
[H]C([H])([H])C12OOC34C([H])(C([H])([H])[H])C([H])([H])C([H])(C([H])([H])C([H])([H])C3([H])C1([H])C([H])([H])[H])C([H])([H])C4([H])C(C([H])([H])[H])(C([H])([H])[H])O2

$$$$
82:0:0
     RDKit          3D

 26 28  0  0  1  0  0  0  0  0999 V2000
    0.8929   -7.3695    1.6053 C   0  0  0  0  0  0  0  0  0  0  0  0
    2.1106   -7.8395    1.9824 N   0  0  0  0  0  0  0  0  0  0  0  0
    2.9569   -6.9705    1.4463 C   0  0  0  0  0  0  0  0  0  0  0  0
    4.3636   -6.8430    1.4073 C   0  0  0  0  0  0  0  0  0  0  0  0
    4.8944   -5.7779    0.7216 C   0  0  0  0  0  0  0  0  0  0  0  0
    4.0346   -4.8274    0.0856 C   0  0  0  0  0  0  0  0  0  0  0  0
    4.6065   -3.7519   -0.5945 N   0  0  0  0  0  0  0  0  0  0  0  0
    3.9290   -3.0516   -1.6860 C   0  0  0  0  0  0  0  0  0  0  0  0
    3.8850   -1.5420   -1.3822 C   0  0  0  0  0  0  0  0  0  0  0  0
    5.2037   -1.0583   -1.1156 O   0  0  0  0  0  0  0  0  0  0  0  0
    5.7773   -1.6881    0.0263 C   0  0  0  0  0  0  0  0  0  0  0  0
    5.9079   -3.1981   -0.2288 C   0  0  0  0  0  0  0  0  0  0  0  0
    2.6973   -4.8927    0.0957 N   0  0  0  0  0  0  0  0  0  0  0  0
    2.2263   -5.9775    0.7716 N   0  0  0  0  0  0  0  0  0  0  0  0
    0.8894   -6.2576    0.8794 N   0  0  0  0  0  0  0  0  0  0  0  0
   -0.0227   -7.8663    1.8877 H   0  0  0  0  0  0  0  0  0  0  0  0
    4.9959   -7.5742    1.8944 H   0  0  0  0  0  0  0  0  0  0  0  0
    5.9750   -5.7044    0.6665 H   0  0  0  0  0  0  0  0  0  0  0  0
    4.5005   -3.2202   -2.5992 H   0  0  0  0  0  0  0  0  0  0  0  0
    2.9255   -3.4304   -1.8855 H   0  0  0  0  0  0  0  0  0  0  0  0
    3.4734   -0.9997   -2.2326 H   0  0  0  0  0  0  0  0  0  0  0  0
    3.2283   -1.3454   -0.5327 H   0  0  0  0  0  0  0  0  0  0  0  0
    6.7593   -1.2578    0.2214 H   0  0  0  0  0  0  0  0  0  0  0  0
    5.1699   -1.5009    0.9144 H   0  0  0  0  0  0  0  0  0  0  0  0
    6.3297   -3.6431    0.6705 H   0  0  0  0  0  0  0  0  0  0  0  0
    6.6098   -3.3851   -1.0432 H   0  0  0  0  0  0  0  0  0  0  0  0
  1 15  2  0
  1  2  1  0
  1 16  1  0
  2  3  2  0
  3 14  1  0
  3  4  1  0
  4  5  2  0
  4 17  1  0
  5  6  1  0
  5 18  1  0
  6  7  1  0
  6 13  2  0
  7 12  1  0
  7  8  1  0
  8  9  1  0
  8 19  1  0
  8 20  1  0
  9 10  1  0
  9 21  1  0
  9 22  1  0
 10 11  1  0
 11 12  1  0
 11 23  1  0
 11 24  1  0
 12 25  1  0
 12 26  1  0
 13 14  1  0
 14 15  1  0
M  END
>  <i_m_ct_stereo_status>  (281) 
1

>  <s_m_source_file>  (281) 
/var/tmp/pbs.5076255.sched01/tmp4185l44a/86vs10_z9v.sdf

>  <i_m_source_file_index>  (281) 
33

>  <i_lp_mmshare_version>  (281) 
48012

>  <i_f3d_flags>  (281) 
0

>  <s_epik_input>  (281) 
bjFbY0hdbm4oYzEyKW5jKFtjSF1bY0hdMilOM1tDSDJdW0NIMl1PW0NIMl1bQ0gyXTM=

>  <s_epik_cmdline>  (281) 
J2VwaWtfcHl0aG9uJywgJy1waHQnLCAnMi4wJywgJy1waCcsICc3LjAnLCAnLXRuJywgJzgnLCAnLW1hJywgJzIwMCcsICctaW1hZScsICc8aW5maWxlLm1hZT4nLCAnLW9tYWUnLCAnPG91dGZpbGUubWFlPic=

>  <r_lp_tautomer_probability>  (281) 
1

>  <r_epik_Ionization_Penalty>  (281) 
5.32031e-07

>  <r_epik_Ionization_Penalty_Charging>  (281) 
0

>  <r_epik_Ionization_Penalty_Neutral>  (281) 
5.32031e-07

>  <r_epik_State_Penalty>  (281) 
-0

>  <r_epik_Charging_Adjusted_Penalty>  (281) 
0

>  <i_epik_Tot_Q>  (281) 
0

>  <i_epik_Tot_abs_Q>  (281) 
0

>  <s_lp_Force_Field>  (281) 
OPLS3e

>  <r_lp_Energy>  (281) 
29.6302

>  <b_lp_Chiralities_Consistent>  (281) 
1

>  <s_lp_Variant>  (281) 
82:0-1

>  <s_i_glide_gridfile>  (281) 
pfpi4k_grid

>  <i_i_glide_lignum>  (281) 
33

>  <i_i_glide_rotatable_bonds>  (281) 
1

>  <r_i_docking_score>  (281) 
-3.71778

>  <r_i_glide_ligand_efficiency>  (281) 
-0.247852

>  <r_i_glide_ligand_efficiency_sa>  (281) 
-0.611255

>  <r_i_glide_ligand_efficiency_ln>  (281) 
-1.00262

>  <r_i_glide_gscore>  (281) 
-3.71778

>  <r_i_glide_lipo>  (281) 
-0.234349

>  <r_i_glide_hbond>  (281) 
-0.16

>  <r_i_glide_metal>  (281) 
-0

>  <r_i_glide_rewards>  (281) 
-2.09872

>  <r_i_glide_evdw>  (281) 
-20.3808

>  <r_i_glide_ecoul>  (281) 
-3.36488

>  <r_i_glide_erotb>  (281) 
0.391152

>  <r_i_glide_esite>  (281) 
-0.0920871

>  <r_i_glide_emodel>  (281) 
-29.7031

>  <r_i_glide_energy>  (281) 
-23.7457

>  <r_i_glide_einternal>  (281) 
0.113792

>  <r_i_glide_intrahb_reward>  (281) 
-0

>  <i_i_glide_confnum>  (281) 
2

>  <i_i_glide_posenum>  (281) 
24

>  <r_i_glide_eff_state_penalty>  (281) 
0

>  <ligand_id>  (281) 
82

>  <original_smiles>  (281) 
c1nc2ccc(N3CCOCC3)nn2n1

>  <smiles>  (281) 
[H]c1nc2c([H])c([H])c(N3C([H])([H])C([H])([H])OC([H])([H])C3([H])[H])nn2n1

$$$$
82:0:1
     RDKit          3D

 26 28  0  0  1  0  0  0  0  0999 V2000
   -0.9971   -8.3797    2.0884 C   0  0  0  0  0  0  0  0  0  0  0  0
   -0.5411   -9.3359    2.9410 N   0  0  0  0  0  0  0  0  0  0  0  0
   -0.2738   -8.6504    4.0448 C   0  0  0  0  0  0  0  0  0  0  0  0
    0.2165   -8.9635    5.3363 C   0  0  0  0  0  0  0  0  0  0  0  0
    0.3805   -7.9345    6.2354 C   0  0  0  0  0  0  0  0  0  0  0  0
    0.0514   -6.6022    5.8537 C   0  0  0  0  0  0  0  0  0  0  0  0
    0.2071   -5.5676    6.7682 N   0  0  0  0  0  0  0  0  0  0  0  0
   -0.0657   -5.7426    8.1905 C   0  0  0  0  0  0  0  0  0  0  0  0
   -1.0465   -4.6552    8.6745 C   0  0  0  0  0  0  0  0  0  0  0  0
   -0.5855   -3.3547    8.3186 O   0  0  0  0  0  0  0  0  0  0  0  0
   -0.4344   -3.2074    6.9076 C   0  0  0  0  0  0  0  0  0  0  0  0
    0.5941   -4.2175    6.3691 C   0  0  0  0  0  0  0  0  0  0  0  0
   -0.4232   -6.2449    4.6569 N   0  0  0  0  0  0  0  0  0  0  0  0
   -0.5547   -7.2939    3.8119 N   0  0  0  0  0  0  0  0  0  0  0  0
   -1.0074   -7.1295    2.5391 N   0  0  0  0  0  0  0  0  0  0  0  0
   -1.3365   -8.6241    1.0929 H   0  0  0  0  0  0  0  0  0  0  0  0
    0.4565   -9.9925    5.5883 H   0  0  0  0  0  0  0  0  0  0  0  0
    0.7764   -8.1588    7.2186 H   0  0  0  0  0  0  0  0  0  0  0  0
   -0.4864   -6.7240    8.4118 H   0  0  0  0  0  0  0  0  0  0  0  0
    0.8789   -5.6691    8.7256 H   0  0  0  0  0  0  0  0  0  0  0  0
   -2.0351   -4.8202    8.2456 H   0  0  0  0  0  0  0  0  0  0  0  0
   -1.1616   -4.7115    9.7577 H   0  0  0  0  0  0  0  0  0  0  0  0
   -1.4021   -3.3447    6.4221 H   0  0  0  0  0  0  0  0  0  0  0  0
   -0.1049   -2.1905    6.6969 H   0  0  0  0  0  0  0  0  0  0  0  0
    1.5783   -4.0044    6.7895 H   0  0  0  0  0  0  0  0  0  0  0  0
    0.6975   -4.1083    5.2883 H   0  0  0  0  0  0  0  0  0  0  0  0
  1 15  2  0
  1  2  1  0
  1 16  1  0
  2  3  2  0
  3 14  1  0
  3  4  1  0
  4  5  2  0
  4 17  1  0
  5  6  1  0
  5 18  1  0
  6  7  1  0
  6 13  2  0
  7 12  1  0
  7  8  1  0
  8  9  1  0
  8 19  1  0
  8 20  1  0
  9 10  1  0
  9 21  1  0
  9 22  1  0
 10 11  1  0
 11 12  1  0
 11 23  1  0
 11 24  1  0
 12 25  1  0
 12 26  1  0
 13 14  1  0
 14 15  1  0
M  END
>  <i_m_ct_stereo_status>  (282) 
1

>  <s_m_source_file>  (282) 
/var/tmp/pbs.5076255.sched01/tmp4185l44a/86vs10_z9v.sdf

>  <i_m_source_file_index>  (282) 
33

>  <i_lp_mmshare_version>  (282) 
48012

>  <i_f3d_flags>  (282) 
0

>  <s_epik_input>  (282) 
bjFbY0hdbm4oYzEyKW5jKFtjSF1bY0hdMilOM1tDSDJdW0NIMl1PW0NIMl1bQ0gyXTM=

>  <s_epik_cmdline>  (282) 
J2VwaWtfcHl0aG9uJywgJy1waHQnLCAnMi4wJywgJy1waCcsICc3LjAnLCAnLXRuJywgJzgnLCAnLW1hJywgJzIwMCcsICctaW1hZScsICc8aW5maWxlLm1hZT4nLCAnLW9tYWUnLCAnPG91dGZpbGUubWFlPic=

>  <r_lp_tautomer_probability>  (282) 
1

>  <r_epik_Ionization_Penalty>  (282) 
5.32031e-07

>  <r_epik_Ionization_Penalty_Charging>  (282) 
0

>  <r_epik_Ionization_Penalty_Neutral>  (282) 
5.32031e-07

>  <r_epik_State_Penalty>  (282) 
-0

>  <r_epik_Charging_Adjusted_Penalty>  (282) 
0

>  <i_epik_Tot_Q>  (282) 
0

>  <i_epik_Tot_abs_Q>  (282) 
0

>  <s_lp_Force_Field>  (282) 
OPLS3e

>  <r_lp_Energy>  (282) 
29.6302

>  <b_lp_Chiralities_Consistent>  (282) 
1

>  <s_lp_Variant>  (282) 
82:0-1

>  <s_i_glide_gridfile>  (282) 
pfpi4k_grid

>  <i_i_glide_lignum>  (282) 
33

>  <i_i_glide_rotatable_bonds>  (282) 
1

>  <r_i_docking_score>  (282) 
-3.55031

>  <r_i_glide_ligand_efficiency>  (282) 
-0.236688

>  <r_i_glide_ligand_efficiency_sa>  (282) 
-0.583722

>  <r_i_glide_ligand_efficiency_ln>  (282) 
-0.957461

>  <r_i_glide_gscore>  (282) 
-3.55031

>  <r_i_glide_lipo>  (282) 
0

>  <r_i_glide_hbond>  (282) 
-0.275824

>  <r_i_glide_metal>  (282) 
-0

>  <r_i_glide_rewards>  (282) 
-2.00989

>  <r_i_glide_evdw>  (282) 
-17.2128

>  <r_i_glide_ecoul>  (282) 
-4.2145

>  <r_i_glide_erotb>  (282) 
0.391152

>  <r_i_glide_esite>  (282) 
-0.16294

>  <r_i_glide_emodel>  (282) 
-27.0408

>  <r_i_glide_energy>  (282) 
-21.4273

>  <r_i_glide_einternal>  (282) 
0.332498

>  <r_i_glide_intrahb_reward>  (282) 
-0

>  <i_i_glide_confnum>  (282) 
5

>  <i_i_glide_posenum>  (282) 
3

>  <r_i_glide_eff_state_penalty>  (282) 
0

>  <ligand_id>  (282) 
82

>  <original_smiles>  (282) 
c1nc2ccc(N3CCOCC3)nn2n1

>  <smiles>  (282) 
[H]c1nc2c([H])c([H])c(N3C([H])([H])C([H])([H])OC([H])([H])C3([H])[H])nn2n1

$$$$
82:0:2
     RDKit          3D

 26 28  0  0  1  0  0  0  0  0999 V2000
    5.0841   -5.8349    1.1940 C   0  0  0  0  0  0  0  0  0  0  0  0
    5.2866   -7.1462    0.8851 N   0  0  0  0  0  0  0  0  0  0  0  0
    4.2047   -7.7393    1.3789 C   0  0  0  0  0  0  0  0  0  0  0  0
    3.7283   -9.0695    1.4326 C   0  0  0  0  0  0  0  0  0  0  0  0
    2.5291   -9.3075    2.0593 C   0  0  0  0  0  0  0  0  0  0  0  0
    1.7945   -8.2238    2.6222 C   0  0  0  0  0  0  0  0  0  0  0  0
    0.5874   -8.4788    3.2657 N   0  0  0  0  0  0  0  0  0  0  0  0
   -0.2938   -9.5743    2.8665 C   0  0  0  0  0  0  0  0  0  0  0  0
   -1.7014   -9.0284    2.5684 C   0  0  0  0  0  0  0  0  0  0  0  0
   -2.1850   -8.2664    3.6729 O   0  0  0  0  0  0  0  0  0  0  0  0
   -1.3449   -7.1605    3.9725 C   0  0  0  0  0  0  0  0  0  0  0  0
    0.0672   -7.6374    4.3406 C   0  0  0  0  0  0  0  0  0  0  0  0
    2.1834   -6.9433    2.5918 N   0  0  0  0  0  0  0  0  0  0  0  0
    3.3811   -6.7705    1.9731 N   0  0  0  0  0  0  0  0  0  0  0  0
    3.9627   -5.5475    1.8466 N   0  0  0  0  0  0  0  0  0  0  0  0
    5.7956   -5.0672    0.9281 H   0  0  0  0  0  0  0  0  0  0  0  0
    4.3051   -9.8796    0.9994 H   0  0  0  0  0  0  0  0  0  0  0  0
    2.1839  -10.3333    2.1273 H   0  0  0  0  0  0  0  0  0  0  0  0
    0.0545  -10.1011    1.9790 H   0  0  0  0  0  0  0  0  0  0  0  0
   -0.3304  -10.3043    3.6737 H   0  0  0  0  0  0  0  0  0  0  0  0
   -1.6890   -8.4086    1.6717 H   0  0  0  0  0  0  0  0  0  0  0  0
   -2.3889   -9.8493    2.3726 H   0  0  0  0  0  0  0  0  0  0  0  0
   -1.3035   -6.5073    3.1035 H   0  0  0  0  0  0  0  0  0  0  0  0
   -1.7852   -6.6003    4.7951 H   0  0  0  0  0  0  0  0  0  0  0  0
    0.0319   -8.2277    5.2579 H   0  0  0  0  0  0  0  0  0  0  0  0
    0.7004   -6.7756    4.5560 H   0  0  0  0  0  0  0  0  0  0  0  0
  1 15  2  0
  1  2  1  0
  1 16  1  0
  2  3  2  0
  3 14  1  0
  3  4  1  0
  4  5  2  0
  4 17  1  0
  5  6  1  0
  5 18  1  0
  6  7  1  0
  6 13  2  0
  7 12  1  0
  7  8  1  0
  8  9  1  0
  8 19  1  0
  8 20  1  0
  9 10  1  0
  9 21  1  0
  9 22  1  0
 10 11  1  0
 11 12  1  0
 11 23  1  0
 11 24  1  0
 12 25  1  0
 12 26  1  0
 13 14  1  0
 14 15  1  0
M  END
>  <i_m_ct_stereo_status>  (283) 
1

>  <s_m_source_file>  (283) 
/var/tmp/pbs.5076255.sched01/tmp4185l44a/86vs10_z9v.sdf

>  <i_m_source_file_index>  (283) 
33

>  <i_lp_mmshare_version>  (283) 
48012

>  <i_f3d_flags>  (283) 
0

>  <s_epik_input>  (283) 
bjFbY0hdbm4oYzEyKW5jKFtjSF1bY0hdMilOM1tDSDJdW0NIMl1PW0NIMl1bQ0gyXTM=

>  <s_epik_cmdline>  (283) 
J2VwaWtfcHl0aG9uJywgJy1waHQnLCAnMi4wJywgJy1waCcsICc3LjAnLCAnLXRuJywgJzgnLCAnLW1hJywgJzIwMCcsICctaW1hZScsICc8aW5maWxlLm1hZT4nLCAnLW9tYWUnLCAnPG91dGZpbGUubWFlPic=

>  <r_lp_tautomer_probability>  (283) 
1

>  <r_epik_Ionization_Penalty>  (283) 
5.32031e-07

>  <r_epik_Ionization_Penalty_Charging>  (283) 
0

>  <r_epik_Ionization_Penalty_Neutral>  (283) 
5.32031e-07

>  <r_epik_State_Penalty>  (283) 
-0

>  <r_epik_Charging_Adjusted_Penalty>  (283) 
0

>  <i_epik_Tot_Q>  (283) 
0

>  <i_epik_Tot_abs_Q>  (283) 
0

>  <s_lp_Force_Field>  (283) 
OPLS3e

>  <r_lp_Energy>  (283) 
29.6302

>  <b_lp_Chiralities_Consistent>  (283) 
1

>  <s_lp_Variant>  (283) 
82:0-1

>  <s_i_glide_gridfile>  (283) 
pfpi4k_grid

>  <i_i_glide_lignum>  (283) 
33

>  <i_i_glide_rotatable_bonds>  (283) 
1

>  <r_i_docking_score>  (283) 
-3.23411

>  <r_i_glide_ligand_efficiency>  (283) 
-0.215608

>  <r_i_glide_ligand_efficiency_sa>  (283) 
-0.531734

>  <r_i_glide_ligand_efficiency_ln>  (283) 
-0.872187

>  <r_i_glide_gscore>  (283) 
-3.23411

>  <r_i_glide_lipo>  (283) 
-0.162155

>  <r_i_glide_hbond>  (283) 
0

>  <r_i_glide_metal>  (283) 
-0

>  <r_i_glide_rewards>  (283) 
-2.19752

>  <r_i_glide_evdw>  (283) 
-20.4469

>  <r_i_glide_ecoul>  (283) 
-1.45897

>  <r_i_glide_erotb>  (283) 
0.391152

>  <r_i_glide_esite>  (283) 
-0.0244017

>  <r_i_glide_emodel>  (283) 
-27.157

>  <r_i_glide_energy>  (283) 
-21.9059

>  <r_i_glide_einternal>  (283) 
0.0307312

>  <r_i_glide_intrahb_reward>  (283) 
-0

>  <i_i_glide_confnum>  (283) 
5

>  <i_i_glide_posenum>  (283) 
4

>  <r_i_glide_eff_state_penalty>  (283) 
0

>  <ligand_id>  (283) 
82

>  <original_smiles>  (283) 
c1nc2ccc(N3CCOCC3)nn2n1

>  <smiles>  (283) 
[H]c1nc2c([H])c([H])c(N3C([H])([H])C([H])([H])OC([H])([H])C3([H])[H])nn2n1

$$$$
83:0:0
     RDKit          3D

 72 75  0  0  1  0  0  0  0  0999 V2000
    3.4137    0.1788   -5.4618 C   0  0  0  0  0  0  0  0  0  0  0  0
    3.5611   -0.4657   -4.4358 C   0  0  0  0  0  0  0  0  0  0  0  0
    3.6713   -1.2464   -3.2471 C   0  0  0  0  0  0  0  0  0  0  0  0
    2.7549   -2.1833   -2.9669 C   0  0  0  0  0  0  0  0  0  0  0  0
    2.8139   -2.9869   -1.7559 C   0  0  0  0  0  0  0  0  0  0  0  0
    1.8131   -3.8442   -1.5125 C   0  0  0  0  0  0  0  0  0  0  0  0
    1.8267   -4.7395   -0.3724 C   0  0  0  0  0  0  0  0  0  0  0  0
    2.6457   -4.5257    0.6699 C   0  0  0  0  0  0  0  0  0  0  0  0
    3.5430   -3.2676    0.6935 C   0  0  1  0  0  0  0  0  0  0  0  0
    4.6722   -3.3517    1.7792 C   0  0  1  0  0  0  0  0  0  0  0  0
    5.2621   -2.0865    2.0400 O   0  0  0  0  0  0  0  0  0  0  0  0
    4.2644   -3.9588    3.1617 C   0  0  0  0  0  0  0  0  0  0  0  0
    2.9105   -4.7161    3.1938 C   0  0  2  0  0  0  0  0  0  0  0  0
    1.7473   -3.6983    3.4392 C   0  0  0  0  0  0  0  0  0  0  0  0
    2.7862   -5.8611    4.2521 C   0  0  1  0  0  0  0  0  0  0  0  0
    2.5054   -5.5208    5.7550 C   0  0  2  0  0  0  0  0  0  0  0  0
    3.6502   -4.7143    6.4039 C   0  0  0  0  0  0  0  0  0  0  0  0
    2.2364   -6.8052    6.6005 C   0  0  0  0  0  0  0  0  0  0  0  0
    1.2496   -6.6471    7.7807 C   0  0  2  0  0  0  0  0  0  0  0  0
    1.0621   -7.9316    8.3428 O   0  0  0  0  0  0  0  0  0  0  0  0
   -0.1096   -6.1016    7.3557 C   0  0  0  0  0  0  0  0  0  0  0  0
   -0.7695   -5.0271    7.8394 C   0  0  0  0  0  0  0  0  0  0  0  0
   -2.1306   -4.6322    7.2947 C   0  0  0  0  0  0  0  0  0  0  0  0
   -0.2660   -4.1131    8.9456 C   0  0  0  0  0  0  0  0  0  0  0  0
    1.7094   -6.7853    3.6213 C   0  0  0  0  0  0  0  0  0  0  0  0
    1.5354   -6.3801    2.1471 C   0  0  0  0  0  0  0  0  0  0  0  0
    2.7589   -5.4951    1.8541 C   0  0  1  0  0  0  0  0  0  0  0  0
    3.9191   -6.4786    1.5168 C   0  0  0  0  0  0  0  0  0  0  0  0
    3.9863   -2.8578   -0.7693 C   0  0  1  0  0  0  0  0  0  0  0  0
    5.0017   -3.7387   -1.2130 O   0  0  0  0  0  0  0  0  0  0  0  0
    4.5512   -1.4149   -0.8651 C   0  0  0  0  0  0  0  0  0  0  0  0
    4.8317   -0.9617   -2.3112 C   0  0  0  0  0  0  0  0  0  0  0  0
    3.2751    0.7252   -6.3658 H   0  0  0  0  0  0  0  0  0  0  0  0
    1.9356   -2.3359   -3.6615 H   0  0  0  0  0  0  0  0  0  0  0  0
    1.0029   -3.8960   -2.2231 H   0  0  0  0  0  0  0  0  0  0  0  0
    1.2246   -5.6338   -0.4111 H   0  0  0  0  0  0  0  0  0  0  0  0
    2.8714   -2.4681    1.0073 H   0  0  0  0  0  0  0  0  0  0  0  0
    5.4794   -3.9603    1.3721 H   0  0  0  0  0  0  0  0  0  0  0  0
    4.5931   -1.4840    2.3249 H   0  0  0  0  0  0  0  0  0  0  0  0
    5.0653   -4.6290    3.4847 H   0  0  0  0  0  0  0  0  0  0  0  0
    4.2435   -3.1703    3.9099 H   0  0  0  0  0  0  0  0  0  0  0  0
    0.7905   -4.1894    3.6179 H   0  0  0  0  0  0  0  0  0  0  0  0
    1.5745   -3.0064    2.6186 H   0  0  0  0  0  0  0  0  0  0  0  0
    1.9345   -3.0852    4.3206 H   0  0  0  0  0  0  0  0  0  0  0  0
    3.7250   -6.4123    4.2488 H   0  0  0  0  0  0  0  0  0  0  0  0
    1.6136   -4.8973    5.7987 H   0  0  0  0  0  0  0  0  0  0  0  0
    4.6163   -5.2007    6.2615 H   0  0  0  0  0  0  0  0  0  0  0  0
    3.5007   -4.6069    7.4791 H   0  0  0  0  0  0  0  0  0  0  0  0
    3.7239   -3.7081    5.9961 H   0  0  0  0  0  0  0  0  0  0  0  0
    1.8400   -7.6090    5.9832 H   0  0  0  0  0  0  0  0  0  0  0  0
    3.1844   -7.2013    6.9731 H   0  0  0  0  0  0  0  0  0  0  0  0
    1.7072   -6.0291    8.5483 H   0  0  0  0  0  0  0  0  0  0  0  0
    0.9639   -8.5657    7.6462 H   0  0  0  0  0  0  0  0  0  0  0  0
   -0.5808   -6.6549    6.5558 H   0  0  0  0  0  0  0  0  0  0  0  0
   -2.8771   -4.6571    8.0906 H   0  0  0  0  0  0  0  0  0  0  0  0
   -2.4610   -5.3093    6.5066 H   0  0  0  0  0  0  0  0  0  0  0  0
   -2.1017   -3.6247    6.8804 H   0  0  0  0  0  0  0  0  0  0  0  0
   -0.9538   -4.1417    9.7919 H   0  0  0  0  0  0  0  0  0  0  0  0
   -0.2101   -3.0862    8.5848 H   0  0  0  0  0  0  0  0  0  0  0  0
    0.7196   -4.3740    9.3216 H   0  0  0  0  0  0  0  0  0  0  0  0
    2.0303   -7.8262    3.6903 H   0  0  0  0  0  0  0  0  0  0  0  0
    0.7492   -6.7068    4.1331 H   0  0  0  0  0  0  0  0  0  0  0  0
    1.4675   -7.2519    1.4948 H   0  0  0  0  0  0  0  0  0  0  0  0
    0.6036   -5.8272    2.0370 H   0  0  0  0  0  0  0  0  0  0  0  0
    4.0350   -7.2762    2.2513 H   0  0  0  0  0  0  0  0  0  0  0  0
    4.8921   -6.0028    1.4125 H   0  0  0  0  0  0  0  0  0  0  0  0
    3.7218   -6.9723    0.5639 H   0  0  0  0  0  0  0  0  0  0  0  0
    4.5916   -4.5708   -1.4041 H   0  0  0  0  0  0  0  0  0  0  0  0
    3.8341   -0.7217   -0.4229 H   0  0  0  0  0  0  0  0  0  0  0  0
    5.4762   -1.3137   -0.3017 H   0  0  0  0  0  0  0  0  0  0  0  0
    5.6940   -1.5098   -2.6887 H   0  0  0  0  0  0  0  0  0  0  0  0
    5.0657    0.1045   -2.3224 H   0  0  0  0  0  0  0  0  0  0  0  0
  1  2  3  0
  1 33  1  0
  2  3  1  0
  3 32  1  0
  3  4  2  0
  4  5  1  0
  4 34  1  0
  5 29  1  0
  5  6  2  0
  6  7  1  0
  6 35  1  0
  7  8  2  0
  7 36  1  0
  8 27  1  0
  8  9  1  0
  9 10  1  0
  9 29  1  0
  9 37  1  1
 10 11  1  0
 10 12  1  0
 10 38  1  6
 11 39  1  0
 12 13  1  0
 12 40  1  0
 12 41  1  0
 13 27  1  0
 13 14  1  1
 13 15  1  0
 14 42  1  0
 14 43  1  0
 14 44  1  0
 15 16  1  0
 15 25  1  0
 15 45  1  1
 16 17  1  0
 16 18  1  0
 16 46  1  6
 17 47  1  0
 17 48  1  0
 17 49  1  0
 18 19  1  0
 18 50  1  0
 18 51  1  0
 19 20  1  0
 19 21  1  0
 19 52  1  1
 20 53  1  0
 21 22  2  3
 21 54  1  0
 22 23  1  0
 22 24  1  0
 23 55  1  0
 23 56  1  0
 23 57  1  0
 24 58  1  0
 24 59  1  0
 24 60  1  0
 25 26  1  0
 25 61  1  0
 25 62  1  0
 26 27  1  0
 26 63  1  0
 26 64  1  0
 27 28  1  6
 28 65  1  0
 28 66  1  0
 28 67  1  0
 29 30  1  6
 29 31  1  0
 30 68  1  0
 31 32  1  0
 31 69  1  0
 31 70  1  0
 32 71  1  0
 32 72  1  0
M  END
>  <i_m_ct_stereo_status>  (284) 
1

>  <s_m_source_file>  (284) 
/var/tmp/pbs.5076255.sched01/tmp4185l44a/86vs10_z9v.sdf

>  <i_m_source_file_index>  (284) 
34

>  <i_lp_mmshare_version>  (284) 
48012

>  <i_f3d_flags>  (284) 
0

>  <s_epik_input>  (284) 
W0NIXSNDQyhbQ0gyXVtDSDJdMSk9W0NIXUMoPVtDSF1bQ0hdPTIpW0NAXTEoW09IXSlbQ0BIXShbQ0BASF0oW09IXSlbQ0gyXTMpQzJbQ0BAXShbQ0gzXSkoW0NAXTM0W0NIM10pW0NIMl1bQ0gyXVtDQEBIXTRbQ0BIXShbQ0gzXSlbQ0gyXVtDQEhdKFtPSF0pW0NIXT1DKFtDSDNdKVtDSDNd

>  <s_epik_cmdline>  (284) 
J2VwaWtfcHl0aG9uJywgJy1waHQnLCAnMi4wJywgJy1waCcsICc3LjAnLCAnLXRuJywgJzgnLCAnLW1hJywgJzIwMCcsICctaW1hZScsICc8aW5maWxlLm1hZT4nLCAnLW9tYWUnLCAnPG91dGZpbGUubWFlPic=

>  <r_lp_tautomer_probability>  (284) 
1

>  <r_epik_Ionization_Penalty>  (284) 
1.49463e-06

>  <r_epik_Ionization_Penalty_Charging>  (284) 
0

>  <r_epik_Ionization_Penalty_Neutral>  (284) 
1.49463e-06

>  <r_epik_State_Penalty>  (284) 
-0

>  <r_epik_Charging_Adjusted_Penalty>  (284) 
0

>  <i_epik_Tot_Q>  (284) 
0

>  <i_epik_Tot_abs_Q>  (284) 
0

>  <s_lp_Force_Field>  (284) 
OPLS3e

>  <r_lp_Energy>  (284) 
51.1665

>  <b_lp_Chiralities_Consistent>  (284) 
1

>  <s_lp_Variant>  (284) 
83:0-1

>  <s_i_glide_gridfile>  (284) 
pfpi4k_grid

>  <i_i_glide_lignum>  (284) 
34

>  <i_i_glide_rotatable_bonds>  (284) 
8

>  <r_i_docking_score>  (284) 
-2.3883

>  <r_i_glide_ligand_efficiency>  (284) 
-0.0746344

>  <r_i_glide_ligand_efficiency_sa>  (284) 
-0.236949

>  <r_i_glide_ligand_efficiency_ln>  (284) 
-0.534805

>  <r_i_glide_gscore>  (284) 
-2.3883

>  <r_i_glide_lipo>  (284) 
-0.685048

>  <r_i_glide_hbond>  (284) 
0

>  <r_i_glide_metal>  (284) 
-0

>  <r_i_glide_rewards>  (284) 
-0.432095

>  <r_i_glide_evdw>  (284) 
-30.1751

>  <r_i_glide_ecoul>  (284) 
-1.90152

>  <r_i_glide_erotb>  (284) 
0.522823

>  <r_i_glide_esite>  (284) 
0

>  <r_i_glide_emodel>  (284) 
-34.8786

>  <r_i_glide_energy>  (284) 
-32.0766

>  <r_i_glide_einternal>  (284) 
2.76687

>  <r_i_glide_intrahb_reward>  (284) 
-0

>  <i_i_glide_confnum>  (284) 
1

>  <i_i_glide_posenum>  (284) 
15

>  <r_i_glide_eff_state_penalty>  (284) 
0

>  <ligand_id>  (284) 
83

>  <original_smiles>  (284) 
C#CC1=CC2=CC=C3C(C(O)CC4(C)C(C(C)CC(O)C=C(C)C)CCC34C)C2(O)CC1

>  <smiles>  (284) 
[H]C#CC1=C([H])C2=C([H])C([H])=C3C([H])(C([H])(O[H])C([H])([H])C4(C([H])([H])[H])C([H])(C([H])(C([H])([H])[H])C([H])([H])C([H])(O[H])C([H])=C(C([H])([H])[H])C([H])([H])[H])C([H])([H])C([H])([H])C34C([H])([H])[H])C2(O[H])C([H])([H])C1([H])[H]

$$$$
83:0:1
     RDKit          3D

 72 75  0  0  1  0  0  0  0  0999 V2000
    3.4160    0.0638   -5.5607 C   0  0  0  0  0  0  0  0  0  0  0  0
    3.5444   -0.5533   -4.5160 C   0  0  0  0  0  0  0  0  0  0  0  0
    3.6500   -1.2897   -3.3009 C   0  0  0  0  0  0  0  0  0  0  0  0
    2.7473   -2.2425   -3.0010 C   0  0  0  0  0  0  0  0  0  0  0  0
    2.8037   -2.9832   -1.7514 C   0  0  0  0  0  0  0  0  0  0  0  0
    1.8161   -3.8568   -1.4856 C   0  0  0  0  0  0  0  0  0  0  0  0
    1.8442   -4.6998   -0.3118 C   0  0  0  0  0  0  0  0  0  0  0  0
    2.6280   -4.4084    0.7440 C   0  0  0  0  0  0  0  0  0  0  0  0
    3.4816   -3.1213    0.7287 C   0  0  1  0  0  0  0  0  0  0  0  0
    4.5876   -3.1192    1.8416 C   0  0  1  0  0  0  0  0  0  0  0  0
    5.1212   -1.8263    2.0624 O   0  0  0  0  0  0  0  0  0  0  0  0
    4.1672   -3.6688    3.2418 C   0  0  0  0  0  0  0  0  0  0  0  0
    2.8365   -4.4641    3.2813 C   0  0  2  0  0  0  0  0  0  0  0  0
    1.6348   -3.4753    3.4498 C   0  0  0  0  0  0  0  0  0  0  0  0
    2.7253   -5.5567    4.3939 C   0  0  1  0  0  0  0  0  0  0  0  0
    2.3962   -5.1520    5.8704 C   0  0  2  0  0  0  0  0  0  0  0  0
    3.4277   -4.1700    6.4647 C   0  0  0  0  0  0  0  0  0  0  0  0
    2.2821   -6.4041    6.7915 C   0  0  0  0  0  0  0  0  0  0  0  0
    1.4342   -6.2348    8.0752 C   0  0  2  0  0  0  0  0  0  0  0  0
    1.3999   -7.4867    8.7311 O   0  0  0  0  0  0  0  0  0  0  0  0
    0.0023   -5.8053    7.7879 C   0  0  0  0  0  0  0  0  0  0  0  0
   -0.6104   -4.6520    8.1294 C   0  0  0  0  0  0  0  0  0  0  0  0
   -2.0601   -4.3993    7.7626 C   0  0  0  0  0  0  0  0  0  0  0  0
    0.0383   -3.5047    8.8869 C   0  0  0  0  0  0  0  0  0  0  0  0
    1.6945   -6.5498    3.7922 C   0  0  0  0  0  0  0  0  0  0  0  0
    1.5423   -6.2232    2.2931 C   0  0  0  0  0  0  0  0  0  0  0  0
    2.7428   -5.3130    1.9779 C   0  0  1  0  0  0  0  0  0  0  0  0
    3.9416   -6.2734    1.7190 C   0  0  0  0  0  0  0  0  0  0  0  0
    3.9476   -2.7722   -0.7416 C   0  0  1  0  0  0  0  0  0  0  0  0
    5.0068   -3.6359   -1.1091 O   0  0  0  0  0  0  0  0  0  0  0  0
    4.4743   -1.3209   -0.8942 C   0  0  0  0  0  0  0  0  0  0  0  0
    4.7772   -0.9312   -2.3532 C   0  0  0  0  0  0  0  0  0  0  0  0
    3.3124    0.5615   -6.4978 H   0  0  0  0  0  0  0  0  0  0  0  0
    1.9502   -2.4500   -3.7058 H   0  0  0  0  0  0  0  0  0  0  0  0
    1.0118   -3.9650   -2.1977 H   0  0  0  0  0  0  0  0  0  0  0  0
    1.2781   -5.6161   -0.3245 H   0  0  0  0  0  0  0  0  0  0  0  0
    2.7834   -2.3255    0.9912 H   0  0  0  0  0  0  0  0  0  0  0  0
    5.4256   -3.7159    1.4794 H   0  0  0  0  0  0  0  0  0  0  0  0
    5.8915   -1.9068    2.6048 H   0  0  0  0  0  0  0  0  0  0  0  0
    4.9792   -4.2940    3.6203 H   0  0  0  0  0  0  0  0  0  0  0  0
    4.1010   -2.8413    3.9448 H   0  0  0  0  0  0  0  0  0  0  0  0
    0.6903   -3.9883    3.6301 H   0  0  0  0  0  0  0  0  0  0  0  0
    1.4626   -2.8296    2.5926 H   0  0  0  0  0  0  0  0  0  0  0  0
    1.7773   -2.8134    4.3035 H   0  0  0  0  0  0  0  0  0  0  0  0
    3.6833   -6.0716    4.4400 H   0  0  0  0  0  0  0  0  0  0  0  0
    1.4307   -4.6469    5.8714 H   0  0  0  0  0  0  0  0  0  0  0  0
    4.4478   -4.5373    6.3463 H   0  0  0  0  0  0  0  0  0  0  0  0
    3.2631   -4.0095    7.5305 H   0  0  0  0  0  0  0  0  0  0  0  0
    3.3698   -3.1907    5.9952 H   0  0  0  0  0  0  0  0  0  0  0  0
    1.8525   -7.2427    6.2457 H   0  0  0  0  0  0  0  0  0  0  0  0
    3.2845   -6.7391    7.0680 H   0  0  0  0  0  0  0  0  0  0  0  0
    1.9278   -5.5466    8.7566 H   0  0  0  0  0  0  0  0  0  0  0  0
    1.1698   -8.1585    8.1052 H   0  0  0  0  0  0  0  0  0  0  0  0
   -0.5731   -6.5329    7.2352 H   0  0  0  0  0  0  0  0  0  0  0  0
   -2.6579   -4.2562    8.6640 H   0  0  0  0  0  0  0  0  0  0  0  0
   -2.4882   -5.2357    7.2131 H   0  0  0  0  0  0  0  0  0  0  0  0
   -2.1462   -3.5148    7.1319 H   0  0  0  0  0  0  0  0  0  0  0  0
   -0.4860   -3.3370    9.8289 H   0  0  0  0  0  0  0  0  0  0  0  0
   -0.0173   -2.5902    8.2960 H   0  0  0  0  0  0  0  0  0  0  0  0
    1.0869   -3.6692    9.1215 H   0  0  0  0  0  0  0  0  0  0  0  0
    2.0462   -7.5741    3.9248 H   0  0  0  0  0  0  0  0  0  0  0  0
    0.7230   -6.4797    4.2840 H   0  0  0  0  0  0  0  0  0  0  0  0
    1.5174   -7.1269    1.6828 H   0  0  0  0  0  0  0  0  0  0  0  0
    0.5985   -5.7043    2.1316 H   0  0  0  0  0  0  0  0  0  0  0  0
    4.0634   -7.0284    2.4956 H   0  0  0  0  0  0  0  0  0  0  0  0
    4.9008   -5.7715    1.6135 H   0  0  0  0  0  0  0  0  0  0  0  0
    3.7818   -6.8190    0.7876 H   0  0  0  0  0  0  0  0  0  0  0  0
    4.6445   -4.5058   -1.1990 H   0  0  0  0  0  0  0  0  0  0  0  0
    3.7190   -0.6423   -0.4979 H   0  0  0  0  0  0  0  0  0  0  0  0
    5.3787   -1.1594   -0.3122 H   0  0  0  0  0  0  0  0  0  0  0  0
    5.6615   -1.4763   -2.6856 H   0  0  0  0  0  0  0  0  0  0  0  0
    4.9822    0.1409   -2.4174 H   0  0  0  0  0  0  0  0  0  0  0  0
  1  2  3  0
  1 33  1  0
  2  3  1  0
  3 32  1  0
  3  4  2  0
  4  5  1  0
  4 34  1  0
  5 29  1  0
  5  6  2  0
  6  7  1  0
  6 35  1  0
  7  8  2  0
  7 36  1  0
  8 27  1  0
  8  9  1  0
  9 10  1  0
  9 29  1  0
  9 37  1  1
 10 11  1  0
 10 12  1  0
 10 38  1  6
 11 39  1  0
 12 13  1  0
 12 40  1  0
 12 41  1  0
 13 27  1  0
 13 14  1  1
 13 15  1  0
 14 42  1  0
 14 43  1  0
 14 44  1  0
 15 16  1  0
 15 25  1  0
 15 45  1  1
 16 17  1  0
 16 18  1  0
 16 46  1  6
 17 47  1  0
 17 48  1  0
 17 49  1  0
 18 19  1  0
 18 50  1  0
 18 51  1  0
 19 20  1  0
 19 21  1  0
 19 52  1  1
 20 53  1  0
 21 22  2  3
 21 54  1  0
 22 23  1  0
 22 24  1  0
 23 55  1  0
 23 56  1  0
 23 57  1  0
 24 58  1  0
 24 59  1  0
 24 60  1  0
 25 26  1  0
 25 61  1  0
 25 62  1  0
 26 27  1  0
 26 63  1  0
 26 64  1  0
 27 28  1  6
 28 65  1  0
 28 66  1  0
 28 67  1  0
 29 30  1  6
 29 31  1  0
 30 68  1  0
 31 32  1  0
 31 69  1  0
 31 70  1  0
 32 71  1  0
 32 72  1  0
M  END
>  <i_m_ct_stereo_status>  (285) 
1

>  <s_m_source_file>  (285) 
/var/tmp/pbs.5076255.sched01/tmp4185l44a/86vs10_z9v.sdf

>  <i_m_source_file_index>  (285) 
34

>  <i_lp_mmshare_version>  (285) 
48012

>  <i_f3d_flags>  (285) 
0

>  <s_epik_input>  (285) 
W0NIXSNDQyhbQ0gyXVtDSDJdMSk9W0NIXUMoPVtDSF1bQ0hdPTIpW0NAXTEoW09IXSlbQ0BIXShbQ0BASF0oW09IXSlbQ0gyXTMpQzJbQ0BAXShbQ0gzXSkoW0NAXTM0W0NIM10pW0NIMl1bQ0gyXVtDQEBIXTRbQ0BIXShbQ0gzXSlbQ0gyXVtDQEhdKFtPSF0pW0NIXT1DKFtDSDNdKVtDSDNd

>  <s_epik_cmdline>  (285) 
J2VwaWtfcHl0aG9uJywgJy1waHQnLCAnMi4wJywgJy1waCcsICc3LjAnLCAnLXRuJywgJzgnLCAnLW1hJywgJzIwMCcsICctaW1hZScsICc8aW5maWxlLm1hZT4nLCAnLW9tYWUnLCAnPG91dGZpbGUubWFlPic=

>  <r_lp_tautomer_probability>  (285) 
1

>  <r_epik_Ionization_Penalty>  (285) 
1.49463e-06

>  <r_epik_Ionization_Penalty_Charging>  (285) 
0

>  <r_epik_Ionization_Penalty_Neutral>  (285) 
1.49463e-06

>  <r_epik_State_Penalty>  (285) 
-0

>  <r_epik_Charging_Adjusted_Penalty>  (285) 
0

>  <i_epik_Tot_Q>  (285) 
0

>  <i_epik_Tot_abs_Q>  (285) 
0

>  <s_lp_Force_Field>  (285) 
OPLS3e

>  <r_lp_Energy>  (285) 
51.1665

>  <b_lp_Chiralities_Consistent>  (285) 
1

>  <s_lp_Variant>  (285) 
83:0-1

>  <s_i_glide_gridfile>  (285) 
pfpi4k_grid

>  <i_i_glide_lignum>  (285) 
34

>  <i_i_glide_rotatable_bonds>  (285) 
8

>  <r_i_docking_score>  (285) 
-2.01208

>  <r_i_glide_ligand_efficiency>  (285) 
-0.0628774

>  <r_i_glide_ligand_efficiency_sa>  (285) 
-0.199623

>  <r_i_glide_ligand_efficiency_ln>  (285) 
-0.450559

>  <r_i_glide_gscore>  (285) 
-2.01208

>  <r_i_glide_lipo>  (285) 
-0.515838

>  <r_i_glide_hbond>  (285) 
0

>  <r_i_glide_metal>  (285) 
-0

>  <r_i_glide_rewards>  (285) 
-0.432095

>  <r_i_glide_evdw>  (285) 
-29.0071

>  <r_i_glide_ecoul>  (285) 
-0.910748

>  <r_i_glide_erotb>  (285) 
0.522823

>  <r_i_glide_esite>  (285) 
0

>  <r_i_glide_emodel>  (285) 
-32.7487

>  <r_i_glide_energy>  (285) 
-29.9178

>  <r_i_glide_einternal>  (285) 
1.56152

>  <r_i_glide_intrahb_reward>  (285) 
-0

>  <i_i_glide_confnum>  (285) 
1

>  <i_i_glide_posenum>  (285) 
3

>  <r_i_glide_eff_state_penalty>  (285) 
0

>  <ligand_id>  (285) 
83

>  <original_smiles>  (285) 
C#CC1=CC2=CC=C3C(C(O)CC4(C)C(C(C)CC(O)C=C(C)C)CCC34C)C2(O)CC1

>  <smiles>  (285) 
[H]C#CC1=C([H])C2=C([H])C([H])=C3C([H])(C([H])(O[H])C([H])([H])C4(C([H])([H])[H])C([H])(C([H])(C([H])([H])[H])C([H])([H])C([H])(O[H])C([H])=C(C([H])([H])[H])C([H])([H])[H])C([H])([H])C([H])([H])C34C([H])([H])[H])C2(O[H])C([H])([H])C1([H])[H]

$$$$
83:0:2
     RDKit          3D

 72 75  0  0  1  0  0  0  0  0999 V2000
    3.5942   -0.1635   -6.4310 C   0  0  0  0  0  0  0  0  0  0  0  0
    3.8100   -0.6164   -5.3106 C   0  0  0  0  0  0  0  0  0  0  0  0
    3.9104   -1.1952   -4.0308 C   0  0  0  0  0  0  0  0  0  0  0  0
    4.3287   -2.4666   -3.8258 C   0  0  0  0  0  0  0  0  0  0  0  0
    4.4561   -3.0102   -2.4785 C   0  0  0  0  0  0  0  0  0  0  0  0
    4.8130   -4.2937   -2.3015 C   0  0  0  0  0  0  0  0  0  0  0  0
    4.9187   -4.8928   -0.9874 C   0  0  0  0  0  0  0  0  0  0  0  0
    4.3929   -4.3195    0.1058 C   0  0  0  0  0  0  0  0  0  0  0  0
    3.5541   -3.0445   -0.0470 C   0  0  1  0  0  0  0  0  0  0  0  0
    3.2866   -2.3277    1.3313 C   0  0  1  0  0  0  0  0  0  0  0  0
    2.2198   -1.3813    1.2796 O   0  0  0  0  0  0  0  0  0  0  0  0
    2.9908   -3.2502    2.5662 C   0  0  0  0  0  0  0  0  0  0  0  0
    3.2951   -4.7587    2.3393 C   0  0  2  0  0  0  0  0  0  0  0  0
    2.0791   -5.4168    1.6203 C   0  0  0  0  0  0  0  0  0  0  0  0
    3.6540   -5.5925    3.6120 C   0  0  1  0  0  0  0  0  0  0  0  0
    2.5507   -6.0323    4.6258 C   0  0  2  0  0  0  0  0  0  0  0  0
    3.1889   -6.2173    6.0161 C   0  0  0  0  0  0  0  0  0  0  0  0
    1.7379   -7.3089    4.1982 C   0  0  0  0  0  0  0  0  0  0  0  0
    0.5819   -7.8024    5.0973 C   0  0  2  0  0  0  0  0  0  0  0  0
   -0.2440   -8.5974    4.2527 O   0  0  0  0  0  0  0  0  0  0  0  0
   -0.2587   -6.6697    5.6552 C   0  0  0  0  0  0  0  0  0  0  0  0
   -0.3045   -6.2314    6.9334 C   0  0  0  0  0  0  0  0  0  0  0  0
   -1.1860   -5.0632    7.3218 C   0  0  0  0  0  0  0  0  0  0  0  0
    0.4990   -6.7954    8.0982 C   0  0  0  0  0  0  0  0  0  0  0  0
    4.5684   -6.7383    3.0964 C   0  0  0  0  0  0  0  0  0  0  0  0
    4.9283   -6.3782    1.6430 C   0  0  0  0  0  0  0  0  0  0  0  0
    4.6055   -4.8781    1.5122 C   0  0  1  0  0  0  0  0  0  0  0  0
    5.8422   -4.1455    2.0980 C   0  0  0  0  0  0  0  0  0  0  0  0
    4.1222   -2.1732   -1.2427 C   0  0  1  0  0  0  0  0  0  0  0  0
    5.2908   -1.4639   -0.8292 O   0  0  0  0  0  0  0  0  0  0  0  0
    3.0867   -1.1582   -1.6903 C   0  0  0  0  0  0  0  0  0  0  0  0
    3.5018   -0.3010   -2.8984 C   0  0  0  0  0  0  0  0  0  0  0  0
    3.8317    0.1249   -7.4360 H   0  0  0  0  0  0  0  0  0  0  0  0
    4.5860   -3.1143   -4.6521 H   0  0  0  0  0  0  0  0  0  0  0  0
    5.0147   -4.9053   -3.1638 H   0  0  0  0  0  0  0  0  0  0  0  0
    5.4739   -5.8004   -0.8678 H   0  0  0  0  0  0  0  0  0  0  0  0
    2.5706   -3.3879   -0.3797 H   0  0  0  0  0  0  0  0  0  0  0  0
    4.1833   -1.7583    1.5714 H   0  0  0  0  0  0  0  0  0  0  0  0
    1.8736   -1.2765    0.3956 H   0  0  0  0  0  0  0  0  0  0  0  0
    3.5596   -2.8751    3.4261 H   0  0  0  0  0  0  0  0  0  0  0  0
    1.9482   -3.1553    2.8781 H   0  0  0  0  0  0  0  0  0  0  0  0
    2.2143   -6.4929    1.5187 H   0  0  0  0  0  0  0  0  0  0  0  0
    1.8695   -5.0468    0.6199 H   0  0  0  0  0  0  0  0  0  0  0  0
    1.1690   -5.2620    2.1981 H   0  0  0  0  0  0  0  0  0  0  0  0
    4.2891   -4.9238    4.1882 H   0  0  0  0  0  0  0  0  0  0  0  0
    1.8587   -5.1942    4.7091 H   0  0  0  0  0  0  0  0  0  0  0  0
    4.0547   -6.8896    5.9950 H   0  0  0  0  0  0  0  0  0  0  0  0
    2.4530   -6.6824    6.6643 H   0  0  0  0  0  0  0  0  0  0  0  0
    3.4997   -5.2640    6.4681 H   0  0  0  0  0  0  0  0  0  0  0  0
    1.2813   -7.1419    3.2117 H   0  0  0  0  0  0  0  0  0  0  0  0
    2.4005   -8.1771    4.1099 H   0  0  0  0  0  0  0  0  0  0  0  0
    0.9709   -8.4406    5.8914 H   0  0  0  0  0  0  0  0  0  0  0  0
   -0.4274   -9.4410    4.6430 H   0  0  0  0  0  0  0  0  0  0  0  0
   -0.8804   -6.1729    4.9162 H   0  0  0  0  0  0  0  0  0  0  0  0
   -1.8593   -5.3993    8.1033 H   0  0  0  0  0  0  0  0  0  0  0  0
   -1.7906   -4.7166    6.4840 H   0  0  0  0  0  0  0  0  0  0  0  0
   -0.5797   -4.2300    7.6868 H   0  0  0  0  0  0  0  0  0  0  0  0
   -0.1574   -7.0726    8.9217 H   0  0  0  0  0  0  0  0  0  0  0  0
    1.1744   -6.0206    8.4665 H   0  0  0  0  0  0  0  0  0  0  0  0
    1.1183   -7.6556    7.8371 H   0  0  0  0  0  0  0  0  0  0  0  0
    5.4581   -6.8152    3.7285 H   0  0  0  0  0  0  0  0  0  0  0  0
    4.0908   -7.7198    3.0786 H   0  0  0  0  0  0  0  0  0  0  0  0
    5.9622   -6.6269    1.4112 H   0  0  0  0  0  0  0  0  0  0  0  0
    4.3012   -6.9686    0.9738 H   0  0  0  0  0  0  0  0  0  0  0  0
    6.1420   -4.5307    3.0720 H   0  0  0  0  0  0  0  0  0  0  0  0
    5.7232   -3.0700    2.2003 H   0  0  0  0  0  0  0  0  0  0  0  0
    6.6936   -4.3012    1.4359 H   0  0  0  0  0  0  0  0  0  0  0  0
    5.0012   -0.8470   -0.1807 H   0  0  0  0  0  0  0  0  0  0  0  0
    2.2131   -1.7012   -1.9982 H   0  0  0  0  0  0  0  0  0  0  0  0
    2.8571   -0.5891   -0.8200 H   0  0  0  0  0  0  0  0  0  0  0  0
    4.3278    0.4094   -2.7236 H   0  0  0  0  0  0  0  0  0  0  0  0
    2.6421    0.2625   -3.2650 H   0  0  0  0  0  0  0  0  0  0  0  0
  1  2  3  0
  1 33  1  0
  2  3  1  0
  3 32  1  0
  3  4  2  0
  4  5  1  0
  4 34  1  0
  5 29  1  0
  5  6  2  0
  6  7  1  0
  6 35  1  0
  7  8  2  0
  7 36  1  0
  8 27  1  0
  8  9  1  0
  9 10  1  0
  9 29  1  0
  9 37  1  6
 10 11  1  0
 10 12  1  0
 10 38  1  1
 11 39  1  0
 12 13  1  0
 12 40  1  0
 12 41  1  0
 13 27  1  0
 13 14  1  6
 13 15  1  0
 14 42  1  0
 14 43  1  0
 14 44  1  0
 15 16  1  0
 15 25  1  0
 15 45  1  1
 16 17  1  0
 16 18  1  0
 16 46  1  1
 17 47  1  0
 17 48  1  0
 17 49  1  0
 18 19  1  0
 18 50  1  0
 18 51  1  0
 19 20  1  0
 19 21  1  0
 19 52  1  1
 20 53  1  0
 21 22  2  3
 21 54  1  0
 22 23  1  0
 22 24  1  0
 23 55  1  0
 23 56  1  0
 23 57  1  0
 24 58  1  0
 24 59  1  0
 24 60  1  0
 25 26  1  0
 25 61  1  0
 25 62  1  0
 26 27  1  0
 26 63  1  0
 26 64  1  0
 27 28  1  1
 28 65  1  0
 28 66  1  0
 28 67  1  0
 29 30  1  1
 29 31  1  0
 30 68  1  0
 31 32  1  0
 31 69  1  0
 31 70  1  0
 32 71  1  0
 32 72  1  0
M  END
>  <i_m_ct_stereo_status>  (286) 
1

>  <s_m_source_file>  (286) 
/var/tmp/pbs.5076255.sched01/tmp4185l44a/86vs10_z9v.sdf

>  <i_m_source_file_index>  (286) 
34

>  <i_lp_mmshare_version>  (286) 
48012

>  <i_f3d_flags>  (286) 
0

>  <s_epik_input>  (286) 
W0NIXSNDQyhbQ0gyXVtDSDJdMSk9W0NIXUMoPVtDSF1bQ0hdPTIpW0NAXTEoW09IXSlbQ0BIXShbQ0BASF0oW09IXSlbQ0gyXTMpQzJbQ0BAXShbQ0gzXSkoW0NAXTM0W0NIM10pW0NIMl1bQ0gyXVtDQEBIXTRbQ0BIXShbQ0gzXSlbQ0gyXVtDQEhdKFtPSF0pW0NIXT1DKFtDSDNdKVtDSDNd

>  <s_epik_cmdline>  (286) 
J2VwaWtfcHl0aG9uJywgJy1waHQnLCAnMi4wJywgJy1waCcsICc3LjAnLCAnLXRuJywgJzgnLCAnLW1hJywgJzIwMCcsICctaW1hZScsICc8aW5maWxlLm1hZT4nLCAnLW9tYWUnLCAnPG91dGZpbGUubWFlPic=

>  <r_lp_tautomer_probability>  (286) 
1

>  <r_epik_Ionization_Penalty>  (286) 
1.49463e-06

>  <r_epik_Ionization_Penalty_Charging>  (286) 
0

>  <r_epik_Ionization_Penalty_Neutral>  (286) 
1.49463e-06

>  <r_epik_State_Penalty>  (286) 
-0

>  <r_epik_Charging_Adjusted_Penalty>  (286) 
0

>  <i_epik_Tot_Q>  (286) 
0

>  <i_epik_Tot_abs_Q>  (286) 
0

>  <s_lp_Force_Field>  (286) 
OPLS3e

>  <r_lp_Energy>  (286) 
51.1665

>  <b_lp_Chiralities_Consistent>  (286) 
1

>  <s_lp_Variant>  (286) 
83:0-1

>  <s_i_glide_gridfile>  (286) 
pfpi4k_grid

>  <i_i_glide_lignum>  (286) 
34

>  <i_i_glide_rotatable_bonds>  (286) 
8

>  <r_i_docking_score>  (286) 
-1.79991

>  <r_i_glide_ligand_efficiency>  (286) 
-0.0562471

>  <r_i_glide_ligand_efficiency_sa>  (286) 
-0.178573

>  <r_i_glide_ligand_efficiency_ln>  (286) 
-0.403048

>  <r_i_glide_gscore>  (286) 
-1.79991

>  <r_i_glide_lipo>  (286) 
-0.425198

>  <r_i_glide_hbond>  (286) 
-0.16

>  <r_i_glide_metal>  (286) 
-0

>  <r_i_glide_rewards>  (286) 
-0.507095

>  <r_i_glide_evdw>  (286) 
-10.8408

>  <r_i_glide_ecoul>  (286) 
-4.58931

>  <r_i_glide_erotb>  (286) 
0.522823

>  <r_i_glide_esite>  (286) 
0

>  <r_i_glide_emodel>  (286) 
-11.392

>  <r_i_glide_energy>  (286) 
-15.4301

>  <r_i_glide_einternal>  (286) 
10.9073

>  <r_i_glide_intrahb_reward>  (286) 
-0

>  <i_i_glide_confnum>  (286) 
3

>  <i_i_glide_posenum>  (286) 
1

>  <r_i_glide_eff_state_penalty>  (286) 
0

>  <ligand_id>  (286) 
83

>  <original_smiles>  (286) 
C#CC1=CC2=CC=C3C(C(O)CC4(C)C(C(C)CC(O)C=C(C)C)CCC34C)C2(O)CC1

>  <smiles>  (286) 
[H]C#CC1=C([H])C2=C([H])C([H])=C3C([H])(C([H])(O[H])C([H])([H])C4(C([H])([H])[H])C([H])(C([H])(C([H])([H])[H])C([H])([H])C([H])(O[H])C([H])=C(C([H])([H])[H])C([H])([H])[H])C([H])([H])C([H])([H])C34C([H])([H])[H])C2(O[H])C([H])([H])C1([H])[H]

$$$$
85:0:0
     RDKit          3D

 21 23  0  0  1  0  0  0  0  0999 V2000
    3.0190   -1.4841   -4.3160 O   0  0  0  0  0  0  0  0  0  0  0  0
    3.4741   -2.7034   -3.7753 C   0  0  0  0  0  0  0  0  0  0  0  0
    4.5677   -2.4205   -2.7337 C   0  0  2  0  0  0  0  0  0  0  0  0
    5.3460   -3.6009   -2.5715 O   0  0  0  0  0  0  0  0  0  0  0  0
    5.2149   -3.9738   -1.2435 C   0  0  2  0  0  0  0  0  0  0  0  0
    4.0050   -3.4442   -0.8004 O   0  0  0  0  0  0  0  0  0  0  0  0
    4.0105   -2.1215   -1.3254 C   0  0  1  0  0  0  0  0  0  0  0  0
    4.9569   -1.2592   -0.4379 C   0  0  0  0  0  0  0  0  0  0  0  0
    6.2057   -2.0199   -0.1304 C   0  0  0  0  0  0  0  0  0  0  0  0
    7.3190   -1.6461    0.4669 N   0  0  0  0  0  0  0  0  0  0  0  0
    8.0929   -2.8034    0.4260 N   0  0  0  0  0  0  0  0  0  0  0  0
    7.4667   -3.7850   -0.1600 N   0  0  0  0  0  0  0  0  0  0  0  0
    6.2590   -3.2891   -0.5013 N   0  0  0  0  0  0  0  0  0  0  0  0
    2.3134   -1.6717   -4.9286 H   0  0  0  0  0  0  0  0  0  0  0  0
    2.6507   -3.2814   -3.3508 H   0  0  0  0  0  0  0  0  0  0  0  0
    3.8794   -3.2837   -4.6026 H   0  0  0  0  0  0  0  0  0  0  0  0
    5.2162   -1.6200   -3.0855 H   0  0  0  0  0  0  0  0  0  0  0  0
    5.2840   -5.0478   -1.0998 H   0  0  0  0  0  0  0  0  0  0  0  0
    3.0151   -1.6857   -1.3646 H   0  0  0  0  0  0  0  0  0  0  0  0
    5.2122   -0.3166   -0.9247 H   0  0  0  0  0  0  0  0  0  0  0  0
    4.4654   -1.0271    0.5086 H   0  0  0  0  0  0  0  0  0  0  0  0
  1  2  1  0
  1 14  1  0
  2  3  1  0
  2 15  1  0
  2 16  1  0
  3  7  1  0
  3  4  1  0
  3 17  1  6
  4  5  1  0
  5 13  1  0
  5  6  1  0
  5 18  1  6
  6  7  1  0
  7  8  1  0
  7 19  1  6
  8  9  1  0
  8 20  1  0
  8 21  1  0
  9 13  1  0
  9 10  2  0
 10 11  1  0
 11 12  2  0
 12 13  1  0
M  END
>  <i_m_ct_stereo_status>  (287) 
1

>  <s_m_source_file>  (287) 
/var/tmp/pbs.5076255.sched01/tmp4185l44a/86vs10_z9v.sdf

>  <i_m_source_file_index>  (287) 
36

>  <i_lp_mmshare_version>  (287) 
48012

>  <i_f3d_flags>  (287) 
0

>  <s_epik_input>  (287) 
W09IXVtDSDJdW0NASF0oTzEpW0NAQEhdKE8yKVtDSDJdYyhubm4zKW4zW0NASF0xMg==

>  <s_epik_cmdline>  (287) 
J2VwaWtfcHl0aG9uJywgJy1waHQnLCAnMi4wJywgJy1waCcsICc3LjAnLCAnLXRuJywgJzgnLCAnLW1hJywgJzIwMCcsICctaW1hZScsICc8aW5maWxlLm1hZT4nLCAnLW9tYWUnLCAnPG91dGZpbGUubWFlPic=

>  <r_lp_tautomer_probability>  (287) 
1

>  <r_epik_Ionization_Penalty>  (287) 
2.09031e-07

>  <r_epik_Ionization_Penalty_Charging>  (287) 
0

>  <r_epik_Ionization_Penalty_Neutral>  (287) 
2.09031e-07

>  <r_epik_State_Penalty>  (287) 
-0

>  <r_epik_Charging_Adjusted_Penalty>  (287) 
0

>  <i_epik_Tot_Q>  (287) 
0

>  <i_epik_Tot_abs_Q>  (287) 
0

>  <s_epik_Chemistry_Notes>  (287) 
This compound contains an acetal/aminal-like group ( X-CH(R)-Y where X, Y are N, S, or O) that may be acid/base labile, releasing an aldehyde.

>  <s_lp_Force_Field>  (287) 
OPLS3e

>  <r_lp_Energy>  (287) 
0.320463

>  <b_lp_Chiralities_Consistent>  (287) 
1

>  <s_lp_Variant>  (287) 
85:0-1

>  <s_i_glide_gridfile>  (287) 
pfpi4k_grid

>  <i_i_glide_lignum>  (287) 
36

>  <i_i_glide_rotatable_bonds>  (287) 
2

>  <r_i_docking_score>  (287) 
-4.51253

>  <r_i_glide_ligand_efficiency>  (287) 
-0.347117

>  <r_i_glide_ligand_efficiency_sa>  (287) 
-0.816189

>  <r_i_glide_ligand_efficiency_ln>  (287) 
-1.2658

>  <r_i_glide_gscore>  (287) 
-4.51253

>  <r_i_glide_lipo>  (287) 
-0.287288

>  <r_i_glide_hbond>  (287) 
-0.377161

>  <r_i_glide_metal>  (287) 
-0

>  <r_i_glide_rewards>  (287) 
-2.27884

>  <r_i_glide_evdw>  (287) 
-18.4702

>  <r_i_glide_ecoul>  (287) 
-4.08456

>  <r_i_glide_erotb>  (287) 
0

>  <r_i_glide_esite>  (287) 
-0.0330479

>  <r_i_glide_emodel>  (287) 
-29.6729

>  <r_i_glide_energy>  (287) 
-22.5548

>  <r_i_glide_einternal>  (287) 
0.636155

>  <r_i_glide_intrahb_reward>  (287) 
-0

>  <i_i_glide_confnum>  (287) 
1

>  <i_i_glide_posenum>  (287) 
25

>  <r_i_glide_eff_state_penalty>  (287) 
0

>  <ligand_id>  (287) 
85

>  <original_smiles>  (287) 
OCC1OC2OC1Cc1nnnn12

>  <smiles>  (287) 
[H]OC([H])([H])C1([H])OC2([H])OC1([H])C([H])([H])c1nnnn12

$$$$
85:0:1
     RDKit          3D

 21 23  0  0  1  0  0  0  0  0999 V2000
    2.2148   -2.6565   -3.5520 O   0  0  0  0  0  0  0  0  0  0  0  0
    3.0297   -1.5126   -3.7116 C   0  0  0  0  0  0  0  0  0  0  0  0
    4.1442   -1.4705   -2.6539 C   0  0  2  0  0  0  0  0  0  0  0  0
    5.1779   -2.3503   -3.0787 O   0  0  0  0  0  0  0  0  0  0  0  0
    5.3342   -3.2834   -2.0673 C   0  0  2  0  0  0  0  0  0  0  0  0
    4.1196   -3.3419   -1.3865 O   0  0  0  0  0  0  0  0  0  0  0  0
    3.7491   -1.9737   -1.2444 C   0  0  1  0  0  0  0  0  0  0  0  0
    4.5932   -1.3723   -0.0868 C   0  0  0  0  0  0  0  0  0  0  0  0
    6.0084   -1.8363   -0.2042 C   0  0  0  0  0  0  0  0  0  0  0  0
    7.0879   -1.4875    0.4773 N   0  0  0  0  0  0  0  0  0  0  0  0
    8.0881   -2.2636   -0.1029 N   0  0  0  0  0  0  0  0  0  0  0  0
    7.6209   -2.9914   -1.0843 N   0  0  0  0  0  0  0  0  0  0  0  0
    6.2953   -2.7413   -1.1272 N   0  0  0  0  0  0  0  0  0  0  0  0
    1.7762   -2.5958   -2.7135 H   0  0  0  0  0  0  0  0  0  0  0  0
    3.4387   -1.5031   -4.7208 H   0  0  0  0  0  0  0  0  0  0  0  0
    2.4179   -0.6190   -3.6203 H   0  0  0  0  0  0  0  0  0  0  0  0
    4.5430   -0.4560   -2.6116 H   0  0  0  0  0  0  0  0  0  0  0  0
    5.6635   -4.2488   -2.4448 H   0  0  0  0  0  0  0  0  0  0  0  0
    2.6888   -1.8602   -1.0432 H   0  0  0  0  0  0  0  0  0  0  0  0
    4.5616   -0.2808   -0.0921 H   0  0  0  0  0  0  0  0  0  0  0  0
    4.2015   -1.7240    0.8686 H   0  0  0  0  0  0  0  0  0  0  0  0
  1  2  1  0
  1 14  1  0
  2  3  1  0
  2 15  1  0
  2 16  1  0
  3  7  1  0
  3  4  1  0
  3 17  1  1
  4  5  1  0
  5 13  1  0
  5  6  1  0
  5 18  1  6
  6  7  1  0
  7  8  1  0
  7 19  1  1
  8  9  1  0
  8 20  1  0
  8 21  1  0
  9 13  1  0
  9 10  2  0
 10 11  1  0
 11 12  2  0
 12 13  1  0
M  END
>  <i_m_ct_stereo_status>  (288) 
1

>  <s_m_source_file>  (288) 
/var/tmp/pbs.5076255.sched01/tmp4185l44a/86vs10_z9v.sdf

>  <i_m_source_file_index>  (288) 
36

>  <i_lp_mmshare_version>  (288) 
48012

>  <i_f3d_flags>  (288) 
0

>  <s_epik_input>  (288) 
W09IXVtDSDJdW0NASF0oTzEpW0NAQEhdKE8yKVtDSDJdYyhubm4zKW4zW0NASF0xMg==

>  <s_epik_cmdline>  (288) 
J2VwaWtfcHl0aG9uJywgJy1waHQnLCAnMi4wJywgJy1waCcsICc3LjAnLCAnLXRuJywgJzgnLCAnLW1hJywgJzIwMCcsICctaW1hZScsICc8aW5maWxlLm1hZT4nLCAnLW9tYWUnLCAnPG91dGZpbGUubWFlPic=

>  <r_lp_tautomer_probability>  (288) 
1

>  <r_epik_Ionization_Penalty>  (288) 
2.09031e-07

>  <r_epik_Ionization_Penalty_Charging>  (288) 
0

>  <r_epik_Ionization_Penalty_Neutral>  (288) 
2.09031e-07

>  <r_epik_State_Penalty>  (288) 
-0

>  <r_epik_Charging_Adjusted_Penalty>  (288) 
0

>  <i_epik_Tot_Q>  (288) 
0

>  <i_epik_Tot_abs_Q>  (288) 
0

>  <s_epik_Chemistry_Notes>  (288) 
This compound contains an acetal/aminal-like group ( X-CH(R)-Y where X, Y are N, S, or O) that may be acid/base labile, releasing an aldehyde.

>  <s_lp_Force_Field>  (288) 
OPLS3e

>  <r_lp_Energy>  (288) 
0.320463

>  <b_lp_Chiralities_Consistent>  (288) 
1

>  <s_lp_Variant>  (288) 
85:0-1

>  <s_i_glide_gridfile>  (288) 
pfpi4k_grid

>  <i_i_glide_lignum>  (288) 
36

>  <i_i_glide_rotatable_bonds>  (288) 
2

>  <r_i_docking_score>  (288) 
-3.84596

>  <r_i_glide_ligand_efficiency>  (288) 
-0.295843

>  <r_i_glide_ligand_efficiency_sa>  (288) 
-0.695626

>  <r_i_glide_ligand_efficiency_ln>  (288) 
-1.07883

>  <r_i_glide_gscore>  (288) 
-3.84596

>  <r_i_glide_lipo>  (288) 
-0.189493

>  <r_i_glide_hbond>  (288) 
0

>  <r_i_glide_metal>  (288) 
-0

>  <r_i_glide_rewards>  (288) 
-2.36944

>  <r_i_glide_evdw>  (288) 
-20.2539

>  <r_i_glide_ecoul>  (288) 
-1.3212

>  <r_i_glide_erotb>  (288) 
0

>  <r_i_glide_esite>  (288) 
-0.0761463

>  <r_i_glide_emodel>  (288) 
-26.3587

>  <r_i_glide_energy>  (288) 
-21.5751

>  <r_i_glide_einternal>  (288) 
3.19539

>  <r_i_glide_intrahb_reward>  (288) 
-0

>  <i_i_glide_confnum>  (288) 
2

>  <i_i_glide_posenum>  (288) 
7

>  <r_i_glide_eff_state_penalty>  (288) 
0

>  <ligand_id>  (288) 
85

>  <original_smiles>  (288) 
OCC1OC2OC1Cc1nnnn12

>  <smiles>  (288) 
[H]OC([H])([H])C1([H])OC2([H])OC1([H])C([H])([H])c1nnnn12

$$$$
85:0:2
     RDKit          3D

 21 23  0  0  1  0  0  0  0  0999 V2000
    2.2172   -3.0302   -3.5478 O   0  0  0  0  0  0  0  0  0  0  0  0
    3.0463   -1.9143   -3.7915 C   0  0  0  0  0  0  0  0  0  0  0  0
    4.1420   -1.7625   -2.7197 C   0  0  2  0  0  0  0  0  0  0  0  0
    5.1529   -2.7267   -2.9908 O   0  0  0  0  0  0  0  0  0  0  0  0
    5.2330   -3.5127   -1.8488 C   0  0  2  0  0  0  0  0  0  0  0  0
    3.9987   -3.4326   -1.2092 O   0  0  0  0  0  0  0  0  0  0  0  0
    3.6822   -2.0482   -1.2709 C   0  0  1  0  0  0  0  0  0  0  0  0
    4.5197   -1.3234   -0.1794 C   0  0  0  0  0  0  0  0  0  0  0  0
    5.9165   -1.8513   -0.1777 C   0  0  0  0  0  0  0  0  0  0  0  0
    6.9920   -1.4544    0.4847 N   0  0  0  0  0  0  0  0  0  0  0  0
    7.9718   -2.3369    0.0440 N   0  0  0  0  0  0  0  0  0  0  0  0
    7.4977   -3.1739   -0.8407 N   0  0  0  0  0  0  0  0  0  0  0  0
    6.1863   -2.8831   -0.9584 N   0  0  0  0  0  0  0  0  0  0  0  0
    2.7550   -3.7760   -3.3255 H   0  0  0  0  0  0  0  0  0  0  0  0
    3.4871   -2.0046   -4.7830 H   0  0  0  0  0  0  0  0  0  0  0  0
    2.4233   -1.0218   -3.8116 H   0  0  0  0  0  0  0  0  0  0  0  0
    4.5729   -0.7649   -2.8055 H   0  0  0  0  0  0  0  0  0  0  0  0
    5.5060   -4.5411   -2.0673 H   0  0  0  0  0  0  0  0  0  0  0  0
    2.6273   -1.8604   -1.1320 H   0  0  0  0  0  0  0  0  0  0  0  0
    4.5367   -0.2459   -0.3372 H   0  0  0  0  0  0  0  0  0  0  0  0
    4.0881   -1.5181    0.8013 H   0  0  0  0  0  0  0  0  0  0  0  0
  1  2  1  0
  1 14  1  0
  2  3  1  0
  2 15  1  0
  2 16  1  0
  3  7  1  0
  3  4  1  0
  3 17  1  1
  4  5  1  0
  5 13  1  0
  5  6  1  0
  5 18  1  6
  6  7  1  0
  7  8  1  0
  7 19  1  6
  8  9  1  0
  8 20  1  0
  8 21  1  0
  9 13  1  0
  9 10  2  0
 10 11  1  0
 11 12  2  0
 12 13  1  0
M  END
>  <i_m_ct_stereo_status>  (289) 
1

>  <s_m_source_file>  (289) 
/var/tmp/pbs.5076255.sched01/tmp4185l44a/86vs10_z9v.sdf

>  <i_m_source_file_index>  (289) 
36

>  <i_lp_mmshare_version>  (289) 
48012

>  <i_f3d_flags>  (289) 
0

>  <s_epik_input>  (289) 
W09IXVtDSDJdW0NASF0oTzEpW0NAQEhdKE8yKVtDSDJdYyhubm4zKW4zW0NASF0xMg==

>  <s_epik_cmdline>  (289) 
J2VwaWtfcHl0aG9uJywgJy1waHQnLCAnMi4wJywgJy1waCcsICc3LjAnLCAnLXRuJywgJzgnLCAnLW1hJywgJzIwMCcsICctaW1hZScsICc8aW5maWxlLm1hZT4nLCAnLW9tYWUnLCAnPG91dGZpbGUubWFlPic=

>  <r_lp_tautomer_probability>  (289) 
1

>  <r_epik_Ionization_Penalty>  (289) 
2.09031e-07

>  <r_epik_Ionization_Penalty_Charging>  (289) 
0

>  <r_epik_Ionization_Penalty_Neutral>  (289) 
2.09031e-07

>  <r_epik_State_Penalty>  (289) 
-0

>  <r_epik_Charging_Adjusted_Penalty>  (289) 
0

>  <i_epik_Tot_Q>  (289) 
0

>  <i_epik_Tot_abs_Q>  (289) 
0

>  <s_epik_Chemistry_Notes>  (289) 
This compound contains an acetal/aminal-like group ( X-CH(R)-Y where X, Y are N, S, or O) that may be acid/base labile, releasing an aldehyde.

>  <s_lp_Force_Field>  (289) 
OPLS3e

>  <r_lp_Energy>  (289) 
0.320463

>  <b_lp_Chiralities_Consistent>  (289) 
1

>  <s_lp_Variant>  (289) 
85:0-1

>  <s_i_glide_gridfile>  (289) 
pfpi4k_grid

>  <i_i_glide_lignum>  (289) 
36

>  <i_i_glide_rotatable_bonds>  (289) 
2

>  <r_i_docking_score>  (289) 
-3.66835

>  <r_i_glide_ligand_efficiency>  (289) 
-0.282181

>  <r_i_glide_ligand_efficiency_sa>  (289) 
-0.663501

>  <r_i_glide_ligand_efficiency_ln>  (289) 
-1.029

>  <r_i_glide_gscore>  (289) 
-3.66835

>  <r_i_glide_lipo>  (289) 
-0.166183

>  <r_i_glide_hbond>  (289) 
0

>  <r_i_glide_metal>  (289) 
-0

>  <r_i_glide_rewards>  (289) 
-2.29525

>  <r_i_glide_evdw>  (289) 
-20.3967

>  <r_i_glide_ecoul>  (289) 
-0.961328

>  <r_i_glide_erotb>  (289) 
0

>  <r_i_glide_esite>  (289) 
-0.0428799

>  <r_i_glide_emodel>  (289) 
-25.7742

>  <r_i_glide_energy>  (289) 
-21.3581

>  <r_i_glide_einternal>  (289) 
3.19044

>  <r_i_glide_intrahb_reward>  (289) 
-0

>  <i_i_glide_confnum>  (289) 
2

>  <i_i_glide_posenum>  (289) 
39

>  <r_i_glide_eff_state_penalty>  (289) 
0

>  <ligand_id>  (289) 
85

>  <original_smiles>  (289) 
OCC1OC2OC1Cc1nnnn12

>  <smiles>  (289) 
[H]OC([H])([H])C1([H])OC2([H])OC1([H])C([H])([H])c1nnnn12

$$$$
87:0:0
     RDKit          3D

 56 62  0  0  1  0  0  0  0  0999 V2000
    7.1332   -6.2513    2.4209 C   0  0  0  0  0  0  0  0  0  0  0  0
    6.1112   -5.4376    1.5826 C   0  0  2  0  0  0  0  0  0  0  0  0
    6.8558   -4.1234    1.0976 C   0  0  0  0  0  0  0  0  0  0  0  0
    6.1530   -2.7333    0.9458 C   0  0  2  0  0  0  0  0  0  0  0  0
    5.7512   -2.1003    2.2078 C   0  0  0  0  0  0  0  0  0  0  0  0
    5.0490   -2.7034    3.1763 C   0  0  0  0  0  0  0  0  0  0  0  0
    4.7769   -4.1950    3.3255 C   0  0  1  0  0  0  0  0  0  0  0  0
    3.9264   -4.5781    4.4001 O   0  0  0  0  0  0  0  0  0  0  0  0
    4.0923   -5.9819    4.5777 C   0  0  1  0  0  0  0  0  0  0  0  0
    5.2101   -6.3029    5.5656 C   0  0  0  0  0  0  0  0  0  0  0  0
    2.7846   -6.7451    4.7963 C   0  0  1  0  0  0  0  0  0  0  0  0
    1.5822   -5.9603    5.2514 C   0  0  0  0  0  0  0  0  0  0  0  0
    1.2122   -5.6701    6.3892 O   0  0  0  0  0  0  0  0  0  0  0  0
    0.8642   -5.6120    4.0472 C   0  0  0  0  0  0  0  0  0  0  0  0
    1.4674   -6.1637    2.9844 C   0  0  0  0  0  0  0  0  0  0  0  0
    2.6867   -7.0150    3.2935 C   0  0  2  0  0  0  0  0  0  0  0  0
    2.4148   -8.4641    2.8728 C   0  0  0  0  0  0  0  0  0  0  0  0
    4.1517   -6.4387    3.1083 C   0  0  1  0  0  0  0  0  0  0  0  0
    4.6547   -5.2643    2.1811 C   0  0  2  0  0  0  0  0  0  0  0  0
    3.6525   -5.0378    0.9502 C   0  0  2  0  0  0  0  0  0  0  0  0
    3.1573   -6.2541    0.4737 O   0  0  0  0  0  0  0  0  0  0  0  0
    4.2913   -4.3633   -0.2503 C   0  0  0  0  0  0  0  0  0  0  0  0
    4.0267   -3.0772   -0.1840 C   0  0  0  0  0  0  0  0  0  0  0  0
    2.8524   -2.9041    0.7488 C   0  0  0  0  0  0  0  0  0  0  0  0
    2.6239   -4.1721    1.3469 O   0  0  0  0  0  0  0  0  0  0  0  0
    5.1363   -2.1040   -0.0709 C   0  0  1  0  0  0  0  0  0  0  0  0
    4.6435   -0.6529   -0.0830 C   0  0  0  0  0  0  0  0  0  0  0  0
    6.6072   -2.1271   -0.3507 C   0  0  0  0  0  0  0  0  0  0  0  0
    7.3834   -5.7738    3.3694 H   0  0  0  0  0  0  0  0  0  0  0  0
    8.0753   -6.3507    1.8777 H   0  0  0  0  0  0  0  0  0  0  0  0
    6.8131   -7.2713    2.6285 H   0  0  0  0  0  0  0  0  0  0  0  0
    5.9983   -6.0874    0.7142 H   0  0  0  0  0  0  0  0  0  0  0  0
    7.7365   -3.9510    1.7054 H   0  0  0  0  0  0  0  0  0  0  0  0
    7.3026   -4.3914    0.1404 H   0  0  0  0  0  0  0  0  0  0  0  0
    5.9574   -1.0442    2.3097 H   0  0  0  0  0  0  0  0  0  0  0  0
    4.7531   -2.1267    4.0407 H   0  0  0  0  0  0  0  0  0  0  0  0
    5.7483   -4.3962    3.7715 H   0  0  0  0  0  0  0  0  0  0  0  0
    5.3577   -7.3766    5.6336 H   0  0  0  0  0  0  0  0  0  0  0  0
    4.9517   -5.9472    6.5595 H   0  0  0  0  0  0  0  0  0  0  0  0
    6.1641   -5.8658    5.2947 H   0  0  0  0  0  0  0  0  0  0  0  0
    2.9442   -7.6633    5.3319 H   0  0  0  0  0  0  0  0  0  0  0  0
   -0.0409   -4.9939    4.0546 H   0  0  0  0  0  0  0  0  0  0  0  0
    1.0679   -6.0460    1.9870 H   0  0  0  0  0  0  0  0  0  0  0  0
    3.1887   -9.1211    3.2517 H   0  0  0  0  0  0  0  0  0  0  0  0
    2.3904   -8.5782    1.7915 H   0  0  0  0  0  0  0  0  0  0  0  0
    1.4697   -8.8278    3.2710 H   0  0  0  0  0  0  0  0  0  0  0  0
    4.7563   -7.3270    3.0268 H   0  0  0  0  0  0  0  0  0  0  0  0
    3.0162   -6.1542   -0.4625 H   0  0  0  0  0  0  0  0  0  0  0  0
    5.1652   -4.7783   -0.7269 H   0  0  0  0  0  0  0  0  0  0  0  0
    2.9953   -2.1712    1.5371 H   0  0  0  0  0  0  0  0  0  0  0  0
    1.9831   -2.6450    0.1543 H   0  0  0  0  0  0  0  0  0  0  0  0
    5.4559    0.0527    0.0872 H   0  0  0  0  0  0  0  0  0  0  0  0
    3.9131   -0.4588    0.6978 H   0  0  0  0  0  0  0  0  0  0  0  0
    4.1970   -0.4176   -1.0481 H   0  0  0  0  0  0  0  0  0  0  0  0
    7.1877   -1.2113   -0.2407 H   0  0  0  0  0  0  0  0  0  0  0  0
    6.9210   -2.7558   -1.1843 H   0  0  0  0  0  0  0  0  0  0  0  0
  1  2  1  0
  1 29  1  0
  1 30  1  0
  1 31  1  0
  2 19  1  0
  2  3  1  0
  2 32  1  6
  3  4  1  0
  3 33  1  0
  3 34  1  0
  4 26  1  0
  4 28  1  6
  4  5  1  0
  5  6  2  0
  5 35  1  0
  6  7  1  0
  6 36  1  0
  7 19  1  0
  7  8  1  0
  7 37  1  1
  8  9  1  0
  9 18  1  0
  9 10  1  1
  9 11  1  0
 10 38  1  0
 10 39  1  0
 10 40  1  0
 11 16  1  0
 11 12  1  0
 11 41  1  1
 12 13  2  0
 12 14  1  0
 14 15  2  0
 14 42  1  0
 15 16  1  0
 15 43  1  0
 16 17  1  1
 16 18  1  0
 17 44  1  0
 17 45  1  0
 17 46  1  0
 18 19  1  0
 18 47  1  1
 19 20  1  6
 20 25  1  0
 20 21  1  6
 20 22  1  0
 21 48  1  0
 22 23  2  0
 22 49  1  0
 23 24  1  0
 23 26  1  0
 24 25  1  0
 24 50  1  0
 24 51  1  0
 26 27  1  1
 26 28  1  0
 27 52  1  0
 27 53  1  0
 27 54  1  0
 28 55  1  0
 28 56  1  0
M  END
>  <i_m_ct_stereo_status>  (290) 
1

>  <s_m_source_file>  (290) 
/var/tmp/pbs.5076255.sched01/tmp4185l44a/86vs10_z9v.sdf

>  <i_m_source_file_index>  (290) 
39

>  <i_lp_mmshare_version>  (290) 
48012

>  <i_f3d_flags>  (290) 
0

>  <s_epik_input>  (290) 
W0NAQF0xMjNbQ0BAXShbQ0gzXSkoW0NIMl0zKUM0PVtDSF1bQ0BdKFtPSF0pKE9bQ0gyXTQpW0NAQF01KFtDQEhdKFtDSDNdKVtDSDJdMSlbQ0BASF0oW0NIXT1bQ0hdMilPW0NAQF02KFtDSDNdKVtDQEBIXTdbQ0BdKFtDSDNdKShbQ0BASF01NilbQ0hdPVtDSF1DNz1P

>  <s_epik_cmdline>  (290) 
J2VwaWtfcHl0aG9uJywgJy1waHQnLCAnMi4wJywgJy1waCcsICc3LjAnLCAnLXRuJywgJzgnLCAnLW1hJywgJzIwMCcsICctaW1hZScsICc8aW5maWxlLm1hZT4nLCAnLW9tYWUnLCAnPG91dGZpbGUubWFlPic=

>  <r_lp_tautomer_probability>  (290) 
1

>  <r_epik_Ionization_Penalty>  (290) 
4.18782e-06

>  <r_epik_Ionization_Penalty_Charging>  (290) 
0

>  <r_epik_Ionization_Penalty_Neutral>  (290) 
4.18782e-06

>  <r_epik_State_Penalty>  (290) 
-0

>  <r_epik_Charging_Adjusted_Penalty>  (290) 
0

>  <i_epik_Tot_Q>  (290) 
0

>  <i_epik_Tot_abs_Q>  (290) 
0

>  <s_lp_Force_Field>  (290) 
OPLS3e

>  <r_lp_Energy>  (290) 
132.158

>  <b_lp_Chiralities_Consistent>  (290) 
1

>  <s_lp_Variant>  (290) 
87:0-1

>  <s_i_glide_gridfile>  (290) 
pfpi4k_grid

>  <i_i_glide_lignum>  (290) 
39

>  <i_i_glide_rotatable_bonds>  (290) 
1

>  <r_i_docking_score>  (290) 
-2.52364

>  <r_i_glide_ligand_efficiency>  (290) 
-0.0901301

>  <r_i_glide_ligand_efficiency_sa>  (290) 
-0.273688

>  <r_i_glide_ligand_efficiency_ln>  (290) 
-0.582531

>  <r_i_glide_gscore>  (290) 
-2.52364

>  <r_i_glide_lipo>  (290) 
-0.43631

>  <r_i_glide_hbond>  (290) 
0

>  <r_i_glide_metal>  (290) 
-0

>  <r_i_glide_rewards>  (290) 
-0.817121

>  <r_i_glide_evdw>  (290) 
-17.5604

>  <r_i_glide_ecoul>  (290) 
-2.61045

>  <r_i_glide_erotb>  (290) 
0

>  <r_i_glide_esite>  (290) 
-0.000624201

>  <r_i_glide_emodel>  (290) 
-23.4223

>  <r_i_glide_energy>  (290) 
-20.1709

>  <r_i_glide_einternal>  (290) 
0.426227

>  <r_i_glide_intrahb_reward>  (290) 
-0

>  <i_i_glide_confnum>  (290) 
1

>  <i_i_glide_posenum>  (290) 
5

>  <r_i_glide_eff_state_penalty>  (290) 
0

>  <ligand_id>  (290) 
87

>  <original_smiles>  (290) 
CC1CC23C=CC4OC5(C)C6C(=O)C=CC6(C)C5C14C1(O)C=C(CO1)C2(C)C3

>  <smiles>  (290) 
[H]OC12OC([H])([H])C(=C1[H])C1(C([H])([H])[H])C([H])([H])C13C([H])=C([H])C1([H])OC4(C([H])([H])[H])C5([H])C(=O)C([H])=C([H])C5(C([H])([H])[H])C4([H])C12C([H])(C([H])([H])[H])C3([H])[H]

$$$$
87:0:1
     RDKit          3D

 56 62  0  0  1  0  0  0  0  0999 V2000
    5.4241   -5.5340    4.7291 C   0  0  0  0  0  0  0  0  0  0  0  0
    5.0372   -5.3046    3.2424 C   0  0  2  0  0  0  0  0  0  0  0  0
    5.5196   -3.8477    2.8614 C   0  0  0  0  0  0  0  0  0  0  0  0
    4.7588   -2.8973    1.8756 C   0  0  2  0  0  0  0  0  0  0  0  0
    3.4825   -2.3784    2.3909 C   0  0  0  0  0  0  0  0  0  0  0  0
    2.5166   -3.1439    2.9214 C   0  0  0  0  0  0  0  0  0  0  0  0
    2.6214   -4.5977    3.3657 C   0  0  1  0  0  0  0  0  0  0  0  0
    1.4112   -5.2029    3.8060 O   0  0  0  0  0  0  0  0  0  0  0  0
    1.7921   -6.3888    4.5193 C   0  0  1  0  0  0  0  0  0  0  0  0
    2.0162   -6.1170    6.0021 C   0  0  0  0  0  0  0  0  0  0  0  0
    0.9316   -7.6096    4.1959 C   0  0  1  0  0  0  0  0  0  0  0  0
   -0.4190   -7.3741    3.5883 C   0  0  0  0  0  0  0  0  0  0  0  0
   -1.5027   -7.1193    4.1243 O   0  0  0  0  0  0  0  0  0  0  0  0
   -0.2307   -7.4697    2.1506 C   0  0  0  0  0  0  0  0  0  0  0  0
    1.0404   -7.7943    1.8916 C   0  0  0  0  0  0  0  0  0  0  0  0
    1.9252   -8.0272    3.1086 C   0  0  2  0  0  0  0  0  0  0  0  0
    2.3931   -9.4823    3.1293 C   0  0  0  0  0  0  0  0  0  0  0  0
    2.9207   -6.9077    3.6079 C   0  0  1  0  0  0  0  0  0  0  0  0
    3.5747   -5.7210    2.8049 C   0  0  2  0  0  0  0  0  0  0  0  0
    3.6163   -6.0478    1.2217 C   0  0  2  0  0  0  0  0  0  0  0  0
    3.9185   -7.4099    1.0026 O   0  0  0  0  0  0  0  0  0  0  0  0
    4.6706   -5.2789    0.4643 C   0  0  0  0  0  0  0  0  0  0  0  0
    4.0980   -4.2164   -0.0538 C   0  0  0  0  0  0  0  0  0  0  0  0
    2.6139   -4.4725   -0.0983 C   0  0  0  0  0  0  0  0  0  0  0  0
    2.3966   -5.6612    0.6553 O   0  0  0  0  0  0  0  0  0  0  0  0
    4.5538   -2.8495    0.3124 C   0  0  1  0  0  0  0  0  0  0  0  0
    3.8219   -1.7530   -0.4676 C   0  0  0  0  0  0  0  0  0  0  0  0
    5.7779   -2.2744    0.9532 C   0  0  0  0  0  0  0  0  0  0  0  0
    4.8507   -4.9133    5.4161 H   0  0  0  0  0  0  0  0  0  0  0  0
    6.4711   -5.2702    4.8863 H   0  0  0  0  0  0  0  0  0  0  0  0
    5.3355   -6.5705    5.0464 H   0  0  0  0  0  0  0  0  0  0  0  0
    5.7038   -6.0107    2.7465 H   0  0  0  0  0  0  0  0  0  0  0  0
    5.6675   -3.2659    3.7722 H   0  0  0  0  0  0  0  0  0  0  0  0
    6.5306   -3.9852    2.4817 H   0  0  0  0  0  0  0  0  0  0  0  0
    3.2773   -1.3358    2.2132 H   0  0  0  0  0  0  0  0  0  0  0  0
    1.5877   -2.6722    3.1958 H   0  0  0  0  0  0  0  0  0  0  0  0
    3.0647   -4.3346    4.3233 H   0  0  0  0  0  0  0  0  0  0  0  0
    2.3643   -7.0198    6.5057 H   0  0  0  0  0  0  0  0  0  0  0  0
    1.0867   -5.8193    6.4834 H   0  0  0  0  0  0  0  0  0  0  0  0
    2.7524   -5.3434    6.1975 H   0  0  0  0  0  0  0  0  0  0  0  0
    0.9355   -8.3323    5.0116 H   0  0  0  0  0  0  0  0  0  0  0  0
   -1.0103   -7.3289    1.4250 H   0  0  0  0  0  0  0  0  0  0  0  0
    1.3660   -7.9615    0.8757 H   0  0  0  0  0  0  0  0  0  0  0  0
    2.8636   -9.7203    4.0813 H   0  0  0  0  0  0  0  0  0  0  0  0
    3.1156   -9.7056    2.3452 H   0  0  0  0  0  0  0  0  0  0  0  0
    1.5587  -10.1741    3.0144 H   0  0  0  0  0  0  0  0  0  0  0  0
    3.6490   -7.4544    4.2022 H   0  0  0  0  0  0  0  0  0  0  0  0
    3.3431   -7.9113    1.5535 H   0  0  0  0  0  0  0  0  0  0  0  0
    5.7094   -5.3185    0.7506 H   0  0  0  0  0  0  0  0  0  0  0  0
    2.0203   -3.6765    0.3417 H   0  0  0  0  0  0  0  0  0  0  0  0
    2.2900   -4.6081   -1.1221 H   0  0  0  0  0  0  0  0  0  0  0  0
    4.0967   -0.7528   -0.1305 H   0  0  0  0  0  0  0  0  0  0  0  0
    2.7448   -1.8242   -0.3473 H   0  0  0  0  0  0  0  0  0  0  0  0
    4.0544   -1.8232   -1.5312 H   0  0  0  0  0  0  0  0  0  0  0  0
    5.8813   -1.1900    1.0329 H   0  0  0  0  0  0  0  0  0  0  0  0
    6.7104   -2.7835    0.7238 H   0  0  0  0  0  0  0  0  0  0  0  0
  1  2  1  0
  1 29  1  0
  1 30  1  0
  1 31  1  0
  2 19  1  0
  2  3  1  0
  2 32  1  6
  3  4  1  0
  3 33  1  0
  3 34  1  0
  4 26  1  0
  4 28  1  6
  4  5  1  0
  5  6  2  0
  5 35  1  0
  6  7  1  0
  6 36  1  0
  7 19  1  0
  7  8  1  0
  7 37  1  1
  8  9  1  0
  9 18  1  0
  9 10  1  1
  9 11  1  0
 10 38  1  0
 10 39  1  0
 10 40  1  0
 11 16  1  0
 11 12  1  0
 11 41  1  1
 12 13  2  0
 12 14  1  0
 14 15  2  0
 14 42  1  0
 15 16  1  0
 15 43  1  0
 16 17  1  1
 16 18  1  0
 17 44  1  0
 17 45  1  0
 17 46  1  0
 18 19  1  0
 18 47  1  1
 19 20  1  6
 20 25  1  0
 20 21  1  1
 20 22  1  0
 21 48  1  0
 22 23  2  0
 22 49  1  0
 23 24  1  0
 23 26  1  0
 24 25  1  0
 24 50  1  0
 24 51  1  0
 26 27  1  1
 26 28  1  0
 27 52  1  0
 27 53  1  0
 27 54  1  0
 28 55  1  0
 28 56  1  0
M  END
>  <i_m_ct_stereo_status>  (291) 
1

>  <s_m_source_file>  (291) 
/var/tmp/pbs.5076255.sched01/tmp4185l44a/86vs10_z9v.sdf

>  <i_m_source_file_index>  (291) 
39

>  <i_lp_mmshare_version>  (291) 
48012

>  <i_f3d_flags>  (291) 
0

>  <s_epik_input>  (291) 
W0NAQF0xMjNbQ0BAXShbQ0gzXSkoW0NIMl0zKUM0PVtDSF1bQ0BdKFtPSF0pKE9bQ0gyXTQpW0NAQF01KFtDQEhdKFtDSDNdKVtDSDJdMSlbQ0BASF0oW0NIXT1bQ0hdMilPW0NAQF02KFtDSDNdKVtDQEBIXTdbQ0BdKFtDSDNdKShbQ0BASF01NilbQ0hdPVtDSF1DNz1P

>  <s_epik_cmdline>  (291) 
J2VwaWtfcHl0aG9uJywgJy1waHQnLCAnMi4wJywgJy1waCcsICc3LjAnLCAnLXRuJywgJzgnLCAnLW1hJywgJzIwMCcsICctaW1hZScsICc8aW5maWxlLm1hZT4nLCAnLW9tYWUnLCAnPG91dGZpbGUubWFlPic=

>  <r_lp_tautomer_probability>  (291) 
1

>  <r_epik_Ionization_Penalty>  (291) 
4.18782e-06

>  <r_epik_Ionization_Penalty_Charging>  (291) 
0

>  <r_epik_Ionization_Penalty_Neutral>  (291) 
4.18782e-06

>  <r_epik_State_Penalty>  (291) 
-0

>  <r_epik_Charging_Adjusted_Penalty>  (291) 
0

>  <i_epik_Tot_Q>  (291) 
0

>  <i_epik_Tot_abs_Q>  (291) 
0

>  <s_lp_Force_Field>  (291) 
OPLS3e

>  <r_lp_Energy>  (291) 
132.158

>  <b_lp_Chiralities_Consistent>  (291) 
1

>  <s_lp_Variant>  (291) 
87:0-1

>  <s_i_glide_gridfile>  (291) 
pfpi4k_grid

>  <i_i_glide_lignum>  (291) 
39

>  <i_i_glide_rotatable_bonds>  (291) 
1

>  <r_i_docking_score>  (291) 
-2.50996

>  <r_i_glide_ligand_efficiency>  (291) 
-0.0896415

>  <r_i_glide_ligand_efficiency_sa>  (291) 
-0.272204

>  <r_i_glide_ligand_efficiency_ln>  (291) 
-0.579373

>  <r_i_glide_gscore>  (291) 
-2.50996

>  <r_i_glide_lipo>  (291) 
-0.213798

>  <r_i_glide_hbond>  (291) 
0

>  <r_i_glide_metal>  (291) 
-0

>  <r_i_glide_rewards>  (291) 
-0.872842

>  <r_i_glide_evdw>  (291) 
-21.6363

>  <r_i_glide_ecoul>  (291) 
-1.92725

>  <r_i_glide_erotb>  (291) 
0

>  <r_i_glide_esite>  (291) 
-0.0524205

>  <r_i_glide_emodel>  (291) 
-27.1825

>  <r_i_glide_energy>  (291) 
-23.5636

>  <r_i_glide_einternal>  (291) 
0.0506881

>  <r_i_glide_intrahb_reward>  (291) 
-0

>  <i_i_glide_confnum>  (291) 
1

>  <i_i_glide_posenum>  (291) 
37

>  <r_i_glide_eff_state_penalty>  (291) 
0

>  <ligand_id>  (291) 
87

>  <original_smiles>  (291) 
CC1CC23C=CC4OC5(C)C6C(=O)C=CC6(C)C5C14C1(O)C=C(CO1)C2(C)C3

>  <smiles>  (291) 
[H]OC12OC([H])([H])C(=C1[H])C1(C([H])([H])[H])C([H])([H])C13C([H])=C([H])C1([H])OC4(C([H])([H])[H])C5([H])C(=O)C([H])=C([H])C5(C([H])([H])[H])C4([H])C12C([H])(C([H])([H])[H])C3([H])[H]

$$$$
87:0:2
     RDKit          3D

 56 62  0  0  1  0  0  0  0  0999 V2000
    7.1032   -6.1351    2.7616 C   0  0  0  0  0  0  0  0  0  0  0  0
    6.0894   -5.5153    1.7645 C   0  0  2  0  0  0  0  0  0  0  0  0
    6.8573   -4.3699    0.9882 C   0  0  0  0  0  0  0  0  0  0  0  0
    6.1767   -3.0405    0.5104 C   0  0  2  0  0  0  0  0  0  0  0  0
    5.8221   -2.1162    1.5839 C   0  0  0  0  0  0  0  0  0  0  0  0
    5.1148   -2.4610    2.6810 C   0  0  0  0  0  0  0  0  0  0  0  0
    4.8048   -3.8628    3.1703 C   0  0  1  0  0  0  0  0  0  0  0  0
    3.9738   -3.9503    4.3237 O   0  0  0  0  0  0  0  0  0  0  0  0
    4.1179   -5.2797    4.8281 C   0  0  1  0  0  0  0  0  0  0  0  0
    5.2377   -5.3799    5.8517 C   0  0  0  0  0  0  0  0  0  0  0  0
    2.7952   -5.9250    5.2268 C   0  0  1  0  0  0  0  0  0  0  0  0
    1.6155   -5.0338    5.5054 C   0  0  0  0  0  0  0  0  0  0  0  0
    1.2524   -4.4706    6.5348 O   0  0  0  0  0  0  0  0  0  0  0  0
    0.8852   -4.9664    4.2540 C   0  0  0  0  0  0  0  0  0  0  0  0
    1.4511   -5.7667    3.3585 C   0  0  0  0  0  0  0  0  0  0  0  0
    2.6624   -6.5565    3.8402 C   0  0  2  0  0  0  0  0  0  0  0  0
    2.3482   -8.0517    3.7817 C   0  0  0  0  0  0  0  0  0  0  0  0
    4.1295   -6.0727    3.5103 C   0  0  1  0  0  0  0  0  0  0  0  0
    4.6439   -5.1772    2.3236 C   0  0  2  0  0  0  0  0  0  0  0  0
    3.6256   -5.2182    1.0736 C   0  0  2  0  0  0  0  0  0  0  0  0
    3.1078   -6.5267    0.9141 O   0  0  0  0  0  0  0  0  0  0  0  0
    4.2649   -4.8666   -0.2410 C   0  0  0  0  0  0  0  0  0  0  0  0
    4.0238   -3.5873   -0.4846 C   0  0  0  0  0  0  0  0  0  0  0  0
    2.8709   -3.1752    0.3886 C   0  0  0  0  0  0  0  0  0  0  0  0
    2.6255   -4.2645    1.2728 O   0  0  0  0  0  0  0  0  0  0  0  0
    5.1517   -2.6485   -0.6316 C   0  0  1  0  0  0  0  0  0  0  0  0
    4.6920   -1.2288   -0.9790 C   0  0  0  0  0  0  0  0  0  0  0  0
    6.6152   -2.7763   -0.9081 C   0  0  0  0  0  0  0  0  0  0  0  0
    7.3793   -5.4595    3.5675 H   0  0  0  0  0  0  0  0  0  0  0  0
    8.0337   -6.3810    2.2478 H   0  0  0  0  0  0  0  0  0  0  0  0
    6.7634   -7.0651    3.2090 H   0  0  0  0  0  0  0  0  0  0  0  0
    5.9459   -6.3451    1.0732 H   0  0  0  0  0  0  0  0  0  0  0  0
    7.7365   -4.0675    1.5615 H   0  0  0  0  0  0  0  0  0  0  0  0
    7.2916   -4.8584    0.1213 H   0  0  0  0  0  0  0  0  0  0  0  0
    6.0585   -1.0825    1.4221 H   0  0  0  0  0  0  0  0  0  0  0  0
    4.8559   -1.6907    3.3760 H   0  0  0  0  0  0  0  0  0  0  0  0
    5.7775   -3.9779    3.6405 H   0  0  0  0  0  0  0  0  0  0  0  0
    5.3650   -6.4136    6.1764 H   0  0  0  0  0  0  0  0  0  0  0  0
    5.0016   -4.7873    6.7363 H   0  0  0  0  0  0  0  0  0  0  0  0
    6.1996   -5.0462    5.4728 H   0  0  0  0  0  0  0  0  0  0  0  0
    2.9463   -6.7058    5.9676 H   0  0  0  0  0  0  0  0  0  0  0  0
    0.0158   -4.3524    4.1146 H   0  0  0  0  0  0  0  0  0  0  0  0
    1.0187   -5.8723    2.3765 H   0  0  0  0  0  0  0  0  0  0  0  0
    3.1127   -8.6248    4.3038 H   0  0  0  0  0  0  0  0  0  0  0  0
    2.2959   -8.4388    2.7626 H   0  0  0  0  0  0  0  0  0  0  0  0
    1.4018   -8.2850    4.2732 H   0  0  0  0  0  0  0  0  0  0  0  0
    4.7194   -6.9717    3.6442 H   0  0  0  0  0  0  0  0  0  0  0  0
    2.8788   -6.8440    1.7688 H   0  0  0  0  0  0  0  0  0  0  0  0
    5.1312   -5.3812   -0.6147 H   0  0  0  0  0  0  0  0  0  0  0  0
    3.0528   -2.2761    0.9811 H   0  0  0  0  0  0  0  0  0  0  0  0
    2.0069   -3.0166   -0.2474 H   0  0  0  0  0  0  0  0  0  0  0  0
    5.5242   -0.5288   -1.0037 H   0  0  0  0  0  0  0  0  0  0  0  0
    3.9870   -0.8363   -0.2515 H   0  0  0  0  0  0  0  0  0  0  0  0
    4.2163   -1.2253   -1.9590 H   0  0  0  0  0  0  0  0  0  0  0  0
    7.2169   -1.8782   -1.0341 H   0  0  0  0  0  0  0  0  0  0  0  0
    6.8907   -3.5952   -1.5663 H   0  0  0  0  0  0  0  0  0  0  0  0
  1  2  1  0
  1 29  1  0
  1 30  1  0
  1 31  1  0
  2 19  1  0
  2  3  1  0
  2 32  1  6
  3  4  1  0
  3 33  1  0
  3 34  1  0
  4 26  1  0
  4 28  1  6
  4  5  1  0
  5  6  2  0
  5 35  1  0
  6  7  1  0
  6 36  1  0
  7 19  1  0
  7  8  1  0
  7 37  1  1
  8  9  1  0
  9 18  1  0
  9 10  1  1
  9 11  1  0
 10 38  1  0
 10 39  1  0
 10 40  1  0
 11 16  1  0
 11 12  1  0
 11 41  1  1
 12 13  2  0
 12 14  1  0
 14 15  2  0
 14 42  1  0
 15 16  1  0
 15 43  1  0
 16 17  1  1
 16 18  1  0
 17 44  1  0
 17 45  1  0
 17 46  1  0
 18 19  1  0
 18 47  1  1
 19 20  1  6
 20 25  1  0
 20 21  1  6
 20 22  1  0
 21 48  1  0
 22 23  2  0
 22 49  1  0
 23 24  1  0
 23 26  1  0
 24 25  1  0
 24 50  1  0
 24 51  1  0
 26 27  1  1
 26 28  1  0
 27 52  1  0
 27 53  1  0
 27 54  1  0
 28 55  1  0
 28 56  1  0
M  END
>  <i_m_ct_stereo_status>  (292) 
1

>  <s_m_source_file>  (292) 
/var/tmp/pbs.5076255.sched01/tmp4185l44a/86vs10_z9v.sdf

>  <i_m_source_file_index>  (292) 
39

>  <i_lp_mmshare_version>  (292) 
48012

>  <i_f3d_flags>  (292) 
0

>  <s_epik_input>  (292) 
W0NAQF0xMjNbQ0BAXShbQ0gzXSkoW0NIMl0zKUM0PVtDSF1bQ0BdKFtPSF0pKE9bQ0gyXTQpW0NAQF01KFtDQEhdKFtDSDNdKVtDSDJdMSlbQ0BASF0oW0NIXT1bQ0hdMilPW0NAQF02KFtDSDNdKVtDQEBIXTdbQ0BdKFtDSDNdKShbQ0BASF01NilbQ0hdPVtDSF1DNz1P

>  <s_epik_cmdline>  (292) 
J2VwaWtfcHl0aG9uJywgJy1waHQnLCAnMi4wJywgJy1waCcsICc3LjAnLCAnLXRuJywgJzgnLCAnLW1hJywgJzIwMCcsICctaW1hZScsICc8aW5maWxlLm1hZT4nLCAnLW9tYWUnLCAnPG91dGZpbGUubWFlPic=

>  <r_lp_tautomer_probability>  (292) 
1

>  <r_epik_Ionization_Penalty>  (292) 
4.18782e-06

>  <r_epik_Ionization_Penalty_Charging>  (292) 
0

>  <r_epik_Ionization_Penalty_Neutral>  (292) 
4.18782e-06

>  <r_epik_State_Penalty>  (292) 
-0

>  <r_epik_Charging_Adjusted_Penalty>  (292) 
0

>  <i_epik_Tot_Q>  (292) 
0

>  <i_epik_Tot_abs_Q>  (292) 
0

>  <s_lp_Force_Field>  (292) 
OPLS3e

>  <r_lp_Energy>  (292) 
132.158

>  <b_lp_Chiralities_Consistent>  (292) 
1

>  <s_lp_Variant>  (292) 
87:0-1

>  <s_i_glide_gridfile>  (292) 
pfpi4k_grid

>  <i_i_glide_lignum>  (292) 
39

>  <i_i_glide_rotatable_bonds>  (292) 
1

>  <r_i_docking_score>  (292) 
-2.28135

>  <r_i_glide_ligand_efficiency>  (292) 
-0.0814768

>  <r_i_glide_ligand_efficiency_sa>  (292) 
-0.247412

>  <r_i_glide_ligand_efficiency_ln>  (292) 
-0.526603

>  <r_i_glide_gscore>  (292) 
-2.28135

>  <r_i_glide_lipo>  (292) 
-0.480754

>  <r_i_glide_hbond>  (292) 
0

>  <r_i_glide_metal>  (292) 
-0

>  <r_i_glide_rewards>  (292) 
-0.819536

>  <r_i_glide_evdw>  (292) 
-18.1697

>  <r_i_glide_ecoul>  (292) 
-0.483859

>  <r_i_glide_erotb>  (292) 
0

>  <r_i_glide_esite>  (292) 
0

>  <r_i_glide_emodel>  (292) 
-21.7757

>  <r_i_glide_energy>  (292) 
-18.6535

>  <r_i_glide_einternal>  (292) 
0.107821

>  <r_i_glide_intrahb_reward>  (292) 
-0

>  <i_i_glide_confnum>  (292) 
2

>  <i_i_glide_posenum>  (292) 
31

>  <r_i_glide_eff_state_penalty>  (292) 
0

>  <ligand_id>  (292) 
87

>  <original_smiles>  (292) 
CC1CC23C=CC4OC5(C)C6C(=O)C=CC6(C)C5C14C1(O)C=C(CO1)C2(C)C3

>  <smiles>  (292) 
[H]OC12OC([H])([H])C(=C1[H])C1(C([H])([H])[H])C([H])([H])C13C([H])=C([H])C1([H])OC4(C([H])([H])[H])C5([H])C(=O)C([H])=C([H])C5(C([H])([H])[H])C4([H])C12C([H])(C([H])([H])[H])C3([H])[H]

$$$$
88:0:0
     RDKit          3D

 73 78  0  0  1  0  0  0  0  0999 V2000
    3.9760   -8.7852    6.7355 C   0  0  0  0  0  0  0  0  0  0  0  0
    4.9961   -9.2654    5.6643 C   0  0  0  0  0  0  0  0  0  0  0  0
    6.3169   -9.5613    6.4424 C   0  0  0  0  0  0  0  0  0  0  0  0
    4.4385  -10.6042    5.0942 C   0  0  0  0  0  0  0  0  0  0  0  0
    4.4616  -11.6319    5.8576 N   0  0  0  0  0  0  0  0  0  0  0  0
    3.8077  -12.7536    5.2417 O   0  0  0  0  0  0  0  0  0  0  0  0
    3.8193  -10.6070    3.6848 C   0  0  1  0  0  0  0  0  0  0  0  0
    2.3000  -10.4977    3.6853 N   0  0  0  0  0  0  0  0  0  0  0  0
    1.5545  -10.2030    2.5722 C   0  0  0  0  0  0  0  0  0  0  0  0
    0.2453  -10.2025    2.9695 C   0  0  0  0  0  0  0  0  0  0  0  0
    0.2409  -10.5707    4.2694 N   0  0  0  0  0  0  0  0  0  0  0  0
    1.4858  -10.7784    4.6963 C   0  0  0  0  0  0  0  0  0  0  0  0
    4.5335   -9.6083    2.7416 C   0  0  0  0  0  0  0  0  0  0  0  0
    4.6169   -8.1231    3.2214 C   0  0  1  0  0  0  0  0  0  0  0  0
    3.1684   -7.5870    3.4116 C   0  0  0  0  0  0  0  0  0  0  0  0
    5.3747   -8.1515    4.5883 C   0  0  1  0  0  0  0  0  0  0  0  0
    5.5211   -6.7291    5.1959 C   0  0  0  0  0  0  0  0  0  0  0  0
    5.5043   -5.5621    4.1956 C   0  0  0  0  0  0  0  0  0  0  0  0
    6.0796   -5.9302    2.8249 C   0  0  2  0  0  0  0  0  0  0  0  0
    6.2709   -4.6460    1.9415 C   0  0  1  0  0  0  0  0  0  0  0  0
    7.6564   -4.5701    1.2631 C   0  0  0  0  0  0  0  0  0  0  0  0
    7.5589   -3.3921   -0.1057 S   0  0  0  0  0  0  0  0  0  0  0  0
    5.7608   -3.2179   -0.0406 C   0  0  0  0  0  0  0  0  0  0  0  0
    5.1610   -3.3020   -1.2901 O   0  0  0  0  0  0  0  0  0  0  0  0
    4.7998   -2.0008   -1.6758 C   0  0  0  0  0  0  0  0  0  0  0  0
    4.4778   -1.3676   -0.3347 C   0  0  0  0  0  0  0  0  0  0  0  0
    5.4252   -1.9724    0.5213 O   0  0  0  0  0  0  0  0  0  0  0  0
    5.1837   -4.3643    0.8953 C   0  0  2  0  0  0  0  0  0  0  0  0
    3.8527   -3.9151    1.5196 C   0  0  0  0  0  0  0  0  0  0  0  0
    4.9900   -5.6535    0.0674 C   0  0  0  0  0  0  0  0  0  0  0  0
    4.5153   -6.8336    0.9332 C   0  0  0  0  0  0  0  0  0  0  0  0
    5.4288   -7.2117    2.1540 C   0  0  2  0  0  0  0  0  0  0  0  0
    6.6165   -8.0153    1.5520 C   0  0  0  0  0  0  0  0  0  0  0  0
    4.3858   -8.0196    7.3907 H   0  0  0  0  0  0  0  0  0  0  0  0
    3.6821   -9.5986    7.4031 H   0  0  0  0  0  0  0  0  0  0  0  0
    3.0526   -8.4016    6.3024 H   0  0  0  0  0  0  0  0  0  0  0  0
    6.7703   -8.6520    6.8413 H   0  0  0  0  0  0  0  0  0  0  0  0
    7.0590  -10.0365    5.7902 H   0  0  0  0  0  0  0  0  0  0  0  0
    6.1628  -10.2302    7.2937 H   0  0  0  0  0  0  0  0  0  0  0  0
    3.4099  -13.1851    5.9906 H   0  0  0  0  0  0  0  0  0  0  0  0
    4.0082  -11.5829    3.2381 H   0  0  0  0  0  0  0  0  0  0  0  0
    1.9813   -9.9629    1.6031 H   0  0  0  0  0  0  0  0  0  0  0  0
   -0.6567   -9.9936    2.4005 H   0  0  0  0  0  0  0  0  0  0  0  0
    1.7753  -11.0985    5.6816 H   0  0  0  0  0  0  0  0  0  0  0  0
    5.5473  -10.0167    2.6683 H   0  0  0  0  0  0  0  0  0  0  0  0
    4.1433   -9.6811    1.7264 H   0  0  0  0  0  0  0  0  0  0  0  0
    3.0917   -6.5105    3.4974 H   0  0  0  0  0  0  0  0  0  0  0  0
    2.6743   -7.9978    4.2855 H   0  0  0  0  0  0  0  0  0  0  0  0
    2.5410   -7.8402    2.5609 H   0  0  0  0  0  0  0  0  0  0  0  0
    6.3841   -8.4204    4.2912 H   0  0  0  0  0  0  0  0  0  0  0  0
    4.7752   -6.5038    5.9495 H   0  0  0  0  0  0  0  0  0  0  0  0
    6.4829   -6.6917    5.7170 H   0  0  0  0  0  0  0  0  0  0  0  0
    4.4922   -5.1685    4.1046 H   0  0  0  0  0  0  0  0  0  0  0  0
    6.0700   -4.7400    4.6314 H   0  0  0  0  0  0  0  0  0  0  0  0
    7.0975   -6.2175    3.0986 H   0  0  0  0  0  0  0  0  0  0  0  0
    6.2116   -3.7771    2.5958 H   0  0  0  0  0  0  0  0  0  0  0  0
    8.4303   -4.2668    1.9725 H   0  0  0  0  0  0  0  0  0  0  0  0
    7.9838   -5.5159    0.8454 H   0  0  0  0  0  0  0  0  0  0  0  0
    5.6442   -1.4922   -2.1454 H   0  0  0  0  0  0  0  0  0  0  0  0
    3.9572   -1.9919   -2.3625 H   0  0  0  0  0  0  0  0  0  0  0  0
    4.5423   -0.2807   -0.3251 H   0  0  0  0  0  0  0  0  0  0  0  0
    3.4646   -1.6355   -0.0252 H   0  0  0  0  0  0  0  0  0  0  0  0
    3.1069   -3.7062    0.7568 H   0  0  0  0  0  0  0  0  0  0  0  0
    3.9695   -3.0252    2.1368 H   0  0  0  0  0  0  0  0  0  0  0  0
    3.4195   -4.6605    2.1775 H   0  0  0  0  0  0  0  0  0  0  0  0
    4.2349   -5.4856   -0.7046 H   0  0  0  0  0  0  0  0  0  0  0  0
    5.9040   -5.8973   -0.4494 H   0  0  0  0  0  0  0  0  0  0  0  0
    3.4982   -6.5905    1.1964 H   0  0  0  0  0  0  0  0  0  0  0  0
    4.4117   -7.6989    0.2747 H   0  0  0  0  0  0  0  0  0  0  0  0
    7.2057   -7.4093    0.8774 H   0  0  0  0  0  0  0  0  0  0  0  0
    6.3020   -8.8671    0.9455 H   0  0  0  0  0  0  0  0  0  0  0  0
    7.3191   -8.3812    2.2989 H   0  0  0  0  0  0  0  0  0  0  0  0
   -0.6502  -10.7000    4.8202 H   0  0  0  0  0  0  0  0  0  0  0  0
  1  2  1  0
  1 34  1  0
  1 35  1  0
  1 36  1  0
  2 16  1  0
  2  3  1  0
  2  4  1  0
  3 37  1  0
  3 38  1  0
  3 39  1  0
  4  5  2  3
  4  7  1  0
  5  6  1  0
  6 40  1  0
  7  8  1  0
  7 13  1  0
  7 41  1  6
  8 12  1  0
  8  9  1  0
  9 10  2  0
  9 42  1  0
 10 11  1  0
 10 43  1  0
 11 12  2  0
 11 73  1  0
 12 44  1  0
 13 14  1  0
 13 45  1  0
 13 46  1  0
 14 32  1  0
 14 15  1  1
 14 16  1  0
 15 47  1  0
 15 48  1  0
 15 49  1  0
 16 17  1  0
 16 50  1  6
 17 18  1  0
 17 51  1  0
 17 52  1  0
 18 19  1  0
 18 53  1  0
 18 54  1  0
 19 32  1  0
 19 20  1  0
 19 55  1  1
 20 28  1  0
 20 21  1  0
 20 56  1  1
 21 22  1  0
 21 57  1  0
 21 58  1  0
 22 23  1  0
 23 27  1  0
 23 24  1  0
 23 28  1  0
 24 25  1  0
 25 26  1  0
 25 59  1  0
 25 60  1  0
 26 27  1  0
 26 61  1  0
 26 62  1  0
 28 29  1  1
 28 30  1  0
 29 63  1  0
 29 64  1  0
 29 65  1  0
 30 31  1  0
 30 66  1  0
 30 67  1  0
 31 32  1  0
 31 68  1  0
 31 69  1  0
 32 33  1  6
 33 70  1  0
 33 71  1  0
 33 72  1  0
M  CHG  1  11   1
M  END
>  <i_m_ct_stereo_status>  (293) 
1

>  <s_m_source_file>  (293) 
/var/tmp/pbs.5076255.sched01/tmp4185l44a/86vs10_z9v.sdf

>  <i_m_source_file_index>  (293) 
40

>  <i_lp_mmshare_version>  (293) 
48012

>  <i_f3d_flags>  (293) 
0

>  <s_epik_input>  (293) 
W2NIXTFuW2NIXVtjSF1uMVtDQEBIXShbQ0gyXTIpQyg9Ti9bT0hdKVxDKFtDSDNdKShbQ0gzXSlbQ0BIXShbQ0gyXVtDSDJdMylbQ0BAXTIoW0NIM10pW0NAQF0oW0NIM10pKFtDSDJdW0NIMl00KVtDQEhdM1tDQEBIXShbQ0gyXVM1KVtDQEBdNChbQ0gzXSlDNTZPW0NIMl1bQ0gyXU82

>  <s_epik_cmdline>  (293) 
J2VwaWtfcHl0aG9uJywgJy1waHQnLCAnMi4wJywgJy1waCcsICc3LjAnLCAnLXRuJywgJzgnLCAnLW1hJywgJzIwMCcsICctaW1hZScsICc8aW5maWxlLm1hZT4nLCAnLW9tYWUnLCAnPG91dGZpbGUubWFlPic=

>  <r_lp_tautomer_probability>  (293) 
1

>  <r_epik_Ionization_Penalty>  (293) 
0.124138

>  <r_epik_Ionization_Penalty_Charging>  (293) 
0

>  <r_epik_Ionization_Penalty_Neutral>  (293) 
0.124138

>  <r_epik_State_Penalty>  (293) 
0.113615

>  <r_epik_Charging_Adjusted_Penalty>  (293) 
0.113615

>  <i_epik_Tot_Q>  (293) 
1

>  <i_epik_Tot_abs_Q>  (293) 
1

>  <s_epik_Chemistry_Notes>  (293) 
This compound has an imine and may undergo hydrolysis.

>  <s_lp_Force_Field>  (293) 
OPLS3e

>  <r_lp_Energy>  (293) 
78.4675

>  <b_lp_Chiralities_Consistent>  (293) 
1

>  <s_lp_Variant>  (293) 
88:0-1

>  <s_i_glide_gridfile>  (293) 
pfpi4k_grid

>  <i_i_glide_lignum>  (293) 
40

>  <i_i_glide_rotatable_bonds>  (293) 
2

>  <r_i_docking_score>  (293) 
-4.58325

>  <r_i_glide_ligand_efficiency>  (293) 
-0.138886

>  <r_i_glide_ligand_efficiency_sa>  (293) 
-0.445483

>  <r_i_glide_ligand_efficiency_ln>  (293) 
-1.01929

>  <r_i_glide_gscore>  (293) 
-4.58325

>  <r_i_glide_lipo>  (293) 
-0.902253

>  <r_i_glide_hbond>  (293) 
-0.35699

>  <r_i_glide_metal>  (293) 
-0

>  <r_i_glide_rewards>  (293) 
-0.252415

>  <r_i_glide_evdw>  (293) 
-30.9605

>  <r_i_glide_ecoul>  (293) 
-9.75792

>  <r_i_glide_erotb>  (293) 
0.179626

>  <r_i_glide_esite>  (293) 
-0.239509

>  <r_i_glide_emodel>  (293) 
-54.3159

>  <r_i_glide_energy>  (293) 
-40.7184

>  <r_i_glide_einternal>  (293) 
2.65464

>  <r_i_glide_intrahb_reward>  (293) 
-0

>  <i_i_glide_confnum>  (293) 
3

>  <i_i_glide_posenum>  (293) 
12

>  <r_i_glide_eff_state_penalty>  (293) 
0

>  <ligand_id>  (293) 
88

>  <original_smiles>  (293) 
CC1(C)C(=NO)C(n2ccnc2)CC2(C)C1CCC1C3CSC4(OCCO4)C3(C)CCC12C

>  <smiles>  (293) 
[H]ON=C1C([H])(n2c([H])c([H])[n+]([H])c2[H])C([H])([H])C2(C([H])([H])[H])C([H])(C([H])([H])C([H])([H])C3([H])C4([H])C([H])([H])SC5(OC([H])([H])C([H])([H])O5)C4(C([H])([H])[H])C([H])([H])C([H])([H])C32C([H])([H])[H])C1(C([H])([H])[H])C([H])([H])[H]

$$$$
88:0:1
     RDKit          3D

 73 78  0  0  1  0  0  0  0  0999 V2000
    0.0582   -7.5164    5.6586 C   0  0  0  0  0  0  0  0  0  0  0  0
    1.4709   -7.0894    6.1487 C   0  0  0  0  0  0  0  0  0  0  0  0
    1.2255   -6.3009    7.4827 C   0  0  0  0  0  0  0  0  0  0  0  0
    2.2398   -8.3948    6.4780 C   0  0  0  0  0  0  0  0  0  0  0  0
    1.8539   -9.0528    7.4986 N   0  0  0  0  0  0  0  0  0  0  0  0
    2.6555  -10.2095    7.6639 O   0  0  0  0  0  0  0  0  0  0  0  0
    3.3702   -8.8555    5.5140 C   0  0  1  0  0  0  0  0  0  0  0  0
    2.9252   -9.9189    4.5590 N   0  0  0  0  0  0  0  0  0  0  0  0
    1.7409  -10.6244    4.5037 C   0  0  0  0  0  0  0  0  0  0  0  0
    1.8527  -11.4775    3.4555 C   0  0  0  0  0  0  0  0  0  0  0  0
    3.1049  -11.3146    2.9249 N   0  0  0  0  0  0  0  0  0  0  0  0
    3.7676  -10.3928    3.6233 C   0  0  0  0  0  0  0  0  0  0  0  0
    4.0989   -7.6578    4.8688 C   0  0  0  0  0  0  0  0  0  0  0  0
    3.2181   -6.6086    4.1240 C   0  0  1  0  0  0  0  0  0  0  0  0
    2.4740   -7.3545    2.9765 C   0  0  0  0  0  0  0  0  0  0  0  0
    2.2018   -6.0612    5.1780 C   0  0  1  0  0  0  0  0  0  0  0  0
    1.2444   -4.9968    4.5661 C   0  0  0  0  0  0  0  0  0  0  0  0
    1.7863   -4.2324    3.3507 C   0  0  0  0  0  0  0  0  0  0  0  0
    3.3074   -4.0552    3.3701 C   0  0  2  0  0  0  0  0  0  0  0  0
    3.7511   -3.0440    2.2544 C   0  0  1  0  0  0  0  0  0  0  0  0
    4.7314   -1.9635    2.7459 C   0  0  0  0  0  0  0  0  0  0  0  0
    5.6011   -1.2657    1.3179 S   0  0  0  0  0  0  0  0  0  0  0  0
    4.9675   -2.4876    0.1444 C   0  0  0  0  0  0  0  0  0  0  0  0
    5.9507   -3.0066   -0.6951 O   0  0  0  0  0  0  0  0  0  0  0  0
    5.7818   -2.4107   -1.9494 C   0  0  0  0  0  0  0  0  0  0  0  0
    4.2822   -2.2107   -2.0074 C   0  0  0  0  0  0  0  0  0  0  0  0
    3.9747   -1.9145   -0.6603 O   0  0  0  0  0  0  0  0  0  0  0  0
    4.3161   -3.6739    0.9702 C   0  0  2  0  0  0  0  0  0  0  0  0
    3.2256   -4.3596    0.1221 C   0  0  0  0  0  0  0  0  0  0  0  0
    5.4248   -4.6812    1.3702 C   0  0  0  0  0  0  0  0  0  0  0  0
    4.8586   -5.8285    2.2268 C   0  0  0  0  0  0  0  0  0  0  0  0
    4.1320   -5.4011    3.5497 C   0  0  2  0  0  0  0  0  0  0  0  0
    5.2792   -5.0587    4.5447 C   0  0  0  0  0  0  0  0  0  0  0  0
   -0.6625   -6.6978    5.6766 H   0  0  0  0  0  0  0  0  0  0  0  0
   -0.3673   -8.2871    6.3039 H   0  0  0  0  0  0  0  0  0  0  0  0
    0.0619   -7.9459    4.6582 H   0  0  0  0  0  0  0  0  0  0  0  0
    0.7114   -5.3502    7.3219 H   0  0  0  0  0  0  0  0  0  0  0  0
    2.1738   -6.0715    7.9799 H   0  0  0  0  0  0  0  0  0  0  0  0
    0.6215   -6.8574    8.2031 H   0  0  0  0  0  0  0  0  0  0  0  0
    2.0057  -10.9365    7.6951 H   0  0  0  0  0  0  0  0  0  0  0  0
    4.1247   -9.3440    6.1271 H   0  0  0  0  0  0  0  0  0  0  0  0
    0.9133  -10.4723    5.1934 H   0  0  0  0  0  0  0  0  0  0  0  0
    1.1477  -12.2068    3.0650 H   0  0  0  0  0  0  0  0  0  0  0  0
    4.7680  -10.0844    3.4231 H   0  0  0  0  0  0  0  0  0  0  0  0
    4.5774   -7.1794    5.7252 H   0  0  0  0  0  0  0  0  0  0  0  0
    4.9175   -8.0037    4.2416 H   0  0  0  0  0  0  0  0  0  0  0  0
    2.0529   -6.6983    2.2242 H   0  0  0  0  0  0  0  0  0  0  0  0
    1.6558   -7.9747    3.3258 H   0  0  0  0  0  0  0  0  0  0  0  0
    3.1414   -8.0285    2.4391 H   0  0  0  0  0  0  0  0  0  0  0  0
    2.8420   -5.4947    5.8485 H   0  0  0  0  0  0  0  0  0  0  0  0
    0.2776   -5.3966    4.2859 H   0  0  0  0  0  0  0  0  0  0  0  0
    1.0390   -4.2594    5.3474 H   0  0  0  0  0  0  0  0  0  0  0  0
    1.4604   -4.7308    2.4407 H   0  0  0  0  0  0  0  0  0  0  0  0
    1.2911   -3.2620    3.3217 H   0  0  0  0  0  0  0  0  0  0  0  0
    3.4371   -3.4939    4.2965 H   0  0  0  0  0  0  0  0  0  0  0  0
    2.8787   -2.4774    1.9320 H   0  0  0  0  0  0  0  0  0  0  0  0
    4.2037   -1.1765    3.2873 H   0  0  0  0  0  0  0  0  0  0  0  0
    5.4898   -2.3579    3.4124 H   0  0  0  0  0  0  0  0  0  0  0  0
    6.2813   -1.4460   -1.9586 H   0  0  0  0  0  0  0  0  0  0  0  0
    6.1724   -3.0244   -2.7592 H   0  0  0  0  0  0  0  0  0  0  0  0
    3.9612   -1.4332   -2.6979 H   0  0  0  0  0  0  0  0  0  0  0  0
    3.7913   -3.1366   -2.3099 H   0  0  0  0  0  0  0  0  0  0  0  0
    3.6509   -4.7691   -0.7876 H   0  0  0  0  0  0  0  0  0  0  0  0
    2.4255   -3.6756   -0.1518 H   0  0  0  0  0  0  0  0  0  0  0  0
    2.7407   -5.1843    0.6294 H   0  0  0  0  0  0  0  0  0  0  0  0
    5.8552   -5.1347    0.4725 H   0  0  0  0  0  0  0  0  0  0  0  0
    6.2551   -4.1867    1.8743 H   0  0  0  0  0  0  0  0  0  0  0  0
    4.2484   -6.4196    1.5593 H   0  0  0  0  0  0  0  0  0  0  0  0
    5.6899   -6.4935    2.4711 H   0  0  0  0  0  0  0  0  0  0  0  0
    5.8889   -4.2361    4.1952 H   0  0  0  0  0  0  0  0  0  0  0  0
    5.9911   -5.8725    4.6832 H   0  0  0  0  0  0  0  0  0  0  0  0
    4.9150   -4.7726    5.5306 H   0  0  0  0  0  0  0  0  0  0  0  0
    3.4785  -11.8168    2.1297 H   0  0  0  0  0  0  0  0  0  0  0  0
  1  2  1  0
  1 34  1  0
  1 35  1  0
  1 36  1  0
  2 16  1  0
  2  3  1  0
  2  4  1  0
  3 37  1  0
  3 38  1  0
  3 39  1  0
  4  5  2  3
  4  7  1  0
  5  6  1  0
  6 40  1  0
  7  8  1  0
  7 13  1  0
  7 41  1  1
  8 12  1  0
  8  9  1  0
  9 10  2  0
  9 42  1  0
 10 11  1  0
 10 43  1  0
 11 12  2  0
 11 73  1  0
 12 44  1  0
 13 14  1  0
 13 45  1  0
 13 46  1  0
 14 32  1  0
 14 15  1  6
 14 16  1  0
 15 47  1  0
 15 48  1  0
 15 49  1  0
 16 17  1  0
 16 50  1  1
 17 18  1  0
 17 51  1  0
 17 52  1  0
 18 19  1  0
 18 53  1  0
 18 54  1  0
 19 32  1  0
 19 20  1  0
 19 55  1  1
 20 28  1  0
 20 21  1  0
 20 56  1  6
 21 22  1  0
 21 57  1  0
 21 58  1  0
 22 23  1  0
 23 27  1  0
 23 24  1  0
 23 28  1  0
 24 25  1  0
 25 26  1  0
 25 59  1  0
 25 60  1  0
 26 27  1  0
 26 61  1  0
 26 62  1  0
 28 29  1  6
 28 30  1  0
 29 63  1  0
 29 64  1  0
 29 65  1  0
 30 31  1  0
 30 66  1  0
 30 67  1  0
 31 32  1  0
 31 68  1  0
 31 69  1  0
 32 33  1  1
 33 70  1  0
 33 71  1  0
 33 72  1  0
M  CHG  1  11   1
M  END
>  <i_m_ct_stereo_status>  (294) 
1

>  <s_m_source_file>  (294) 
/var/tmp/pbs.5076255.sched01/tmp4185l44a/86vs10_z9v.sdf

>  <i_m_source_file_index>  (294) 
40

>  <i_lp_mmshare_version>  (294) 
48012

>  <i_f3d_flags>  (294) 
0

>  <s_epik_input>  (294) 
W2NIXTFuW2NIXVtjSF1uMVtDQEBIXShbQ0gyXTIpQyg9Ti9bT0hdKVxDKFtDSDNdKShbQ0gzXSlbQ0BIXShbQ0gyXVtDSDJdMylbQ0BAXTIoW0NIM10pW0NAQF0oW0NIM10pKFtDSDJdW0NIMl00KVtDQEhdM1tDQEBIXShbQ0gyXVM1KVtDQEBdNChbQ0gzXSlDNTZPW0NIMl1bQ0gyXU82

>  <s_epik_cmdline>  (294) 
J2VwaWtfcHl0aG9uJywgJy1waHQnLCAnMi4wJywgJy1waCcsICc3LjAnLCAnLXRuJywgJzgnLCAnLW1hJywgJzIwMCcsICctaW1hZScsICc8aW5maWxlLm1hZT4nLCAnLW9tYWUnLCAnPG91dGZpbGUubWFlPic=

>  <r_lp_tautomer_probability>  (294) 
1

>  <r_epik_Ionization_Penalty>  (294) 
0.124138

>  <r_epik_Ionization_Penalty_Charging>  (294) 
0

>  <r_epik_Ionization_Penalty_Neutral>  (294) 
0.124138

>  <r_epik_State_Penalty>  (294) 
0.113615

>  <r_epik_Charging_Adjusted_Penalty>  (294) 
0.113615

>  <i_epik_Tot_Q>  (294) 
1

>  <i_epik_Tot_abs_Q>  (294) 
1

>  <s_epik_Chemistry_Notes>  (294) 
This compound has an imine and may undergo hydrolysis.

>  <s_lp_Force_Field>  (294) 
OPLS3e

>  <r_lp_Energy>  (294) 
78.4675

>  <b_lp_Chiralities_Consistent>  (294) 
1

>  <s_lp_Variant>  (294) 
88:0-1

>  <s_i_glide_gridfile>  (294) 
pfpi4k_grid

>  <i_i_glide_lignum>  (294) 
40

>  <i_i_glide_rotatable_bonds>  (294) 
2

>  <r_i_docking_score>  (294) 
-3.81731

>  <r_i_glide_ligand_efficiency>  (294) 
-0.115676

>  <r_i_glide_ligand_efficiency_sa>  (294) 
-0.371035

>  <r_i_glide_ligand_efficiency_ln>  (294) 
-0.84895

>  <r_i_glide_gscore>  (294) 
-3.81731

>  <r_i_glide_lipo>  (294) 
-0.376103

>  <r_i_glide_hbond>  (294) 
-0.36

>  <r_i_glide_metal>  (294) 
-0

>  <r_i_glide_rewards>  (294) 
-0.180904

>  <r_i_glide_evdw>  (294) 
-27.5195

>  <r_i_glide_ecoul>  (294) 
-9.5495

>  <r_i_glide_erotb>  (294) 
0.179626

>  <r_i_glide_esite>  (294) 
-0.271531

>  <r_i_glide_emodel>  (294) 
-48.5471

>  <r_i_glide_energy>  (294) 
-37.069

>  <r_i_glide_einternal>  (294) 
1.95031

>  <r_i_glide_intrahb_reward>  (294) 
-0

>  <i_i_glide_confnum>  (294) 
2

>  <i_i_glide_posenum>  (294) 
5

>  <r_i_glide_eff_state_penalty>  (294) 
0

>  <ligand_id>  (294) 
88

>  <original_smiles>  (294) 
CC1(C)C(=NO)C(n2ccnc2)CC2(C)C1CCC1C3CSC4(OCCO4)C3(C)CCC12C

>  <smiles>  (294) 
[H]ON=C1C([H])(n2c([H])c([H])[n+]([H])c2[H])C([H])([H])C2(C([H])([H])[H])C([H])(C([H])([H])C([H])([H])C3([H])C4([H])C([H])([H])SC5(OC([H])([H])C([H])([H])O5)C4(C([H])([H])[H])C([H])([H])C([H])([H])C32C([H])([H])[H])C1(C([H])([H])[H])C([H])([H])[H]

$$$$
88:0:2
     RDKit          3D

 73 78  0  0  1  0  0  0  0  0999 V2000
    8.3722   -6.6478    0.5014 C   0  0  0  0  0  0  0  0  0  0  0  0
    7.9416   -5.7839    1.7124 C   0  0  0  0  0  0  0  0  0  0  0  0
    8.9925   -6.0784    2.8286 C   0  0  0  0  0  0  0  0  0  0  0  0
    8.0928   -4.3087    1.2230 C   0  0  0  0  0  0  0  0  0  0  0  0
    9.2846   -3.8828    1.0609 N   0  0  0  0  0  0  0  0  0  0  0  0
    9.3685   -2.5142    0.6515 O   0  0  0  0  0  0  0  0  0  0  0  0
    6.8145   -3.4677    0.9582 C   0  0  1  0  0  0  0  0  0  0  0  0
    6.4421   -3.3217   -0.4993 N   0  0  0  0  0  0  0  0  0  0  0  0
    5.1912   -3.2357   -1.0304 C   0  0  0  0  0  0  0  0  0  0  0  0
    5.3087   -3.2213   -2.3859 C   0  0  0  0  0  0  0  0  0  0  0  0
    6.6513   -3.1261   -2.6320 N   0  0  0  0  0  0  0  0  0  0  0  0
    7.3423   -3.1734   -1.4863 C   0  0  0  0  0  0  0  0  0  0  0  0
    5.6461   -3.8927    1.8649 C   0  0  0  0  0  0  0  0  0  0  0  0
    5.2409   -5.4014    1.8795 C   0  0  1  0  0  0  0  0  0  0  0  0
    4.8024   -5.8478    0.4416 C   0  0  0  0  0  0  0  0  0  0  0  0
    6.5287   -6.1753    2.3425 C   0  0  1  0  0  0  0  0  0  0  0  0
    6.2856   -7.7114    2.3803 C   0  0  0  0  0  0  0  0  0  0  0  0
    4.8327   -8.1556    2.6000 C   0  0  0  0  0  0  0  0  0  0  0  0
    4.0142   -7.1724    3.4498 C   0  0  2  0  0  0  0  0  0  0  0  0
    2.6306   -7.8013    3.8666 C   0  0  1  0  0  0  0  0  0  0  0  0
    2.3081   -7.6542    5.3614 C   0  0  0  0  0  0  0  0  0  0  0  0
    0.5303   -7.8688    5.5866 S   0  0  0  0  0  0  0  0  0  0  0  0
    0.1464   -7.8667    3.8183 C   0  0  0  0  0  0  0  0  0  0  0  0
   -0.9381   -7.0598    3.4894 O   0  0  0  0  0  0  0  0  0  0  0  0
   -2.0278   -7.9166    3.2488 C   0  0  0  0  0  0  0  0  0  0  0  0
   -1.3365   -9.1279    2.6592 C   0  0  0  0  0  0  0  0  0  0  0  0
   -0.1252   -9.1726    3.3852 O   0  0  0  0  0  0  0  0  0  0  0  0
    1.4115   -7.3394    3.0469 C   0  0  2  0  0  0  0  0  0  0  0  0
    1.4220   -7.9193    1.6200 C   0  0  0  0  0  0  0  0  0  0  0  0
    1.4026   -5.7911    3.0186 C   0  0  0  0  0  0  0  0  0  0  0  0
    2.6541   -5.2274    2.3285 C   0  0  0  0  0  0  0  0  0  0  0  0
    4.0328   -5.6654    2.9369 C   0  0  2  0  0  0  0  0  0  0  0  0
    4.1926   -4.7788    4.2133 C   0  0  0  0  0  0  0  0  0  0  0  0
    8.5537   -7.6884    0.7658 H   0  0  0  0  0  0  0  0  0  0  0  0
    9.3010   -6.2962    0.0504 H   0  0  0  0  0  0  0  0  0  0  0  0
    7.6497   -6.6046   -0.2900 H   0  0  0  0  0  0  0  0  0  0  0  0
    8.9201   -7.0987    3.1942 H   0  0  0  0  0  0  0  0  0  0  0  0
    8.8614   -5.4290    3.6913 H   0  0  0  0  0  0  0  0  0  0  0  0
   10.0195   -5.9504    2.4880 H   0  0  0  0  0  0  0  0  0  0  0  0
    8.4827   -2.2464    0.6091 H   0  0  0  0  0  0  0  0  0  0  0  0
    7.0311   -2.4464    1.2411 H   0  0  0  0  0  0  0  0  0  0  0  0
    4.2681   -3.2445   -0.4257 H   0  0  0  0  0  0  0  0  0  0  0  0
    4.5643   -3.2722   -3.1780 H   0  0  0  0  0  0  0  0  0  0  0  0
    8.4284   -3.1258   -1.4493 H   0  0  0  0  0  0  0  0  0  0  0  0
    5.9916   -3.6077    2.8578 H   0  0  0  0  0  0  0  0  0  0  0  0
    4.7839   -3.2498    1.6983 H   0  0  0  0  0  0  0  0  0  0  0  0
    4.3641   -6.8451    0.4007 H   0  0  0  0  0  0  0  0  0  0  0  0
    5.6601   -5.8837   -0.2352 H   0  0  0  0  0  0  0  0  0  0  0  0
    4.1026   -5.1827    0.0173 H   0  0  0  0  0  0  0  0  0  0  0  0
    6.6324   -5.8818    3.3937 H   0  0  0  0  0  0  0  0  0  0  0  0
    6.6311   -8.2289    1.4858 H   0  0  0  0  0  0  0  0  0  0  0  0
    6.8747   -8.1208    3.2015 H   0  0  0  0  0  0  0  0  0  0  0  0
    4.3470   -8.3510    1.6516 H   0  0  0  0  0  0  0  0  0  0  0  0
    4.8400   -9.1352    3.0697 H   0  0  0  0  0  0  0  0  0  0  0  0
    4.5962   -7.1752    4.3740 H   0  0  0  0  0  0  0  0  0  0  0  0
    2.7036   -8.8810    3.7124 H   0  0  0  0  0  0  0  0  0  0  0  0
    2.8605   -8.3827    5.9535 H   0  0  0  0  0  0  0  0  0  0  0  0
    2.5583   -6.6715    5.7461 H   0  0  0  0  0  0  0  0  0  0  0  0
   -2.5308   -8.1929    4.1743 H   0  0  0  0  0  0  0  0  0  0  0  0
   -2.7481   -7.4601    2.5660 H   0  0  0  0  0  0  0  0  0  0  0  0
   -1.9253  -10.0413    2.7201 H   0  0  0  0  0  0  0  0  0  0  0  0
   -1.1327   -8.9524    1.6063 H   0  0  0  0  0  0  0  0  0  0  0  0
    0.5407   -7.6274    1.0493 H   0  0  0  0  0  0  0  0  0  0  0  0
    1.4731   -9.0145    1.6133 H   0  0  0  0  0  0  0  0  0  0  0  0
    2.2792   -7.6035    1.0305 H   0  0  0  0  0  0  0  0  0  0  0  0
    0.5425   -5.4588    2.4475 H   0  0  0  0  0  0  0  0  0  0  0  0
    1.2760   -5.3810    4.0115 H   0  0  0  0  0  0  0  0  0  0  0  0
    2.5255   -5.4873    1.2893 H   0  0  0  0  0  0  0  0  0  0  0  0
    2.5771   -4.1404    2.3306 H   0  0  0  0  0  0  0  0  0  0  0  0
    3.4044   -4.9584    4.9410 H   0  0  0  0  0  0  0  0  0  0  0  0
    4.1201   -3.7092    4.0094 H   0  0  0  0  0  0  0  0  0  0  0  0
    5.1369   -4.9508    4.7323 H   0  0  0  0  0  0  0  0  0  0  0  0
    7.1421   -3.0398   -3.5500 H   0  0  0  0  0  0  0  0  0  0  0  0
  1  2  1  0
  1 34  1  0
  1 35  1  0
  1 36  1  0
  2 16  1  0
  2  3  1  0
  2  4  1  0
  3 37  1  0
  3 38  1  0
  3 39  1  0
  4  5  2  3
  4  7  1  0
  5  6  1  0
  6 40  1  0
  7  8  1  0
  7 13  1  0
  7 41  1  1
  8 12  1  0
  8  9  1  0
  9 10  2  0
  9 42  1  0
 10 11  1  0
 10 43  1  0
 11 12  2  0
 11 73  1  0
 12 44  1  0
 13 14  1  0
 13 45  1  0
 13 46  1  0
 14 32  1  0
 14 15  1  6
 14 16  1  0
 15 47  1  0
 15 48  1  0
 15 49  1  0
 16 17  1  0
 16 50  1  1
 17 18  1  0
 17 51  1  0
 17 52  1  0
 18 19  1  0
 18 53  1  0
 18 54  1  0
 19 32  1  0
 19 20  1  0
 19 55  1  1
 20 28  1  0
 20 21  1  0
 20 56  1  1
 21 22  1  0
 21 57  1  0
 21 58  1  0
 22 23  1  0
 23 27  1  0
 23 24  1  0
 23 28  1  0
 24 25  1  0
 25 26  1  0
 25 59  1  0
 25 60  1  0
 26 27  1  0
 26 61  1  0
 26 62  1  0
 28 29  1  6
 28 30  1  0
 29 63  1  0
 29 64  1  0
 29 65  1  0
 30 31  1  0
 30 66  1  0
 30 67  1  0
 31 32  1  0
 31 68  1  0
 31 69  1  0
 32 33  1  1
 33 70  1  0
 33 71  1  0
 33 72  1  0
M  CHG  1  11   1
M  END
>  <i_m_ct_stereo_status>  (295) 
1

>  <s_m_source_file>  (295) 
/var/tmp/pbs.5076255.sched01/tmp4185l44a/86vs10_z9v.sdf

>  <i_m_source_file_index>  (295) 
40

>  <i_lp_mmshare_version>  (295) 
48012

>  <i_f3d_flags>  (295) 
0

>  <s_epik_input>  (295) 
W2NIXTFuW2NIXVtjSF1uMVtDQEBIXShbQ0gyXTIpQyg9Ti9bT0hdKVxDKFtDSDNdKShbQ0gzXSlbQ0BIXShbQ0gyXVtDSDJdMylbQ0BAXTIoW0NIM10pW0NAQF0oW0NIM10pKFtDSDJdW0NIMl00KVtDQEhdM1tDQEBIXShbQ0gyXVM1KVtDQEBdNChbQ0gzXSlDNTZPW0NIMl1bQ0gyXU82

>  <s_epik_cmdline>  (295) 
J2VwaWtfcHl0aG9uJywgJy1waHQnLCAnMi4wJywgJy1waCcsICc3LjAnLCAnLXRuJywgJzgnLCAnLW1hJywgJzIwMCcsICctaW1hZScsICc8aW5maWxlLm1hZT4nLCAnLW9tYWUnLCAnPG91dGZpbGUubWFlPic=

>  <r_lp_tautomer_probability>  (295) 
1

>  <r_epik_Ionization_Penalty>  (295) 
0.124138

>  <r_epik_Ionization_Penalty_Charging>  (295) 
0

>  <r_epik_Ionization_Penalty_Neutral>  (295) 
0.124138

>  <r_epik_State_Penalty>  (295) 
0.113615

>  <r_epik_Charging_Adjusted_Penalty>  (295) 
0.113615

>  <i_epik_Tot_Q>  (295) 
1

>  <i_epik_Tot_abs_Q>  (295) 
1

>  <s_epik_Chemistry_Notes>  (295) 
This compound has an imine and may undergo hydrolysis.

>  <s_lp_Force_Field>  (295) 
OPLS3e

>  <r_lp_Energy>  (295) 
78.4675

>  <b_lp_Chiralities_Consistent>  (295) 
1

>  <s_lp_Variant>  (295) 
88:0-1

>  <s_i_glide_gridfile>  (295) 
pfpi4k_grid

>  <i_i_glide_lignum>  (295) 
40

>  <i_i_glide_rotatable_bonds>  (295) 
2

>  <r_i_docking_score>  (295) 
-3.76487

>  <r_i_glide_ligand_efficiency>  (295) 
-0.114087

>  <r_i_glide_ligand_efficiency_sa>  (295) 
-0.365938

>  <r_i_glide_ligand_efficiency_ln>  (295) 
-0.837287

>  <r_i_glide_gscore>  (295) 
-3.76487

>  <r_i_glide_lipo>  (295) 
-0.670869

>  <r_i_glide_hbond>  (295) 
-0.077857

>  <r_i_glide_metal>  (295) 
-0

>  <r_i_glide_rewards>  (295) 
-0.505722

>  <r_i_glide_evdw>  (295) 
-29.4534

>  <r_i_glide_ecoul>  (295) 
-7.30604

>  <r_i_glide_erotb>  (295) 
0.179626

>  <r_i_glide_esite>  (295) 
-0.12147

>  <r_i_glide_emodel>  (295) 
-46.5817

>  <r_i_glide_energy>  (295) 
-36.7595

>  <r_i_glide_einternal>  (295) 
2.57669

>  <r_i_glide_intrahb_reward>  (295) 
-0

>  <i_i_glide_confnum>  (295) 
2

>  <i_i_glide_posenum>  (295) 
40

>  <r_i_glide_eff_state_penalty>  (295) 
0

>  <ligand_id>  (295) 
88

>  <original_smiles>  (295) 
CC1(C)C(=NO)C(n2ccnc2)CC2(C)C1CCC1C3CSC4(OCCO4)C3(C)CCC12C

>  <smiles>  (295) 
[H]ON=C1C([H])(n2c([H])c([H])[n+]([H])c2[H])C([H])([H])C2(C([H])([H])[H])C([H])(C([H])([H])C([H])([H])C3([H])C4([H])C([H])([H])SC5(OC([H])([H])C([H])([H])O5)C4(C([H])([H])[H])C([H])([H])C([H])([H])C32C([H])([H])[H])C1(C([H])([H])[H])C([H])([H])[H]

$$$$
88:2:0
     RDKit          3D

 72 77  0  0  1  0  0  0  0  0999 V2000
    1.5048   -5.9328    6.7149 C   0  0  0  0  0  0  0  0  0  0  0  0
    2.5552   -6.8936    6.0992 C   0  0  0  0  0  0  0  0  0  0  0  0
    3.6095   -7.1008    7.2177 C   0  0  0  0  0  0  0  0  0  0  0  0
    1.8609   -8.2737    5.8312 C   0  0  0  0  0  0  0  0  0  0  0  0
    1.5960   -9.0628    6.8050 N   0  0  0  0  0  0  0  0  0  0  0  0
    0.9827  -10.2439    6.3570 O   0  0  0  0  0  0  0  0  0  0  0  0
    1.5153   -8.6364    4.3712 C   0  0  1  0  0  0  0  0  0  0  0  0
    0.1150   -8.3765    4.0082 N   0  0  0  0  0  0  0  0  0  0  0  0
   -0.5427   -8.9754    2.9259 C   0  0  0  0  0  0  0  0  0  0  0  0
   -1.7958   -8.4195    2.8739 C   0  0  0  0  0  0  0  0  0  0  0  0
   -1.9388   -7.4682    3.8699 N   0  0  0  0  0  0  0  0  0  0  0  0
   -0.7990   -7.5685    4.5468 C   0  0  0  0  0  0  0  0  0  0  0  0
    2.5452   -8.0962    3.3526 C   0  0  0  0  0  0  0  0  0  0  0  0
    2.8776   -6.5724    3.4012 C   0  0  1  0  0  0  0  0  0  0  0  0
    1.5732   -5.8003    3.0640 C   0  0  0  0  0  0  0  0  0  0  0  0
    3.3429   -6.2731    4.8647 C   0  0  1  0  0  0  0  0  0  0  0  0
    3.6927   -4.7662    5.0611 C   0  0  0  0  0  0  0  0  0  0  0  0
    4.1112   -3.9971    3.8001 C   0  0  0  0  0  0  0  0  0  0  0  0
    4.8455   -4.8711    2.7796 C   0  0  2  0  0  0  0  0  0  0  0  0
    5.4805   -3.9726    1.6592 C   0  0  1  0  0  0  0  0  0  0  0  0
    6.9283   -4.3419    1.2989 C   0  0  0  0  0  0  0  0  0  0  0  0
    7.3459   -3.6088   -0.3013 S   0  0  0  0  0  0  0  0  0  0  0  0
    5.6210   -3.2024   -0.6998 C   0  0  0  0  0  0  0  0  0  0  0  0
    5.2170   -3.6412   -1.9626 O   0  0  0  0  0  0  0  0  0  0  0  0
    5.1995   -2.5071   -2.7842 C   0  0  0  0  0  0  0  0  0  0  0  0
    4.8192   -1.4025   -1.8214 C   0  0  0  0  0  0  0  0  0  0  0  0
    5.4594   -1.8208   -0.6309 O   0  0  0  0  0  0  0  0  0  0  0  0
    4.6929   -3.8902    0.3527 C   0  0  2  0  0  0  0  0  0  0  0  0
    3.3756   -3.0821    0.4672 C   0  0  0  0  0  0  0  0  0  0  0  0
    4.4057   -5.3333   -0.0804 C   0  0  0  0  0  0  0  0  0  0  0  0
    3.4990   -6.0819    0.9000 C   0  0  0  0  0  0  0  0  0  0  0  0
    4.0545   -6.1852    2.3552 C   0  0  2  0  0  0  0  0  0  0  0  0
    5.1262   -7.3183    2.2842 C   0  0  0  0  0  0  0  0  0  0  0  0
    1.9593   -5.0837    7.2451 H   0  0  0  0  0  0  0  0  0  0  0  0
    0.8942   -6.4468    7.4650 H   0  0  0  0  0  0  0  0  0  0  0  0
    0.8342   -5.4959    5.9796 H   0  0  0  0  0  0  0  0  0  0  0  0
    4.1540   -6.1762    7.4452 H   0  0  0  0  0  0  0  0  0  0  0  0
    4.3484   -7.8555    6.9354 H   0  0  0  0  0  0  0  0  0  0  0  0
    3.1598   -7.4304    8.1637 H   0  0  0  0  0  0  0  0  0  0  0  0
    1.1747  -10.9161    7.0381 H   0  0  0  0  0  0  0  0  0  0  0  0
    1.6352   -9.7207    4.2794 H   0  0  0  0  0  0  0  0  0  0  0  0
   -0.0900   -9.7332    2.2821 H   0  0  0  0  0  0  0  0  0  0  0  0
   -2.6241   -8.6379    2.1969 H   0  0  0  0  0  0  0  0  0  0  0  0
   -0.6478   -6.9612    5.4341 H   0  0  0  0  0  0  0  0  0  0  0  0
    3.4448   -8.6535    3.6067 H   0  0  0  0  0  0  0  0  0  0  0  0
    2.2760   -8.4179    2.3370 H   0  0  0  0  0  0  0  0  0  0  0  0
    1.7270   -4.7698    2.7608 H   0  0  0  0  0  0  0  0  0  0  0  0
    0.9012   -5.7384    3.9071 H   0  0  0  0  0  0  0  0  0  0  0  0
    1.0237   -6.2871    2.2525 H   0  0  0  0  0  0  0  0  0  0  0  0
    4.3175   -6.7727    4.9076 H   0  0  0  0  0  0  0  0  0  0  0  0
    2.8827   -4.1920    5.5267 H   0  0  0  0  0  0  0  0  0  0  0  0
    4.5249   -4.7129    5.7513 H   0  0  0  0  0  0  0  0  0  0  0  0
    3.2471   -3.5148    3.3588 H   0  0  0  0  0  0  0  0  0  0  0  0
    4.7606   -3.1714    4.1094 H   0  0  0  0  0  0  0  0  0  0  0  0
    5.7047   -5.2099    3.3541 H   0  0  0  0  0  0  0  0  0  0  0  0
    5.5292   -2.9440    2.0158 H   0  0  0  0  0  0  0  0  0  0  0  0
    7.6010   -3.9503    2.0491 H   0  0  0  0  0  0  0  0  0  0  0  0
    7.1023   -5.4144    1.2456 H   0  0  0  0  0  0  0  0  0  0  0  0
    6.2158   -2.3761   -3.0932 H   0  0  0  0  0  0  0  0  0  0  0  0
    4.5534   -2.5854   -3.6589 H   0  0  0  0  0  0  0  0  0  0  0  0
    5.1533   -0.4088   -2.1358 H   0  0  0  0  0  0  0  0  0  0  0  0
    3.7377   -1.3547   -1.6874 H   0  0  0  0  0  0  0  0  0  0  0  0
    2.8465   -3.0295   -0.4849 H   0  0  0  0  0  0  0  0  0  0  0  0
    3.5564   -2.0643    0.8063 H   0  0  0  0  0  0  0  0  0  0  0  0
    2.6721   -3.4987    1.1742 H   0  0  0  0  0  0  0  0  0  0  0  0
    3.8662   -5.2299   -1.0066 H   0  0  0  0  0  0  0  0  0  0  0  0
    5.3109   -5.9046   -0.3119 H   0  0  0  0  0  0  0  0  0  0  0  0
    2.5154   -5.6215    0.8155 H   0  0  0  0  0  0  0  0  0  0  0  0
    3.3485   -7.0771    0.5027 H   0  0  0  0  0  0  0  0  0  0  0  0
    5.9366   -7.0801    1.6042 H   0  0  0  0  0  0  0  0  0  0  0  0
    4.7361   -8.2625    1.9033 H   0  0  0  0  0  0  0  0  0  0  0  0
    5.5860   -7.5197    3.2512 H   0  0  0  0  0  0  0  0  0  0  0  0
  1  2  1  0
  1 34  1  0
  1 35  1  0
  1 36  1  0
  2 16  1  0
  2  3  1  0
  2  4  1  0
  3 37  1  0
  3 38  1  0
  3 39  1  0
  4  5  2  3
  4  7  1  0
  5  6  1  0
  6 40  1  0
  7  8  1  0
  7 13  1  0
  7 41  1  1
  8 12  1  0
  8  9  1  0
  9 10  2  0
  9 42  1  0
 10 11  1  0
 10 43  1  0
 11 12  2  0
 12 44  1  0
 13 14  1  0
 13 45  1  0
 13 46  1  0
 14 32  1  0
 14 15  1  6
 14 16  1  0
 15 47  1  0
 15 48  1  0
 15 49  1  0
 16 17  1  0
 16 50  1  6
 17 18  1  0
 17 51  1  0
 17 52  1  0
 18 19  1  0
 18 53  1  0
 18 54  1  0
 19 32  1  0
 19 20  1  0
 19 55  1  1
 20 28  1  0
 20 21  1  0
 20 56  1  1
 21 22  1  0
 21 57  1  0
 21 58  1  0
 22 23  1  0
 23 27  1  0
 23 24  1  0
 23 28  1  0
 24 25  1  0
 25 26  1  0
 25 59  1  0
 25 60  1  0
 26 27  1  0
 26 61  1  0
 26 62  1  0
 28 29  1  1
 28 30  1  0
 29 63  1  0
 29 64  1  0
 29 65  1  0
 30 31  1  0
 30 66  1  0
 30 67  1  0
 31 32  1  0
 31 68  1  0
 31 69  1  0
 32 33  1  6
 33 70  1  0
 33 71  1  0
 33 72  1  0
M  END
>  <i_m_ct_stereo_status>  (296) 
1

>  <s_m_source_file>  (296) 
/var/tmp/pbs.5076255.sched01/tmp4185l44a/86vs10_z9v.sdf

>  <i_m_source_file_index>  (296) 
42

>  <i_lp_mmshare_version>  (296) 
48012

>  <i_f3d_flags>  (296) 
0

>  <s_epik_input>  (296) 
W2NIXTFuW2NIXVtjSF1uMVtDQEBIXShbQ0gyXTIpQyg9Ti9bT0hdKVxDKFtDSDNdKShbQ0gzXSlbQ0BIXShbQ0gyXVtDSDJdMylbQ0BAXTIoW0NIM10pW0NAQF0oW0NIM10pKFtDSDJdW0NIMl00KVtDQEhdM1tDQEBIXShbQ0gyXVM1KVtDQEBdNChbQ0gzXSlDNTZPW0NIMl1bQ0gyXU82

>  <s_epik_cmdline>  (296) 
J2VwaWtfcHl0aG9uJywgJy1waHQnLCAnMi4wJywgJy1waCcsICc3LjAnLCAnLXRuJywgJzgnLCAnLW1hJywgJzIwMCcsICctaW1hZScsICc8aW5maWxlLm1hZT4nLCAnLW9tYWUnLCAnPG91dGZpbGUubWFlPic=

>  <r_lp_tautomer_probability>  (296) 
1

>  <r_epik_Ionization_Penalty>  (296) 
0.987034

>  <r_epik_Ionization_Penalty_Charging>  (296) 
0.98703

>  <r_epik_Ionization_Penalty_Neutral>  (296) 
4.11699e-06

>  <r_epik_State_Penalty>  (296) 
1.0344

>  <r_epik_Charging_Adjusted_Penalty>  (296) 
2.02143

>  <i_epik_Tot_Q>  (296) 
0

>  <i_epik_Tot_abs_Q>  (296) 
0

>  <s_epik_Chemistry_Notes>  (296) 
This compound has an imine and may undergo hydrolysis.

>  <s_lp_Force_Field>  (296) 
OPLS3e

>  <r_lp_Energy>  (296) 
71.6682

>  <b_lp_Chiralities_Consistent>  (296) 
1

>  <s_lp_Variant>  (296) 
88:0-3

>  <s_i_glide_gridfile>  (296) 
pfpi4k_grid

>  <i_i_glide_lignum>  (296) 
42

>  <i_i_glide_rotatable_bonds>  (296) 
2

>  <r_i_docking_score>  (296) 
-3.38585

>  <r_i_glide_ligand_efficiency>  (296) 
-0.102601

>  <r_i_glide_ligand_efficiency_sa>  (296) 
-0.329098

>  <r_i_glide_ligand_efficiency_ln>  (296) 
-0.752995

>  <r_i_glide_gscore>  (296) 
-3.38585

>  <r_i_glide_lipo>  (296) 
-0.520035

>  <r_i_glide_hbond>  (296) 
-0.16

>  <r_i_glide_metal>  (296) 
-0

>  <r_i_glide_rewards>  (296) 
-0.253945

>  <r_i_glide_evdw>  (296) 
-29.2355

>  <r_i_glide_ecoul>  (296) 
-6.13018

>  <r_i_glide_erotb>  (296) 
0.180324

>  <r_i_glide_esite>  (296) 
-0.250889

>  <r_i_glide_emodel>  (296) 
-41.6355

>  <r_i_glide_energy>  (296) 
-35.3657

>  <r_i_glide_einternal>  (296) 
0.709934

>  <r_i_glide_intrahb_reward>  (296) 
-0

>  <i_i_glide_confnum>  (296) 
3

>  <i_i_glide_posenum>  (296) 
1

>  <r_i_glide_eff_state_penalty>  (296) 
0

>  <ligand_id>  (296) 
88

>  <original_smiles>  (296) 
CC1(C)C(=NO)C(n2ccnc2)CC2(C)C1CCC1C3CSC4(OCCO4)C3(C)CCC12C

>  <smiles>  (296) 
[H]ON=C1C([H])(n2c([H])nc([H])c2[H])C([H])([H])C2(C([H])([H])[H])C([H])(C([H])([H])C([H])([H])C3([H])C4([H])C([H])([H])SC5(OC([H])([H])C([H])([H])O5)C4(C([H])([H])[H])C([H])([H])C([H])([H])C32C([H])([H])[H])C1(C([H])([H])[H])C([H])([H])[H]

$$$$
88:2:1
     RDKit          3D

 72 77  0  0  1  0  0  0  0  0999 V2000
    3.0175   -3.3878   -0.6202 C   0  0  0  0  0  0  0  0  0  0  0  0
    4.4484   -3.4568   -0.0112 C   0  0  0  0  0  0  0  0  0  0  0  0
    5.4227   -3.4617   -1.2292 C   0  0  0  0  0  0  0  0  0  0  0  0
    4.6654   -2.1346    0.7801 C   0  0  0  0  0  0  0  0  0  0  0  0
    4.8745   -1.0672    0.1006 N   0  0  0  0  0  0  0  0  0  0  0  0
    4.9884    0.0902    0.9229 O   0  0  0  0  0  0  0  0  0  0  0  0
    4.5797   -2.1882    2.3243 C   0  0  1  0  0  0  0  0  0  0  0  0
    3.2435   -1.8479    2.8458 N   0  0  0  0  0  0  0  0  0  0  0  0
    2.1506   -1.2951    2.1799 C   0  0  0  0  0  0  0  0  0  0  0  0
    1.1453   -1.1581    3.1017 C   0  0  0  0  0  0  0  0  0  0  0  0
    1.5868   -1.5773    4.3561 N   0  0  0  0  0  0  0  0  0  0  0  0
    2.8405   -1.9406    4.1261 C   0  0  0  0  0  0  0  0  0  0  0  0
    5.1445   -3.5124    2.8864 C   0  0  0  0  0  0  0  0  0  0  0  0
    4.5347   -4.8408    2.3419 C   0  0  1  0  0  0  0  0  0  0  0  0
    3.0124   -4.8577    2.6852 C   0  0  0  0  0  0  0  0  0  0  0  0
    4.7496   -4.7996    0.7946 C   0  0  1  0  0  0  0  0  0  0  0  0
    4.1866   -6.0714    0.1049 C   0  0  0  0  0  0  0  0  0  0  0  0
    4.0955   -7.3333    0.9706 C   0  0  0  0  0  0  0  0  0  0  0  0
    5.1889   -7.4149    2.0361 C   0  0  2  0  0  0  0  0  0  0  0  0
    5.2026   -8.8344    2.6993 C   0  0  1  0  0  0  0  0  0  0  0  0
    6.6087   -9.4518    2.7985 C   0  0  0  0  0  0  0  0  0  0  0  0
    6.5805  -10.7461    4.0584 S   0  0  0  0  0  0  0  0  0  0  0  0
    4.9149  -10.3527    4.6519 C   0  0  0  0  0  0  0  0  0  0  0  0
    4.8385  -10.3065    6.0442 O   0  0  0  0  0  0  0  0  0  0  0  0
    4.2046  -11.4927    6.4593 C   0  0  0  0  0  0  0  0  0  0  0  0
    3.2533  -11.7396    5.3020 C   0  0  0  0  0  0  0  0  0  0  0  0
    4.0060  -11.3037    4.1895 O   0  0  0  0  0  0  0  0  0  0  0  0
    4.5192   -8.9390    4.0770 C   0  0  2  0  0  0  0  0  0  0  0  0
    2.9739   -8.8380    3.9730 C   0  0  0  0  0  0  0  0  0  0  0  0
    5.0805   -7.8221    4.9850 C   0  0  0  0  0  0  0  0  0  0  0  0
    4.7733   -6.4236    4.4287 C   0  0  0  0  0  0  0  0  0  0  0  0
    5.2809   -6.1347    2.9733 C   0  0  2  0  0  0  0  0  0  0  0  0
    6.8034   -5.8591    3.1418 C   0  0  0  0  0  0  0  0  0  0  0  0
    2.8608   -4.1221   -1.4106 H   0  0  0  0  0  0  0  0  0  0  0  0
    2.8303   -2.4233   -1.0977 H   0  0  0  0  0  0  0  0  0  0  0  0
    2.2265   -3.5155    0.1131 H   0  0  0  0  0  0  0  0  0  0  0  0
    5.3399   -4.3778   -1.8179 H   0  0  0  0  0  0  0  0  0  0  0  0
    6.4623   -3.3745   -0.9003 H   0  0  0  0  0  0  0  0  0  0  0  0
    5.2341   -2.6378   -1.9232 H   0  0  0  0  0  0  0  0  0  0  0  0
    5.0347    0.7741    0.2693 H   0  0  0  0  0  0  0  0  0  0  0  0
    5.2396   -1.4155    2.7186 H   0  0  0  0  0  0  0  0  0  0  0  0
    2.1469   -1.0531    1.1207 H   0  0  0  0  0  0  0  0  0  0  0  0
    0.1452   -0.7756    2.9794 H   0  0  0  0  0  0  0  0  0  0  0  0
    3.4683   -2.3224    4.9174 H   0  0  0  0  0  0  0  0  0  0  0  0
    6.1985   -3.4721    2.6086 H   0  0  0  0  0  0  0  0  0  0  0  0
    5.1354   -3.5068    3.9773 H   0  0  0  0  0  0  0  0  0  0  0  0
    2.5421   -5.8302    2.5971 H   0  0  0  0  0  0  0  0  0  0  0  0
    2.4256   -4.1871    2.0701 H   0  0  0  0  0  0  0  0  0  0  0  0
    2.8371   -4.5454    3.7133 H   0  0  0  0  0  0  0  0  0  0  0  0
    5.8301   -4.9080    0.7040 H   0  0  0  0  0  0  0  0  0  0  0  0
    3.1874   -5.9087   -0.2969 H   0  0  0  0  0  0  0  0  0  0  0  0
    4.8304   -6.2981   -0.7481 H   0  0  0  0  0  0  0  0  0  0  0  0
    3.1049   -7.4166    1.4116 H   0  0  0  0  0  0  0  0  0  0  0  0
    4.1715   -8.1957    0.3082 H   0  0  0  0  0  0  0  0  0  0  0  0
    6.0838   -7.4010    1.4133 H   0  0  0  0  0  0  0  0  0  0  0  0
    4.6598   -9.5238    2.0526 H   0  0  0  0  0  0  0  0  0  0  0  0
    6.9243   -9.8607    1.8373 H   0  0  0  0  0  0  0  0  0  0  0  0
    7.3631   -8.7345    3.1046 H   0  0  0  0  0  0  0  0  0  0  0  0
    4.9211  -12.3073    6.5559 H   0  0  0  0  0  0  0  0  0  0  0  0
    3.6874  -11.3652    7.4104 H   0  0  0  0  0  0  0  0  0  0  0  0
    2.9277  -12.7740    5.2156 H   0  0  0  0  0  0  0  0  0  0  0  0
    2.3583  -11.1276    5.4177 H   0  0  0  0  0  0  0  0  0  0  0  0
    2.5029   -8.9472    4.9474 H   0  0  0  0  0  0  0  0  0  0  0  0
    2.5590   -9.5949    3.3111 H   0  0  0  0  0  0  0  0  0  0  0  0
    2.6324   -7.8932    3.5703 H   0  0  0  0  0  0  0  0  0  0  0  0
    4.6227   -7.8850    5.9746 H   0  0  0  0  0  0  0  0  0  0  0  0
    6.1529   -7.9456    5.1513 H   0  0  0  0  0  0  0  0  0  0  0  0
    3.7037   -6.2960    4.5511 H   0  0  0  0  0  0  0  0  0  0  0  0
    5.1953   -5.6902    5.1158 H   0  0  0  0  0  0  0  0  0  0  0  0
    7.3435   -6.7113    3.5396 H   0  0  0  0  0  0  0  0  0  0  0  0
    6.9984   -5.0693    3.8621 H   0  0  0  0  0  0  0  0  0  0  0  0
    7.2942   -5.5917    2.2070 H   0  0  0  0  0  0  0  0  0  0  0  0
  1  2  1  0
  1 34  1  0
  1 35  1  0
  1 36  1  0
  2 16  1  0
  2  3  1  0
  2  4  1  0
  3 37  1  0
  3 38  1  0
  3 39  1  0
  4  5  2  3
  4  7  1  0
  5  6  1  0
  6 40  1  0
  7  8  1  0
  7 13  1  0
  7 41  1  1
  8 12  1  0
  8  9  1  0
  9 10  2  0
  9 42  1  0
 10 11  1  0
 10 43  1  0
 11 12  2  0
 12 44  1  0
 13 14  1  0
 13 45  1  0
 13 46  1  0
 14 32  1  0
 14 15  1  6
 14 16  1  0
 15 47  1  0
 15 48  1  0
 15 49  1  0
 16 17  1  0
 16 50  1  1
 17 18  1  0
 17 51  1  0
 17 52  1  0
 18 19  1  0
 18 53  1  0
 18 54  1  0
 19 32  1  0
 19 20  1  0
 19 55  1  6
 20 28  1  0
 20 21  1  0
 20 56  1  6
 21 22  1  0
 21 57  1  0
 21 58  1  0
 22 23  1  0
 23 27  1  0
 23 24  1  0
 23 28  1  0
 24 25  1  0
 25 26  1  0
 25 59  1  0
 25 60  1  0
 26 27  1  0
 26 61  1  0
 26 62  1  0
 28 29  1  6
 28 30  1  0
 29 63  1  0
 29 64  1  0
 29 65  1  0
 30 31  1  0
 30 66  1  0
 30 67  1  0
 31 32  1  0
 31 68  1  0
 31 69  1  0
 32 33  1  1
 33 70  1  0
 33 71  1  0
 33 72  1  0
M  END
>  <i_m_ct_stereo_status>  (297) 
1

>  <s_m_source_file>  (297) 
/var/tmp/pbs.5076255.sched01/tmp4185l44a/86vs10_z9v.sdf

>  <i_m_source_file_index>  (297) 
42

>  <i_lp_mmshare_version>  (297) 
48012

>  <i_f3d_flags>  (297) 
0

>  <s_epik_input>  (297) 
W2NIXTFuW2NIXVtjSF1uMVtDQEBIXShbQ0gyXTIpQyg9Ti9bT0hdKVxDKFtDSDNdKShbQ0gzXSlbQ0BIXShbQ0gyXVtDSDJdMylbQ0BAXTIoW0NIM10pW0NAQF0oW0NIM10pKFtDSDJdW0NIMl00KVtDQEhdM1tDQEBIXShbQ0gyXVM1KVtDQEBdNChbQ0gzXSlDNTZPW0NIMl1bQ0gyXU82

>  <s_epik_cmdline>  (297) 
J2VwaWtfcHl0aG9uJywgJy1waHQnLCAnMi4wJywgJy1waCcsICc3LjAnLCAnLXRuJywgJzgnLCAnLW1hJywgJzIwMCcsICctaW1hZScsICc8aW5maWxlLm1hZT4nLCAnLW9tYWUnLCAnPG91dGZpbGUubWFlPic=

>  <r_lp_tautomer_probability>  (297) 
1

>  <r_epik_Ionization_Penalty>  (297) 
0.987034

>  <r_epik_Ionization_Penalty_Charging>  (297) 
0.98703

>  <r_epik_Ionization_Penalty_Neutral>  (297) 
4.11699e-06

>  <r_epik_State_Penalty>  (297) 
1.0344

>  <r_epik_Charging_Adjusted_Penalty>  (297) 
2.02143

>  <i_epik_Tot_Q>  (297) 
0

>  <i_epik_Tot_abs_Q>  (297) 
0

>  <s_epik_Chemistry_Notes>  (297) 
This compound has an imine and may undergo hydrolysis.

>  <s_lp_Force_Field>  (297) 
OPLS3e

>  <r_lp_Energy>  (297) 
71.6682

>  <b_lp_Chiralities_Consistent>  (297) 
1

>  <s_lp_Variant>  (297) 
88:0-3

>  <s_i_glide_gridfile>  (297) 
pfpi4k_grid

>  <i_i_glide_lignum>  (297) 
42

>  <i_i_glide_rotatable_bonds>  (297) 
2

>  <r_i_docking_score>  (297) 
-2.88249

>  <r_i_glide_ligand_efficiency>  (297) 
-0.0873482

>  <r_i_glide_ligand_efficiency_sa>  (297) 
-0.280172

>  <r_i_glide_ligand_efficiency_ln>  (297) 
-0.641051

>  <r_i_glide_gscore>  (297) 
-2.88249

>  <r_i_glide_lipo>  (297) 
-0.530274

>  <r_i_glide_hbond>  (297) 
-0.32

>  <r_i_glide_metal>  (297) 
-0

>  <r_i_glide_rewards>  (297) 
-0.192767

>  <r_i_glide_evdw>  (297) 
-27.813

>  <r_i_glide_ecoul>  (297) 
-4.17539

>  <r_i_glide_erotb>  (297) 
0.180324

>  <r_i_glide_esite>  (297) 
-0.00281654

>  <r_i_glide_emodel>  (297) 
-37.5581

>  <r_i_glide_energy>  (297) 
-31.9884

>  <r_i_glide_einternal>  (297) 
1.04871

>  <r_i_glide_intrahb_reward>  (297) 
-0

>  <i_i_glide_confnum>  (297) 
1

>  <i_i_glide_posenum>  (297) 
29

>  <r_i_glide_eff_state_penalty>  (297) 
0

>  <ligand_id>  (297) 
88

>  <original_smiles>  (297) 
CC1(C)C(=NO)C(n2ccnc2)CC2(C)C1CCC1C3CSC4(OCCO4)C3(C)CCC12C

>  <smiles>  (297) 
[H]ON=C1C([H])(n2c([H])nc([H])c2[H])C([H])([H])C2(C([H])([H])[H])C([H])(C([H])([H])C([H])([H])C3([H])C4([H])C([H])([H])SC5(OC([H])([H])C([H])([H])O5)C4(C([H])([H])[H])C([H])([H])C([H])([H])C32C([H])([H])[H])C1(C([H])([H])[H])C([H])([H])[H]

$$$$
88:2:2
     RDKit          3D

 72 77  0  0  1  0  0  0  0  0999 V2000
   -0.0173   -5.0811    6.0606 C   0  0  0  0  0  0  0  0  0  0  0  0
    1.3650   -5.7922    6.0078 C   0  0  0  0  0  0  0  0  0  0  0  0
    2.0780   -5.3892    7.3346 C   0  0  0  0  0  0  0  0  0  0  0  0
    1.0987   -7.3352    6.0362 C   0  0  0  0  0  0  0  0  0  0  0  0
    0.7083   -7.8508    7.1404 N   0  0  0  0  0  0  0  0  0  0  0  0
    0.4516   -9.2520    7.0562 O   0  0  0  0  0  0  0  0  0  0  0  0
    1.2832   -8.1314    4.7339 C   0  0  1  0  0  0  0  0  0  0  0  0
    0.0154   -8.3759    4.0170 N   0  0  0  0  0  0  0  0  0  0  0  0
   -0.1480   -9.3155    3.0024 C   0  0  0  0  0  0  0  0  0  0  0  0
   -1.4499   -9.2036    2.5633 C   0  0  0  0  0  0  0  0  0  0  0  0
   -2.1113   -8.2131    3.2787 N   0  0  0  0  0  0  0  0  0  0  0  0
   -1.2004   -7.8149    4.1551 C   0  0  0  0  0  0  0  0  0  0  0  0
    2.4122   -7.5745    3.8409 C   0  0  0  0  0  0  0  0  0  0  0  0
    2.3595   -6.0605    3.4753 C   0  0  1  0  0  0  0  0  0  0  0  0
    1.0573   -5.8398    2.6632 C   0  0  0  0  0  0  0  0  0  0  0  0
    2.3068   -5.2764    4.8293 C   0  0  1  0  0  0  0  0  0  0  0  0
    2.2371   -3.7348    4.6182 C   0  0  0  0  0  0  0  0  0  0  0  0
    2.8005   -3.2127    3.2905 C   0  0  0  0  0  0  0  0  0  0  0  0
    3.9736   -4.0497    2.7600 C   0  0  2  0  0  0  0  0  0  0  0  0
    4.6737   -3.3118    1.5611 C   0  0  1  0  0  0  0  0  0  0  0  0
    6.2073   -3.2792    1.6636 C   0  0  0  0  0  0  0  0  0  0  0  0
    6.8959   -2.9652    0.0200 S   0  0  0  0  0  0  0  0  0  0  0  0
    5.3115   -3.1304   -0.8408 C   0  0  0  0  0  0  0  0  0  0  0  0
    5.3948   -3.9265   -1.9773 O   0  0  0  0  0  0  0  0  0  0  0  0
    5.3957   -3.0657   -3.0818 C   0  0  0  0  0  0  0  0  0  0  0  0
    4.4919   -1.9508   -2.5896 C   0  0  0  0  0  0  0  0  0  0  0  0
    4.8455   -1.8701   -1.2230 O   0  0  0  0  0  0  0  0  0  0  0  0
    4.3026   -3.8081    0.1536 C   0  0  2  0  0  0  0  0  0  0  0  0
    2.8632   -3.4100   -0.2456 C   0  0  0  0  0  0  0  0  0  0  0  0
    4.4780   -5.3415    0.1374 C   0  0  0  0  0  0  0  0  0  0  0  0
    3.5312   -6.0447    1.1197 C   0  0  0  0  0  0  0  0  0  0  0  0
    3.6584   -5.6060    2.6194 C   0  0  2  0  0  0  0  0  0  0  0  0
    4.9354   -6.3402    3.1310 C   0  0  0  0  0  0  0  0  0  0  0  0
    0.0562   -4.0328    6.3518 H   0  0  0  0  0  0  0  0  0  0  0  0
   -0.6670   -5.5385    6.8094 H   0  0  0  0  0  0  0  0  0  0  0  0
   -0.5477   -5.1125    5.1133 H   0  0  0  0  0  0  0  0  0  0  0  0
    2.3074   -4.3215    7.3657 H   0  0  0  0  0  0  0  0  0  0  0  0
    3.0190   -5.9340    7.4582 H   0  0  0  0  0  0  0  0  0  0  0  0
    1.4648   -5.5973    8.2158 H   0  0  0  0  0  0  0  0  0  0  0  0
    0.7784   -9.4967    6.2047 H   0  0  0  0  0  0  0  0  0  0  0  0
    1.6533   -9.1194    5.0137 H   0  0  0  0  0  0  0  0  0  0  0  0
    0.6456   -9.9743    2.6704 H   0  0  0  0  0  0  0  0  0  0  0  0
   -1.9572   -9.7749    1.8077 H   0  0  0  0  0  0  0  0  0  0  0  0
   -1.4444   -7.0657    4.8920 H   0  0  0  0  0  0  0  0  0  0  0  0
    3.3092   -7.7574    4.4340 H   0  0  0  0  0  0  0  0  0  0  0  0
    2.5176   -8.1888    2.9428 H   0  0  0  0  0  0  0  0  0  0  0  0
    1.0595   -4.9107    2.1109 H   0  0  0  0  0  0  0  0  0  0  0  0
    0.1806   -5.8002    3.2912 H   0  0  0  0  0  0  0  0  0  0  0  0
    0.8926   -6.6386    1.9374 H   0  0  0  0  0  0  0  0  0  0  0  0
    3.3098   -5.4355    5.2256 H   0  0  0  0  0  0  0  0  0  0  0  0
    1.2260   -3.3419    4.6998 H   0  0  0  0  0  0  0  0  0  0  0  0
    2.8025   -3.2652    5.4232 H   0  0  0  0  0  0  0  0  0  0  0  0
    2.0089   -3.1241    2.5511 H   0  0  0  0  0  0  0  0  0  0  0  0
    3.1319   -2.1863    3.4578 H   0  0  0  0  0  0  0  0  0  0  0  0
    4.6877   -3.9635    3.5817 H   0  0  0  0  0  0  0  0  0  0  0  0
    4.3835   -2.2627    1.5896 H   0  0  0  0  0  0  0  0  0  0  0  0
    6.5123   -2.5001    2.3602 H   0  0  0  0  0  0  0  0  0  0  0  0
    6.6262   -4.2174    2.0135 H   0  0  0  0  0  0  0  0  0  0  0  0
    6.4062   -2.7003   -3.2580 H   0  0  0  0  0  0  0  0  0  0  0  0
    5.0277   -3.5556   -3.9822 H   0  0  0  0  0  0  0  0  0  0  0  0
    4.6361   -1.0054   -3.1066 H   0  0  0  0  0  0  0  0  0  0  0  0
    3.4453   -2.2379   -2.6985 H   0  0  0  0  0  0  0  0  0  0  0  0
    2.6191   -3.7455   -1.2525 H   0  0  0  0  0  0  0  0  0  0  0  0
    2.7065   -2.3336   -0.2012 H   0  0  0  0  0  0  0  0  0  0  0  0
    2.1158   -3.8290    0.4137 H   0  0  0  0  0  0  0  0  0  0  0  0
    4.2413   -5.7221   -0.8514 H   0  0  0  0  0  0  0  0  0  0  0  0
    5.5139   -5.6359    0.3171 H   0  0  0  0  0  0  0  0  0  0  0  0
    2.5364   -5.9200    0.7048 H   0  0  0  0  0  0  0  0  0  0  0  0
    3.7015   -7.1166    1.0377 H   0  0  0  0  0  0  0  0  0  0  0  0
    5.8278   -6.0433    2.5927 H   0  0  0  0  0  0  0  0  0  0  0  0
    4.8921   -7.4207    2.9932 H   0  0  0  0  0  0  0  0  0  0  0  0
    5.1322   -6.1525    4.1855 H   0  0  0  0  0  0  0  0  0  0  0  0
  1  2  1  0
  1 34  1  0
  1 35  1  0
  1 36  1  0
  2 16  1  0
  2  3  1  0
  2  4  1  0
  3 37  1  0
  3 38  1  0
  3 39  1  0
  4  5  2  3
  4  7  1  0
  5  6  1  0
  6 40  1  0
  7  8  1  0
  7 13  1  0
  7 41  1  1
  8 12  1  0
  8  9  1  0
  9 10  2  0
  9 42  1  0
 10 11  1  0
 10 43  1  0
 11 12  2  0
 12 44  1  0
 13 14  1  0
 13 45  1  0
 13 46  1  0
 14 32  1  0
 14 15  1  6
 14 16  1  0
 15 47  1  0
 15 48  1  0
 15 49  1  0
 16 17  1  0
 16 50  1  1
 17 18  1  0
 17 51  1  0
 17 52  1  0
 18 19  1  0
 18 53  1  0
 18 54  1  0
 19 32  1  0
 19 20  1  0
 19 55  1  1
 20 28  1  0
 20 21  1  0
 20 56  1  6
 21 22  1  0
 21 57  1  0
 21 58  1  0
 22 23  1  0
 23 27  1  0
 23 24  1  0
 23 28  1  0
 24 25  1  0
 25 26  1  0
 25 59  1  0
 25 60  1  0
 26 27  1  0
 26 61  1  0
 26 62  1  0
 28 29  1  6
 28 30  1  0
 29 63  1  0
 29 64  1  0
 29 65  1  0
 30 31  1  0
 30 66  1  0
 30 67  1  0
 31 32  1  0
 31 68  1  0
 31 69  1  0
 32 33  1  1
 33 70  1  0
 33 71  1  0
 33 72  1  0
M  END
>  <i_m_ct_stereo_status>  (298) 
1

>  <s_m_source_file>  (298) 
/var/tmp/pbs.5076255.sched01/tmp4185l44a/86vs10_z9v.sdf

>  <i_m_source_file_index>  (298) 
42

>  <i_lp_mmshare_version>  (298) 
48012

>  <i_f3d_flags>  (298) 
0

>  <s_epik_input>  (298) 
W2NIXTFuW2NIXVtjSF1uMVtDQEBIXShbQ0gyXTIpQyg9Ti9bT0hdKVxDKFtDSDNdKShbQ0gzXSlbQ0BIXShbQ0gyXVtDSDJdMylbQ0BAXTIoW0NIM10pW0NAQF0oW0NIM10pKFtDSDJdW0NIMl00KVtDQEhdM1tDQEBIXShbQ0gyXVM1KVtDQEBdNChbQ0gzXSlDNTZPW0NIMl1bQ0gyXU82

>  <s_epik_cmdline>  (298) 
J2VwaWtfcHl0aG9uJywgJy1waHQnLCAnMi4wJywgJy1waCcsICc3LjAnLCAnLXRuJywgJzgnLCAnLW1hJywgJzIwMCcsICctaW1hZScsICc8aW5maWxlLm1hZT4nLCAnLW9tYWUnLCAnPG91dGZpbGUubWFlPic=

>  <r_lp_tautomer_probability>  (298) 
1

>  <r_epik_Ionization_Penalty>  (298) 
0.987034

>  <r_epik_Ionization_Penalty_Charging>  (298) 
0.98703

>  <r_epik_Ionization_Penalty_Neutral>  (298) 
4.11699e-06

>  <r_epik_State_Penalty>  (298) 
1.0344

>  <r_epik_Charging_Adjusted_Penalty>  (298) 
2.02143

>  <i_epik_Tot_Q>  (298) 
0

>  <i_epik_Tot_abs_Q>  (298) 
0

>  <s_epik_Chemistry_Notes>  (298) 
This compound has an imine and may undergo hydrolysis.

>  <s_lp_Force_Field>  (298) 
OPLS3e

>  <r_lp_Energy>  (298) 
71.6682

>  <b_lp_Chiralities_Consistent>  (298) 
1

>  <s_lp_Variant>  (298) 
88:0-3

>  <s_i_glide_gridfile>  (298) 
pfpi4k_grid

>  <i_i_glide_lignum>  (298) 
42

>  <i_i_glide_rotatable_bonds>  (298) 
2

>  <r_i_docking_score>  (298) 
-2.86464

>  <r_i_glide_ligand_efficiency>  (298) 
-0.0868072

>  <r_i_glide_ligand_efficiency_sa>  (298) 
-0.278437

>  <r_i_glide_ligand_efficiency_ln>  (298) 
-0.63708

>  <r_i_glide_gscore>  (298) 
-2.86464

>  <r_i_glide_lipo>  (298) 
-0.599088

>  <r_i_glide_hbond>  (298) 
0

>  <r_i_glide_metal>  (298) 
-0

>  <r_i_glide_rewards>  (298) 
-0.236188

>  <r_i_glide_evdw>  (298) 
-36.6699

>  <r_i_glide_ecoul>  (298) 
-1.12565

>  <r_i_glide_erotb>  (298) 
0.180324

>  <r_i_glide_esite>  (298) 
-0.207341

>  <r_i_glide_emodel>  (298) 
-43.7252

>  <r_i_glide_energy>  (298) 
-37.7956

>  <r_i_glide_einternal>  (298) 
0.0531654

>  <r_i_glide_intrahb_reward>  (298) 
-0

>  <i_i_glide_confnum>  (298) 
3

>  <i_i_glide_posenum>  (298) 
27

>  <r_i_glide_eff_state_penalty>  (298) 
0

>  <ligand_id>  (298) 
88

>  <original_smiles>  (298) 
CC1(C)C(=NO)C(n2ccnc2)CC2(C)C1CCC1C3CSC4(OCCO4)C3(C)CCC12C

>  <smiles>  (298) 
[H]ON=C1C([H])(n2c([H])nc([H])c2[H])C([H])([H])C2(C([H])([H])[H])C([H])(C([H])([H])C([H])([H])C3([H])C4([H])C([H])([H])SC5(OC([H])([H])C([H])([H])O5)C4(C([H])([H])[H])C([H])([H])C([H])([H])C32C([H])([H])[H])C1(C([H])([H])[H])C([H])([H])[H]

$$$$
89:0:0
     RDKit          3D

 66 70  0  0  1  0  0  0  0  0999 V2000
    4.8488   -6.7144    0.7357 C   0  0  0  0  0  0  0  0  0  0  0  0
    4.4169   -6.0532    2.0581 C   0  0  2  0  0  0  0  0  0  0  0  0
    2.8257   -5.8167    2.1410 C   0  0  0  0  0  0  0  0  0  0  0  0
    2.2833   -4.4867    2.8394 C   0  0  1  0  0  0  0  0  0  0  0  0
    1.7619   -4.7618    4.1335 O   0  0  0  0  0  0  0  0  0  0  0  0
    3.4489   -3.4498    2.7517 C   0  0  2  0  0  0  0  0  0  0  0  0
    3.4360   -3.3115    1.1680 C   0  0  0  0  0  0  0  0  0  0  0  0
    4.1515   -2.0624    0.8274 C   0  0  2  0  0  0  0  0  0  0  0  0
    3.8404   -1.5387   -0.6090 C   0  0  0  0  0  0  0  0  0  0  0  0
    3.8253   -2.5675   -1.7118 N   0  0  0  0  0  0  0  0  0  0  0  0
    2.8027   -2.2453   -2.7523 C   0  0  0  0  0  0  0  0  0  0  0  0
    2.7730   -3.3018   -3.8651 C   0  0  0  0  0  0  0  0  0  0  0  0
    4.0690   -3.4097   -4.4098 O   0  0  0  0  0  0  0  0  0  0  0  0
    5.0357   -3.8089   -3.4739 C   0  0  0  0  0  0  0  0  0  0  0  0
    5.1405   -2.7756   -2.3683 C   0  0  0  0  0  0  0  0  0  0  0  0
    5.6803   -2.4844    0.9996 C   0  0  1  0  0  0  0  0  0  0  0  0
    6.5334   -1.4278    1.3944 O   0  0  0  0  0  0  0  0  0  0  0  0
    6.1422   -3.9166    1.5657 C   0  0  0  0  0  0  0  0  0  0  0  0
    5.3823   -4.8865    2.5791 C   0  0  1  0  0  0  0  0  0  0  0  0
    4.5128   -4.1918    3.5921 C   0  0  1  0  0  0  0  0  0  0  0  0
    4.9019   -3.5963    4.9812 C   0  0  0  0  0  0  0  0  0  0  0  0
    3.7696   -2.6680    5.5951 C   0  0  0  0  0  0  0  0  0  0  0  0
    2.9015   -1.8050    4.5871 C   0  0  1  0  0  0  0  0  0  0  0  0
    2.6569   -0.3712    5.1042 C   0  0  0  0  0  0  0  0  0  0  0  0
    3.5613   -1.9374    3.2059 C   0  0  1  0  0  0  0  0  0  0  0  0
    4.8599   -1.3977    3.5000 O   0  0  0  0  0  0  0  0  0  0  0  0
    3.3730   -1.1640    1.8867 C   0  0  1  0  0  0  0  0  0  0  0  0
    3.8135    0.1832    1.8627 O   0  0  0  0  0  0  0  0  0  0  0  0
    4.7042   -6.0712   -0.1332 H   0  0  0  0  0  0  0  0  0  0  0  0
    4.2747   -7.6271    0.5593 H   0  0  0  0  0  0  0  0  0  0  0  0
    5.8992   -7.0013    0.7737 H   0  0  0  0  0  0  0  0  0  0  0  0
    4.5833   -6.8472    2.7901 H   0  0  0  0  0  0  0  0  0  0  0  0
    2.4264   -5.8527    1.1243 H   0  0  0  0  0  0  0  0  0  0  0  0
    2.3649   -6.6812    2.6223 H   0  0  0  0  0  0  0  0  0  0  0  0
    1.4020   -4.1368    2.3148 H   0  0  0  0  0  0  0  0  0  0  0  0
    2.4605   -5.0695    4.6904 H   0  0  0  0  0  0  0  0  0  0  0  0
    3.8148   -4.1308    0.5662 H   0  0  0  0  0  0  0  0  0  0  0  0
    2.4162   -3.1835    0.7930 H   0  0  0  0  0  0  0  0  0  0  0  0
    2.8654   -1.0711   -0.5612 H   0  0  0  0  0  0  0  0  0  0  0  0
    4.4966   -0.7078   -0.8667 H   0  0  0  0  0  0  0  0  0  0  0  0
    1.8143   -2.2169   -2.3094 H   0  0  0  0  0  0  0  0  0  0  0  0
    3.0077   -1.2613   -3.1839 H   0  0  0  0  0  0  0  0  0  0  0  0
    2.4208   -4.2623   -3.4993 H   0  0  0  0  0  0  0  0  0  0  0  0
    2.0899   -3.0194   -4.6644 H   0  0  0  0  0  0  0  0  0  0  0  0
    4.8273   -4.7873   -3.0637 H   0  0  0  0  0  0  0  0  0  0  0  0
    5.9989   -3.8602   -3.9655 H   0  0  0  0  0  0  0  0  0  0  0  0
    5.4794   -1.8199   -2.7714 H   0  0  0  0  0  0  0  0  0  0  0  0
    5.9168   -3.1924   -1.7567 H   0  0  0  0  0  0  0  0  0  0  0  0
    6.0872   -2.5146    0.0320 H   0  0  0  0  0  0  0  0  0  0  0  0
    6.2776   -1.1606    2.2697 H   0  0  0  0  0  0  0  0  0  0  0  0
    6.4427   -4.5145    0.7070 H   0  0  0  0  0  0  0  0  0  0  0  0
    7.0892   -3.7219    2.0585 H   0  0  0  0  0  0  0  0  0  0  0  0
    6.1777   -5.3998    3.1207 H   0  0  0  0  0  0  0  0  0  0  0  0
    4.0978   -5.0645    4.0978 H   0  0  0  0  0  0  0  0  0  0  0  0
    5.1037   -4.3996    5.6887 H   0  0  0  0  0  0  0  0  0  0  0  0
    5.8496   -3.0630    4.9179 H   0  0  0  0  0  0  0  0  0  0  0  0
    3.0905   -3.2717    6.1947 H   0  0  0  0  0  0  0  0  0  0  0  0
    4.2497   -2.0019    6.3147 H   0  0  0  0  0  0  0  0  0  0  0  0
    1.9080   -2.2483    4.5067 H   0  0  0  0  0  0  0  0  0  0  0  0
    3.5782    0.1829    5.2841 H   0  0  0  0  0  0  0  0  0  0  0  0
    2.1228   -0.4146    6.0540 H   0  0  0  0  0  0  0  0  0  0  0  0
    2.0371    0.2033    4.4163 H   0  0  0  0  0  0  0  0  0  0  0  0
    4.7565   -0.4675    3.6367 H   0  0  0  0  0  0  0  0  0  0  0  0
    2.3048   -1.1264    1.6481 H   0  0  0  0  0  0  0  0  0  0  0  0
    3.2030    0.7252    2.3368 H   0  0  0  0  0  0  0  0  0  0  0  0
    3.5266   -3.4474   -1.3240 H   0  0  0  0  0  0  0  0  0  0  0  0
  1  2  1  0
  1 29  1  0
  1 30  1  0
  1 31  1  0
  2 19  1  0
  2  3  1  0
  2 32  1  1
  3  4  1  0
  3 33  1  0
  3 34  1  0
  4  5  1  0
  4  6  1  0
  4 35  1  6
  5 36  1  0
  6 20  1  0
  6 25  1  0
  6  7  1  6
  7  8  1  0
  7 37  1  0
  7 38  1  0
  8 27  1  0
  8  9  1  6
  8 16  1  0
  9 10  1  0
  9 39  1  0
  9 40  1  0
 10 15  1  0
 10 11  1  0
 10 66  1  0
 11 12  1  0
 11 41  1  0
 11 42  1  0
 12 13  1  0
 12 43  1  0
 12 44  1  0
 13 14  1  0
 14 15  1  0
 14 45  1  0
 14 46  1  0
 15 47  1  0
 15 48  1  0
 16 17  1  0
 16 18  1  0
 16 49  1  6
 17 50  1  0
 18 19  1  0
 18 51  1  0
 18 52  1  0
 19 20  1  0
 19 53  1  1
 20 21  1  0
 20 54  1  1
 21 22  1  0
 21 55  1  0
 21 56  1  0
 22 23  1  0
 22 57  1  0
 22 58  1  0
 23 24  1  0
 23 25  1  0
 23 59  1  6
 24 60  1  0
 24 61  1  0
 24 62  1  0
 25 26  1  1
 25 27  1  0
 26 63  1  0
 27 28  1  0
 27 64  1  6
 28 65  1  0
M  CHG  1  10   1
M  END
>  <i_m_ct_stereo_status>  (299) 
1

>  <s_m_source_file>  (299) 
/var/tmp/pbs.5076255.sched01/tmpimq9cq4v/129n8p27m2m.sdf

>  <i_m_source_file_index>  (299) 
1

>  <i_lp_mmshare_version>  (299) 
48012

>  <i_f3d_flags>  (299) 
0

>  <s_epik_input>  (299) 
W09IXVtDQEBIXTFbQ0gyXVtDQEBIXShbQ0gzXSlbQ0BIXShbQ0hdMltDQF0xMzQpW0NIMl1bQ0BIXShbT0hdKVtDQEBdKFtDSDJdMykoW0NASF0oW09IXSlbQ0BAXTQoW09IXSlbQ0BIXShbQ0gzXSlbQ0gyXVtDSDJdMilbQ0gyXU41W0NIMl1bQ0gyXU9bQ0gyXVtDSDJdNQ==

>  <s_epik_cmdline>  (299) 
J2VwaWtfcHl0aG9uJywgJy1waHQnLCAnMi4wJywgJy1waCcsICc3LjAnLCAnLXRuJywgJzgnLCAnLW1hJywgJzIwMCcsICctaW1hZScsICc8aW5maWxlLm1hZT4nLCAnLW9tYWUnLCAnPG91dGZpbGUubWFlPic=

>  <r_epik_Ionization_Penalty>  (299) 
0.398667

>  <r_epik_Ionization_Penalty_Charging>  (299) 
0.398665

>  <r_epik_Ionization_Penalty_Neutral>  (299) 
1.96546e-06

>  <r_epik_State_Penalty>  (299) 
0.397868

>  <r_epik_Charging_Adjusted_Penalty>  (299) 
0.796533

>  <i_epik_Tot_Q>  (299) 
1

>  <i_epik_Tot_abs_Q>  (299) 
1

>  <s_lp_Force_Field>  (299) 
OPLS3e

>  <r_lp_Energy>  (299) 
179.589

>  <b_lp_Chiralities_Consistent>  (299) 
1

>  <s_lp_Variant>  (299) 
89:0-1

>  <s_i_glide_gridfile>  (299) 
pfpi4k_grid

>  <i_i_glide_lignum>  (299) 
1

>  <i_i_glide_rotatable_bonds>  (299) 
6

>  <r_i_docking_score>  (299) 
-4.12502

>  <r_i_glide_ligand_efficiency>  (299) 
-0.147322

>  <r_i_glide_ligand_efficiency_sa>  (299) 
-0.447357

>  <r_i_glide_ligand_efficiency_ln>  (299) 
-0.952176

>  <r_i_glide_gscore>  (299) 
-4.12502

>  <r_i_glide_lipo>  (299) 
-0.665194

>  <r_i_glide_hbond>  (299) 
-0.169376

>  <r_i_glide_metal>  (299) 
-0

>  <r_i_glide_rewards>  (299) 
-1.2054

>  <r_i_glide_evdw>  (299) 
-23.9502

>  <r_i_glide_ecoul>  (299) 
-7.39698

>  <r_i_glide_erotb>  (299) 
0.248859

>  <r_i_glide_esite>  (299) 
-0.0268483

>  <r_i_glide_emodel>  (299) 
-44.357

>  <r_i_glide_energy>  (299) 
-31.3472

>  <r_i_glide_einternal>  (299) 
2.01893

>  <r_i_glide_intrahb_reward>  (299) 
-0.5

>  <i_i_glide_confnum>  (299) 
1

>  <i_i_glide_posenum>  (299) 
17

>  <r_i_glide_eff_state_penalty>  (299) 
0

>  <ligand_id>  (299) 
89

>  <original_smiles>  (299) 
CC1CC(O)C23CC4(CN5CCOCC5)C(O)CC1C2CCC(C)C3(O)C4O

>  <smiles>  (299) 
[H]OC1([H])C([H])([H])C([H])(C([H])([H])[H])C2([H])C([H])([H])C([H])(O[H])C3(C([H])([H])[N+]4([H])C([H])([H])C([H])([H])OC([H])([H])C4([H])[H])C([H])([H])C14C2([H])C([H])([H])C([H])([H])C([H])(C([H])([H])[H])C4(O[H])C3([H])O[H]

$$$$
89:0:1
     RDKit          3D

 66 70  0  0  1  0  0  0  0  0999 V2000
    5.1117   -6.3611    0.8220 C   0  0  0  0  0  0  0  0  0  0  0  0
    4.5588   -5.6986    2.0981 C   0  0  2  0  0  0  0  0  0  0  0  0
    2.9465   -5.6264    2.1039 C   0  0  0  0  0  0  0  0  0  0  0  0
    2.2566   -4.3303    2.7268 C   0  0  1  0  0  0  0  0  0  0  0  0
    1.7019   -4.6348    3.9991 O   0  0  0  0  0  0  0  0  0  0  0  0
    3.3077   -3.1876    2.6531 C   0  0  2  0  0  0  0  0  0  0  0  0
    3.3546   -3.1054    1.0604 C   0  0  0  0  0  0  0  0  0  0  0  0
    3.9400   -1.8110    0.6987 C   0  0  2  0  0  0  0  0  0  0  0  0
    3.6737   -1.3664   -0.7775 C   0  0  0  0  0  0  0  0  0  0  0  0
    3.6597   -2.4700   -1.8137 N   0  0  0  0  0  0  0  0  0  0  0  0
    2.6416   -2.2228   -2.8513 C   0  0  0  0  0  0  0  0  0  0  0  0
    2.6102   -3.3332   -3.8912 C   0  0  0  0  0  0  0  0  0  0  0  0
    3.9046   -3.4575   -4.4413 O   0  0  0  0  0  0  0  0  0  0  0  0
    4.8761   -3.8021   -3.4965 C   0  0  0  0  0  0  0  0  0  0  0  0
    4.9759   -2.7178   -2.4593 C   0  0  0  0  0  0  0  0  0  0  0  0
    5.4881   -2.0759    0.9522 C   0  0  1  0  0  0  0  0  0  0  0  0
    6.2134   -0.9192    1.2881 O   0  0  0  0  0  0  0  0  0  0  0  0
    6.0737   -3.4264    1.5714 C   0  0  0  0  0  0  0  0  0  0  0  0
    5.3830   -4.4227    2.6012 C   0  0  1  0  0  0  0  0  0  0  0  0
    4.4022   -3.7906    3.5595 C   0  0  1  0  0  0  0  0  0  0  0  0
    4.6779   -3.1101    4.9312 C   0  0  0  0  0  0  0  0  0  0  0  0
    3.4238   -2.2900    5.4683 C   0  0  0  0  0  0  0  0  0  0  0  0
    2.5061   -1.5592    4.4039 C   0  0  1  0  0  0  0  0  0  0  0  0
    2.1050   -0.1354    4.8363 C   0  0  0  0  0  0  0  0  0  0  0  0
    3.2287   -1.6692    3.0608 C   0  0  1  0  0  0  0  0  0  0  0  0
    4.4392   -0.9777    3.3750 O   0  0  0  0  0  0  0  0  0  0  0  0
    3.0372   -0.9590    1.7031 C   0  0  1  0  0  0  0  0  0  0  0  0
    3.3145    0.4277    1.6624 O   0  0  0  0  0  0  0  0  0  0  0  0
    4.9350   -5.7589   -0.0721 H   0  0  0  0  0  0  0  0  0  0  0  0
    4.6329   -7.3296    0.6559 H   0  0  0  0  0  0  0  0  0  0  0  0
    6.1856   -6.5380    0.9023 H   0  0  0  0  0  0  0  0  0  0  0  0
    4.7667   -6.4465    2.8722 H   0  0  0  0  0  0  0  0  0  0  0  0
    2.6062   -5.7463    1.0673 H   0  0  0  0  0  0  0  0  0  0  0  0
    2.5567   -6.5114    2.6094 H   0  0  0  0  0  0  0  0  0  0  0  0
    1.3788   -4.0928    2.1449 H   0  0  0  0  0  0  0  0  0  0  0  0
    2.3944   -4.8664    4.5943 H   0  0  0  0  0  0  0  0  0  0  0  0
    3.8374   -3.9038    0.5083 H   0  0  0  0  0  0  0  0  0  0  0  0
    2.3459   -3.0906    0.6433 H   0  0  0  0  0  0  0  0  0  0  0  0
    2.7057   -0.8764   -0.7748 H   0  0  0  0  0  0  0  0  0  0  0  0
    4.3480   -0.5594   -1.0483 H   0  0  0  0  0  0  0  0  0  0  0  0
    1.6512   -2.2440   -2.4087 H   0  0  0  0  0  0  0  0  0  0  0  0
    2.7964   -1.2601   -3.3376 H   0  0  0  0  0  0  0  0  0  0  0  0
    2.2537   -4.2524   -3.4694 H   0  0  0  0  0  0  0  0  0  0  0  0
    1.9127   -3.0886   -4.7030 H   0  0  0  0  0  0  0  0  0  0  0  0
    4.6522   -4.7500   -3.0424 H   0  0  0  0  0  0  0  0  0  0  0  0
    5.8276   -3.8709   -4.0062 H   0  0  0  0  0  0  0  0  0  0  0  0
    5.3385   -1.8000   -2.9032 H   0  0  0  0  0  0  0  0  0  0  0  0
    5.7408   -3.0901   -1.7831 H   0  0  0  0  0  0  0  0  0  0  0  0
    5.9262   -2.1086   -0.0365 H   0  0  0  0  0  0  0  0  0  0  0  0
    5.8886   -0.1791    0.7919 H   0  0  0  0  0  0  0  0  0  0  0  0
    6.4456   -4.0206    0.7415 H   0  0  0  0  0  0  0  0  0  0  0  0
    6.9931   -3.1103    2.0741 H   0  0  0  0  0  0  0  0  0  0  0  0
    6.2023   -4.8312    3.1879 H   0  0  0  0  0  0  0  0  0  0  0  0
    4.0585   -4.6818    4.0861 H   0  0  0  0  0  0  0  0  0  0  0  0
    4.9223   -3.8536    5.6841 H   0  0  0  0  0  0  0  0  0  0  0  0
    5.5683   -2.4886    4.8766 H   0  0  0  0  0  0  0  0  0  0  0  0
    2.7877   -2.9496    6.0523 H   0  0  0  0  0  0  0  0  0  0  0  0
    3.7757   -1.5443    6.1848 H   0  0  0  0  0  0  0  0  0  0  0  0
    1.5617   -2.1033    4.3006 H   0  0  0  0  0  0  0  0  0  0  0  0
    2.9724    0.5025    5.0193 H   0  0  0  0  0  0  0  0  0  0  0  0
    1.5436   -0.1799    5.7665 H   0  0  0  0  0  0  0  0  0  0  0  0
    1.4753    0.3587    4.0949 H   0  0  0  0  0  0  0  0  0  0  0  0
    4.2515   -0.0547    3.3347 H   0  0  0  0  0  0  0  0  0  0  0  0
    1.9859   -1.0421    1.4220 H   0  0  0  0  0  0  0  0  0  0  0  0
    2.8515    0.8089    0.9293 H   0  0  0  0  0  0  0  0  0  0  0  0
    3.3624   -3.3182   -1.3719 H   0  0  0  0  0  0  0  0  0  0  0  0
  1  2  1  0
  1 29  1  0
  1 30  1  0
  1 31  1  0
  2 19  1  0
  2  3  1  0
  2 32  1  1
  3  4  1  0
  3 33  1  0
  3 34  1  0
  4  5  1  0
  4  6  1  0
  4 35  1  6
  5 36  1  0
  6 20  1  0
  6 25  1  0
  6  7  1  6
  7  8  1  0
  7 37  1  0
  7 38  1  0
  8 27  1  0
  8  9  1  6
  8 16  1  0
  9 10  1  0
  9 39  1  0
  9 40  1  0
 10 15  1  0
 10 11  1  0
 10 66  1  0
 11 12  1  0
 11 41  1  0
 11 42  1  0
 12 13  1  0
 12 43  1  0
 12 44  1  0
 13 14  1  0
 14 15  1  0
 14 45  1  0
 14 46  1  0
 15 47  1  0
 15 48  1  0
 16 17  1  0
 16 18  1  0
 16 49  1  6
 17 50  1  0
 18 19  1  0
 18 51  1  0
 18 52  1  0
 19 20  1  0
 19 53  1  1
 20 21  1  0
 20 54  1  1
 21 22  1  0
 21 55  1  0
 21 56  1  0
 22 23  1  0
 22 57  1  0
 22 58  1  0
 23 24  1  0
 23 25  1  0
 23 59  1  6
 24 60  1  0
 24 61  1  0
 24 62  1  0
 25 26  1  1
 25 27  1  0
 26 63  1  0
 27 28  1  0
 27 64  1  6
 28 65  1  0
M  CHG  1  10   1
M  END
>  <i_m_ct_stereo_status>  (300) 
1

>  <s_m_source_file>  (300) 
/var/tmp/pbs.5076255.sched01/tmpimq9cq4v/129n8p27m2m.sdf

>  <i_m_source_file_index>  (300) 
1

>  <i_lp_mmshare_version>  (300) 
48012

>  <i_f3d_flags>  (300) 
0

>  <s_epik_input>  (300) 
W09IXVtDQEBIXTFbQ0gyXVtDQEBIXShbQ0gzXSlbQ0BIXShbQ0hdMltDQF0xMzQpW0NIMl1bQ0BIXShbT0hdKVtDQEBdKFtDSDJdMykoW0NASF0oW09IXSlbQ0BAXTQoW09IXSlbQ0BIXShbQ0gzXSlbQ0gyXVtDSDJdMilbQ0gyXU41W0NIMl1bQ0gyXU9bQ0gyXVtDSDJdNQ==

>  <s_epik_cmdline>  (300) 
J2VwaWtfcHl0aG9uJywgJy1waHQnLCAnMi4wJywgJy1waCcsICc3LjAnLCAnLXRuJywgJzgnLCAnLW1hJywgJzIwMCcsICctaW1hZScsICc8aW5maWxlLm1hZT4nLCAnLW9tYWUnLCAnPG91dGZpbGUubWFlPic=

>  <r_epik_Ionization_Penalty>  (300) 
0.398667

>  <r_epik_Ionization_Penalty_Charging>  (300) 
0.398665

>  <r_epik_Ionization_Penalty_Neutral>  (300) 
1.96546e-06

>  <r_epik_State_Penalty>  (300) 
0.397868

>  <r_epik_Charging_Adjusted_Penalty>  (300) 
0.796533

>  <i_epik_Tot_Q>  (300) 
1

>  <i_epik_Tot_abs_Q>  (300) 
1

>  <s_lp_Force_Field>  (300) 
OPLS3e

>  <r_lp_Energy>  (300) 
179.589

>  <b_lp_Chiralities_Consistent>  (300) 
1

>  <s_lp_Variant>  (300) 
89:0-1

>  <s_i_glide_gridfile>  (300) 
pfpi4k_grid

>  <i_i_glide_lignum>  (300) 
1

>  <i_i_glide_rotatable_bonds>  (300) 
6

>  <r_i_docking_score>  (300) 
-3.49268

>  <r_i_glide_ligand_efficiency>  (300) 
-0.124738

>  <r_i_glide_ligand_efficiency_sa>  (300) 
-0.378779

>  <r_i_glide_ligand_efficiency_ln>  (300) 
-0.806212

>  <r_i_glide_gscore>  (300) 
-3.49268

>  <r_i_glide_lipo>  (300) 
-0.667674

>  <r_i_glide_hbond>  (300) 
-0.166574

>  <r_i_glide_metal>  (300) 
-0

>  <r_i_glide_rewards>  (300) 
-0.705403

>  <r_i_glide_evdw>  (300) 
-22.3508

>  <r_i_glide_ecoul>  (300) 
-7.01848

>  <r_i_glide_erotb>  (300) 
0.248859

>  <r_i_glide_esite>  (300) 
-0.0315713

>  <r_i_glide_emodel>  (300) 
-35.9531

>  <r_i_glide_energy>  (300) 
-29.3693

>  <r_i_glide_einternal>  (300) 
2.02807

>  <r_i_glide_intrahb_reward>  (300) 
-0

>  <i_i_glide_confnum>  (300) 
1

>  <i_i_glide_posenum>  (300) 
2

>  <r_i_glide_eff_state_penalty>  (300) 
0

>  <ligand_id>  (300) 
89

>  <original_smiles>  (300) 
CC1CC(O)C23CC4(CN5CCOCC5)C(O)CC1C2CCC(C)C3(O)C4O

>  <smiles>  (300) 
[H]OC1([H])C([H])([H])C([H])(C([H])([H])[H])C2([H])C([H])([H])C([H])(O[H])C3(C([H])([H])[N+]4([H])C([H])([H])C([H])([H])OC([H])([H])C4([H])[H])C([H])([H])C14C2([H])C([H])([H])C([H])([H])C([H])(C([H])([H])[H])C4(O[H])C3([H])O[H]

$$$$
89:0:2
     RDKit          3D

 66 70  0  0  1  0  0  0  0  0999 V2000
    4.6577   -7.4120    0.5243 C   0  0  0  0  0  0  0  0  0  0  0  0
    3.9178   -7.0555    1.8092 C   0  0  2  0  0  0  0  0  0  0  0  0
    2.3341   -6.8839    1.5851 C   0  0  0  0  0  0  0  0  0  0  0  0
    1.5733   -5.7491    2.3932 C   0  0  1  0  0  0  0  0  0  0  0  0
    0.8000   -6.2934    3.4521 O   0  0  0  0  0  0  0  0  0  0  0  0
    2.6543   -4.6820    2.7697 C   0  0  2  0  0  0  0  0  0  0  0  0
    2.9715   -4.2197    1.2809 C   0  0  0  0  0  0  0  0  0  0  0  0
    3.6336   -2.9103    1.3508 C   0  0  2  0  0  0  0  0  0  0  0  0
    3.5942   -2.1000    0.0088 C   0  0  0  0  0  0  0  0  0  0  0  0
    3.7743   -2.8814   -1.2521 N   0  0  0  0  0  0  0  0  0  0  0  0
    2.9895   -2.3030   -2.3719 C   0  0  0  0  0  0  0  0  0  0  0  0
    3.1534   -3.1181   -3.6611 C   0  0  0  0  0  0  0  0  0  0  0  0
    4.5309   -3.1899   -3.9964 O   0  0  0  0  0  0  0  0  0  0  0  0
    5.2954   -3.8170   -2.9872 C   0  0  0  0  0  0  0  0  0  0  0  0
    5.1956   -3.0449   -1.6730 C   0  0  0  0  0  0  0  0  0  0  0  0
    5.1200   -3.3127    1.7592 C   0  0  1  0  0  0  0  0  0  0  0  0
    5.7036   -2.3252    2.5788 O   0  0  0  0  0  0  0  0  0  0  0  0
    5.5648   -4.8148    2.1524 C   0  0  0  0  0  0  0  0  0  0  0  0
    4.6769   -5.9969    2.7485 C   0  0  1  0  0  0  0  0  0  0  0  0
    3.5661   -5.5593    3.6633 C   0  0  1  0  0  0  0  0  0  0  0  0
    3.6129   -5.2701    5.1939 C   0  0  0  0  0  0  0  0  0  0  0  0
    2.3107   -4.5218    5.7086 C   0  0  0  0  0  0  0  0  0  0  0  0
    1.6212   -3.4809    4.7271 C   0  0  1  0  0  0  0  0  0  0  0  0
    1.1703   -2.1978    5.4551 C   0  0  0  0  0  0  0  0  0  0  0  0
    2.5661   -3.2998    3.5321 C   0  0  1  0  0  0  0  0  0  0  0  0
    3.7344   -2.8139    4.2093 O   0  0  0  0  0  0  0  0  0  0  0  0
    2.6153   -2.2689    2.3844 C   0  0  1  0  0  0  0  0  0  0  0  0
    2.9663   -0.9195    2.6935 O   0  0  0  0  0  0  0  0  0  0  0  0
    4.6501   -6.6019   -0.2156 H   0  0  0  0  0  0  0  0  0  0  0  0
    4.2141   -8.2893    0.0416 H   0  0  0  0  0  0  0  0  0  0  0  0
    5.6939   -7.6661    0.7389 H   0  0  0  0  0  0  0  0  0  0  0  0
    3.9792   -7.9836    2.3858 H   0  0  0  0  0  0  0  0  0  0  0  0
    2.1706   -6.6896    0.5192 H   0  0  0  0  0  0  0  0  0  0  0  0
    1.8414   -7.8434    1.7530 H   0  0  0  0  0  0  0  0  0  0  0  0
    0.7998   -5.3641    1.7479 H   0  0  0  0  0  0  0  0  0  0  0  0
    1.3717   -6.7285    4.0630 H   0  0  0  0  0  0  0  0  0  0  0  0
    3.5294   -4.8839    0.6335 H   0  0  0  0  0  0  0  0  0  0  0  0
    2.0518   -4.0494    0.7296 H   0  0  0  0  0  0  0  0  0  0  0  0
    2.6154   -1.6191   -0.0155 H   0  0  0  0  0  0  0  0  0  0  0  0
    4.2912   -1.2629    0.0643 H   0  0  0  0  0  0  0  0  0  0  0  0
    1.9304   -2.2827   -2.1381 H   0  0  0  0  0  0  0  0  0  0  0  0
    3.2898   -1.2715   -2.5462 H   0  0  0  0  0  0  0  0  0  0  0  0
    2.7284   -4.1177   -3.5629 H   0  0  0  0  0  0  0  0  0  0  0  0
    2.6215   -2.6362   -4.4815 H   0  0  0  0  0  0  0  0  0  0  0  0
    4.9912   -4.8508   -2.8404 H   0  0  0  0  0  0  0  0  0  0  0  0
    6.3381   -3.8535   -3.2955 H   0  0  0  0  0  0  0  0  0  0  0  0
    5.6581   -2.0645   -1.7949 H   0  0  0  0  0  0  0  0  0  0  0  0
    5.7892   -3.6222   -0.9882 H   0  0  0  0  0  0  0  0  0  0  0  0
    5.7441   -3.1111    0.9154 H   0  0  0  0  0  0  0  0  0  0  0  0
    5.7021   -1.4986    2.1231 H   0  0  0  0  0  0  0  0  0  0  0  0
    6.0789   -5.2154    1.2800 H   0  0  0  0  0  0  0  0  0  0  0  0
    6.3727   -4.6911    2.8759 H   0  0  0  0  0  0  0  0  0  0  0  0
    5.3718   -6.5986    3.3325 H   0  0  0  0  0  0  0  0  0  0  0  0
    3.1133   -6.5311    3.8821 H   0  0  0  0  0  0  0  0  0  0  0  0
    3.7115   -6.1977    5.7525 H   0  0  0  0  0  0  0  0  0  0  0  0
    4.5172   -4.7183    5.4469 H   0  0  0  0  0  0  0  0  0  0  0  0
    1.5639   -5.2574    6.0032 H   0  0  0  0  0  0  0  0  0  0  0  0
    2.5698   -4.0066    6.6351 H   0  0  0  0  0  0  0  0  0  0  0  0
    0.6986   -3.9187    4.3401 H   0  0  0  0  0  0  0  0  0  0  0  0
    2.0050   -1.6831    5.9285 H   0  0  0  0  0  0  0  0  0  0  0  0
    0.4561   -2.4479    6.2395 H   0  0  0  0  0  0  0  0  0  0  0  0
    0.6830   -1.5005    4.7750 H   0  0  0  0  0  0  0  0  0  0  0  0
    4.4394   -2.6738    3.5881 H   0  0  0  0  0  0  0  0  0  0  0  0
    1.6178   -2.2056    1.9491 H   0  0  0  0  0  0  0  0  0  0  0  0
    2.7678   -0.3658    1.9589 H   0  0  0  0  0  0  0  0  0  0  0  0
    3.4000   -3.8074   -1.1145 H   0  0  0  0  0  0  0  0  0  0  0  0
  1  2  1  0
  1 29  1  0
  1 30  1  0
  1 31  1  0
  2 19  1  0
  2  3  1  0
  2 32  1  1
  3  4  1  0
  3 33  1  0
  3 34  1  0
  4  5  1  0
  4  6  1  0
  4 35  1  6
  5 36  1  0
  6 20  1  0
  6 25  1  0
  6  7  1  6
  7  8  1  0
  7 37  1  0
  7 38  1  0
  8 27  1  0
  8  9  1  6
  8 16  1  0
  9 10  1  0
  9 39  1  0
  9 40  1  0
 10 15  1  0
 10 11  1  0
 10 66  1  0
 11 12  1  0
 11 41  1  0
 11 42  1  0
 12 13  1  0
 12 43  1  0
 12 44  1  0
 13 14  1  0
 14 15  1  0
 14 45  1  0
 14 46  1  0
 15 47  1  0
 15 48  1  0
 16 17  1  0
 16 18  1  0
 16 49  1  6
 17 50  1  0
 18 19  1  0
 18 51  1  0
 18 52  1  0
 19 20  1  0
 19 53  1  1
 20 21  1  0
 20 54  1  1
 21 22  1  0
 21 55  1  0
 21 56  1  0
 22 23  1  0
 22 57  1  0
 22 58  1  0
 23 24  1  0
 23 25  1  0
 23 59  1  6
 24 60  1  0
 24 61  1  0
 24 62  1  0
 25 26  1  1
 25 27  1  0
 26 63  1  0
 27 28  1  0
 27 64  1  6
 28 65  1  0
M  CHG  1  10   1
M  END
>  <i_m_ct_stereo_status>  (301) 
1

>  <s_m_source_file>  (301) 
/var/tmp/pbs.5076255.sched01/tmpimq9cq4v/129n8p27m2m.sdf

>  <i_m_source_file_index>  (301) 
1

>  <i_lp_mmshare_version>  (301) 
48012

>  <i_f3d_flags>  (301) 
0

>  <s_epik_input>  (301) 
W09IXVtDQEBIXTFbQ0gyXVtDQEBIXShbQ0gzXSlbQ0BIXShbQ0hdMltDQF0xMzQpW0NIMl1bQ0BIXShbT0hdKVtDQEBdKFtDSDJdMykoW0NASF0oW09IXSlbQ0BAXTQoW09IXSlbQ0BIXShbQ0gzXSlbQ0gyXVtDSDJdMilbQ0gyXU41W0NIMl1bQ0gyXU9bQ0gyXVtDSDJdNQ==

>  <s_epik_cmdline>  (301) 
J2VwaWtfcHl0aG9uJywgJy1waHQnLCAnMi4wJywgJy1waCcsICc3LjAnLCAnLXRuJywgJzgnLCAnLW1hJywgJzIwMCcsICctaW1hZScsICc8aW5maWxlLm1hZT4nLCAnLW9tYWUnLCAnPG91dGZpbGUubWFlPic=

>  <r_epik_Ionization_Penalty>  (301) 
0.398667

>  <r_epik_Ionization_Penalty_Charging>  (301) 
0.398665

>  <r_epik_Ionization_Penalty_Neutral>  (301) 
1.96546e-06

>  <r_epik_State_Penalty>  (301) 
0.397868

>  <r_epik_Charging_Adjusted_Penalty>  (301) 
0.796533

>  <i_epik_Tot_Q>  (301) 
1

>  <i_epik_Tot_abs_Q>  (301) 
1

>  <s_lp_Force_Field>  (301) 
OPLS3e

>  <r_lp_Energy>  (301) 
179.589

>  <b_lp_Chiralities_Consistent>  (301) 
1

>  <s_lp_Variant>  (301) 
89:0-1

>  <s_i_glide_gridfile>  (301) 
pfpi4k_grid

>  <i_i_glide_lignum>  (301) 
1

>  <i_i_glide_rotatable_bonds>  (301) 
6

>  <r_i_docking_score>  (301) 
-3.36783

>  <r_i_glide_ligand_efficiency>  (301) 
-0.12028

>  <r_i_glide_ligand_efficiency_sa>  (301) 
-0.36524

>  <r_i_glide_ligand_efficiency_ln>  (301) 
-0.777394

>  <r_i_glide_gscore>  (301) 
-3.36783

>  <r_i_glide_lipo>  (301) 
-0.546486

>  <r_i_glide_hbond>  (301) 
-0.0728274

>  <r_i_glide_metal>  (301) 
-0

>  <r_i_glide_rewards>  (301) 
-0.705403

>  <r_i_glide_evdw>  (301) 
-23.3953

>  <r_i_glide_ecoul>  (301) 
-7.37667

>  <r_i_glide_erotb>  (301) 
0.248859

>  <r_i_glide_esite>  (301) 
-0.0157061

>  <r_i_glide_emodel>  (301) 
-37.2149

>  <r_i_glide_energy>  (301) 
-30.772

>  <r_i_glide_einternal>  (301) 
1.64939

>  <r_i_glide_intrahb_reward>  (301) 
-0

>  <i_i_glide_confnum>  (301) 
1

>  <i_i_glide_posenum>  (301) 
31

>  <r_i_glide_eff_state_penalty>  (301) 
0

>  <ligand_id>  (301) 
89

>  <original_smiles>  (301) 
CC1CC(O)C23CC4(CN5CCOCC5)C(O)CC1C2CCC(C)C3(O)C4O

>  <smiles>  (301) 
[H]OC1([H])C([H])([H])C([H])(C([H])([H])[H])C2([H])C([H])([H])C([H])(O[H])C3(C([H])([H])[N+]4([H])C([H])([H])C([H])([H])OC([H])([H])C4([H])[H])C([H])([H])C14C2([H])C([H])([H])C([H])([H])C([H])(C([H])([H])[H])C4(O[H])C3([H])O[H]

$$$$
89:1:0
     RDKit          3D

 66 70  0  0  1  0  0  0  0  0999 V2000
    4.8247   -0.8552   -2.0669 C   0  0  0  0  0  0  0  0  0  0  0  0
    5.2189   -2.1154   -1.2712 C   0  0  2  0  0  0  0  0  0  0  0  0
    4.1100   -3.2126   -1.4195 C   0  0  0  0  0  0  0  0  0  0  0  0
    4.0057   -4.2753   -0.2857 C   0  0  1  0  0  0  0  0  0  0  0  0
    4.6715   -5.4393   -0.7394 O   0  0  0  0  0  0  0  0  0  0  0  0
    4.3956   -3.6368    1.1087 C   0  0  2  0  0  0  0  0  0  0  0  0
    3.1295   -2.7115    1.2313 C   0  0  0  0  0  0  0  0  0  0  0  0
    3.1690   -2.1832    2.6065 C   0  0  2  0  0  0  0  0  0  0  0  0
    1.8003   -1.5363    2.9945 C   0  0  0  0  0  0  0  0  0  0  0  0
    1.6227   -0.0921    2.6345 N   0  0  0  0  0  0  0  0  0  0  0  0
    0.2023    0.2467    2.3098 C   0  0  0  0  0  0  0  0  0  0  0  0
    0.0841    1.7161    1.9374 C   0  0  0  0  0  0  0  0  0  0  0  0
    0.6066    2.5391    2.9842 O   0  0  0  0  0  0  0  0  0  0  0  0
    1.9812    2.2911    3.2242 C   0  0  0  0  0  0  0  0  0  0  0  0
    2.1169    0.8209    3.7016 C   0  0  0  0  0  0  0  0  0  0  0  0
    4.3642   -1.1059    2.5017 C   0  0  1  0  0  0  0  0  0  0  0  0
    5.2731   -1.2535    3.5947 O   0  0  0  0  0  0  0  0  0  0  0  0
    5.0379   -0.7615    1.0914 C   0  0  0  0  0  0  0  0  0  0  0  0
    5.7617   -1.8223    0.1746 C   0  0  1  0  0  0  0  0  0  0  0  0
    5.8276   -3.0949    0.9800 C   0  0  2  0  0  0  0  0  0  0  0  0
    6.7763   -4.2962    0.7372 C   0  0  0  0  0  0  0  0  0  0  0  0
    6.4055   -5.6155    1.5711 C   0  0  0  0  0  0  0  0  0  0  0  0
    4.9617   -5.7552    2.2501 C   0  0  1  0  0  0  0  0  0  0  0  0
    5.0008   -6.7436    3.4289 C   0  0  0  0  0  0  0  0  0  0  0  0
    4.4752   -4.3145    2.5293 C   0  0  1  0  0  0  0  0  0  0  0  0
    5.4578   -3.9430    3.5190 O   0  0  0  0  0  0  0  0  0  0  0  0
    3.2674   -3.6248    3.2595 C   0  0  1  0  0  0  0  0  0  0  0  0
    3.2790   -3.5319    4.6957 O   0  0  0  0  0  0  0  0  0  0  0  0
    3.8947   -0.3973   -1.7198 H   0  0  0  0  0  0  0  0  0  0  0  0
    4.6889   -1.0735   -3.1228 H   0  0  0  0  0  0  0  0  0  0  0  0
    5.5974   -0.0938   -2.0038 H   0  0  0  0  0  0  0  0  0  0  0  0
    6.1041   -2.5176   -1.8004 H   0  0  0  0  0  0  0  0  0  0  0  0
    3.1323   -2.7239   -1.5360 H   0  0  0  0  0  0  0  0  0  0  0  0
    4.2600   -3.7058   -2.3610 H   0  0  0  0  0  0  0  0  0  0  0  0
    2.9851   -4.6371   -0.2685 H   0  0  0  0  0  0  0  0  0  0  0  0
    4.1314   -5.8189   -1.4380 H   0  0  0  0  0  0  0  0  0  0  0  0
    2.9872   -1.9293    0.4708 H   0  0  0  0  0  0  0  0  0  0  0  0
    2.2168   -3.3028    1.1059 H   0  0  0  0  0  0  0  0  0  0  0  0
    1.0070   -2.1125    2.5314 H   0  0  0  0  0  0  0  0  0  0  0  0
    1.5806   -1.6542    4.0538 H   0  0  0  0  0  0  0  0  0  0  0  0
   -0.1564   -0.2998    1.4580 H   0  0  0  0  0  0  0  0  0  0  0  0
   -0.4154    0.0425    3.1617 H   0  0  0  0  0  0  0  0  0  0  0  0
    0.5853    1.9332    0.9888 H   0  0  0  0  0  0  0  0  0  0  0  0
   -0.9724    1.9889    1.7971 H   0  0  0  0  0  0  0  0  0  0  0  0
    2.5768    2.4800    2.3311 H   0  0  0  0  0  0  0  0  0  0  0  0
    2.3395    2.9580    3.9923 H   0  0  0  0  0  0  0  0  0  0  0  0
    1.4635    0.7009    4.5879 H   0  0  0  0  0  0  0  0  0  0  0  0
    3.1292    0.6588    4.0153 H   0  0  0  0  0  0  0  0  0  0  0  0
    4.0491   -0.1352    2.6258 H   0  0  0  0  0  0  0  0  0  0  0  0
    4.7871   -1.0831    4.3886 H   0  0  0  0  0  0  0  0  0  0  0  0
    4.3002   -0.2161    0.5021 H   0  0  0  0  0  0  0  0  0  0  0  0
    5.7684    0.0118    1.2976 H   0  0  0  0  0  0  0  0  0  0  0  0
    6.7751   -1.4392    0.0509 H   0  0  0  0  0  0  0  0  0  0  0  0
    6.2872   -2.6781    1.8716 H   0  0  0  0  0  0  0  0  0  0  0  0
    6.8568   -4.4992   -0.3423 H   0  0  0  0  0  0  0  0  0  0  0  0
    7.7691   -3.9872    1.0078 H   0  0  0  0  0  0  0  0  0  0  0  0
    6.5554   -6.4503    0.9194 H   0  0  0  0  0  0  0  0  0  0  0  0
    7.1838   -5.7308    2.3468 H   0  0  0  0  0  0  0  0  0  0  0  0
    4.2456   -6.2067    1.5440 H   0  0  0  0  0  0  0  0  0  0  0  0
    5.7484   -6.4843    4.1870 H   0  0  0  0  0  0  0  0  0  0  0  0
    5.2579   -7.7353    3.0699 H   0  0  0  0  0  0  0  0  0  0  0  0
    4.0329   -6.8222    3.9260 H   0  0  0  0  0  0  0  0  0  0  0  0
    5.5049   -2.9948    3.5544 H   0  0  0  0  0  0  0  0  0  0  0  0
    2.3824   -4.2410    3.0609 H   0  0  0  0  0  0  0  0  0  0  0  0
    4.1143   -3.2018    4.9700 H   0  0  0  0  0  0  0  0  0  0  0  0
    2.1043    0.0696    1.7704 H   0  0  0  0  0  0  0  0  0  0  0  0
  1  2  1  0
  1 29  1  0
  1 30  1  0
  1 31  1  0
  2 19  1  0
  2  3  1  0
  2 32  1  6
  3  4  1  0
  3 33  1  0
  3 34  1  0
  4  5  1  0
  4  6  1  0
  4 35  1  1
  5 36  1  0
  6 20  1  0
  6 25  1  0
  6  7  1  1
  7  8  1  0
  7 37  1  0
  7 38  1  0
  8 27  1  0
  8  9  1  1
  8 16  1  0
  9 10  1  0
  9 39  1  0
  9 40  1  0
 10 15  1  0
 10 11  1  0
 10 66  1  0
 11 12  1  0
 11 41  1  0
 11 42  1  0
 12 13  1  0
 12 43  1  0
 12 44  1  0
 13 14  1  0
 14 15  1  0
 14 45  1  0
 14 46  1  0
 15 47  1  0
 15 48  1  0
 16 17  1  0
 16 18  1  0
 16 49  1  1
 17 50  1  0
 18 19  1  0
 18 51  1  0
 18 52  1  0
 19 20  1  0
 19 53  1  6
 20 21  1  0
 20 54  1  1
 21 22  1  0
 21 55  1  0
 21 56  1  0
 22 23  1  0
 22 57  1  0
 22 58  1  0
 23 24  1  0
 23 25  1  0
 23 59  1  6
 24 60  1  0
 24 61  1  0
 24 62  1  0
 25 26  1  1
 25 27  1  0
 26 63  1  0
 27 28  1  0
 27 64  1  1
 28 65  1  0
M  CHG  1  10   1
M  END
>  <i_m_ct_stereo_status>  (302) 
1

>  <s_m_source_file>  (302) 
/var/tmp/pbs.5076255.sched01/tmpimq9cq4v/129n8p27m2m.sdf

>  <i_m_source_file_index>  (302) 
2

>  <i_lp_mmshare_version>  (302) 
48012

>  <i_f3d_flags>  (302) 
0

>  <s_epik_input>  (302) 
W09IXVtDQEBIXTFbQ0gyXVtDQEBIXShbQ0gzXSlbQ0BIXShbQ0hdMltDQF0xMzQpW0NIMl1bQ0BIXShbT0hdKVtDQEBdKFtDSDJdMykoW0NASF0oW09IXSlbQ0BAXTQoW09IXSlbQ0BIXShbQ0gzXSlbQ0gyXVtDSDJdMilbQ0gyXU41W0NIMl1bQ0gyXU9bQ0gyXVtDSDJdNQ==

>  <s_epik_cmdline>  (302) 
J2VwaWtfcHl0aG9uJywgJy1waHQnLCAnMi4wJywgJy1waCcsICc3LjAnLCAnLXRuJywgJzgnLCAnLW1hJywgJzIwMCcsICctaW1hZScsICc8aW5maWxlLm1hZT4nLCAnLW9tYWUnLCAnPG91dGZpbGUubWFlPic=

>  <r_epik_Ionization_Penalty>  (302) 
0.398667

>  <r_epik_Ionization_Penalty_Charging>  (302) 
0.398665

>  <r_epik_Ionization_Penalty_Neutral>  (302) 
1.96546e-06

>  <r_epik_State_Penalty>  (302) 
0.397868

>  <r_epik_Charging_Adjusted_Penalty>  (302) 
0.796533

>  <i_epik_Tot_Q>  (302) 
1

>  <i_epik_Tot_abs_Q>  (302) 
1

>  <s_lp_Force_Field>  (302) 
OPLS3e

>  <r_lp_Energy>  (302) 
162.31

>  <b_lp_Chiralities_Consistent>  (302) 
1

>  <s_lp_Variant>  (302) 
89:0-2

>  <s_i_glide_gridfile>  (302) 
pfpi4k_grid

>  <i_i_glide_lignum>  (302) 
2

>  <i_i_glide_rotatable_bonds>  (302) 
6

>  <r_i_docking_score>  (302) 
-4.35224

>  <r_i_glide_ligand_efficiency>  (302) 
-0.155437

>  <r_i_glide_ligand_efficiency_sa>  (302) 
-0.471998

>  <r_i_glide_ligand_efficiency_ln>  (302) 
-1.00462

>  <r_i_glide_gscore>  (302) 
-4.35224

>  <r_i_glide_lipo>  (302) 
-0.513148

>  <r_i_glide_hbond>  (302) 
-0.32

>  <r_i_glide_metal>  (302) 
-0

>  <r_i_glide_rewards>  (302) 
-1.2054

>  <r_i_glide_evdw>  (302) 
-23.6164

>  <r_i_glide_ecoul>  (302) 
-9.03578

>  <r_i_glide_erotb>  (302) 
0.248859

>  <r_i_glide_esite>  (302) 
-0.0263577

>  <r_i_glide_emodel>  (302) 
-42.8286

>  <r_i_glide_energy>  (302) 
-32.6522

>  <r_i_glide_einternal>  (302) 
7.89097

>  <r_i_glide_intrahb_reward>  (302) 
-0.5

>  <i_i_glide_confnum>  (302) 
5

>  <i_i_glide_posenum>  (302) 
1

>  <r_i_glide_eff_state_penalty>  (302) 
0

>  <ligand_id>  (302) 
89

>  <original_smiles>  (302) 
CC1CC(O)C23CC4(CN5CCOCC5)C(O)CC1C2CCC(C)C3(O)C4O

>  <smiles>  (302) 
[H]OC1([H])C([H])([H])C([H])(C([H])([H])[H])C2([H])C([H])([H])C([H])(O[H])C3(C([H])([H])[N+]4([H])C([H])([H])C([H])([H])OC([H])([H])C4([H])[H])C([H])([H])C14C2([H])C([H])([H])C([H])([H])C([H])(C([H])([H])[H])C4(O[H])C3([H])O[H]

$$$$
89:1:1
     RDKit          3D

 66 70  0  0  1  0  0  0  0  0999 V2000
    1.6127   -3.3243    6.1478 C   0  0  0  0  0  0  0  0  0  0  0  0
    0.8437   -1.9861    6.2273 C   0  0  2  0  0  0  0  0  0  0  0  0
   -0.3402   -1.9606    5.1978 C   0  0  0  0  0  0  0  0  0  0  0  0
   -0.8505   -0.5613    4.7145 C   0  0  1  0  0  0  0  0  0  0  0  0
   -2.0420   -0.2762    5.4311 O   0  0  0  0  0  0  0  0  0  0  0  0
    0.3691    0.4553    4.6530 C   0  0  2  0  0  0  0  0  0  0  0  0
    1.0967   -0.2165    3.4396 C   0  0  0  0  0  0  0  0  0  0  0  0
    2.1567    0.7352    3.0435 C   0  0  2  0  0  0  0  0  0  0  0  0
    2.7505    0.3792    1.6501 C   0  0  0  0  0  0  0  0  0  0  0  0
    3.6596   -0.8088    1.5975 N   0  0  0  0  0  0  0  0  0  0  0  0
    3.4143   -1.7104    0.4531 C   0  0  0  0  0  0  0  0  0  0  0  0
    4.3725   -2.9235    0.4457 C   0  0  0  0  0  0  0  0  0  0  0  0
    5.7222   -2.4797    0.4908 O   0  0  0  0  0  0  0  0  0  0  0  0
    5.9877   -1.6881    1.6382 C   0  0  0  0  0  0  0  0  0  0  0  0
    5.1097   -0.4360    1.6059 C   0  0  0  0  0  0  0  0  0  0  0  0
    3.2315    0.5636    4.2305 C   0  0  1  0  0  0  0  0  0  0  0  0
    3.6480    1.8161    4.7429 O   0  0  0  0  0  0  0  0  0  0  0  0
    3.0448   -0.6067    5.3233 C   0  0  0  0  0  0  0  0  0  0  0  0
    1.7742   -0.7233    6.2814 C   0  0  1  0  0  0  0  0  0  0  0  0
    0.9636    0.5280    6.0633 C   0  0  2  0  0  0  0  0  0  0  0  0
   -0.1145    1.1166    7.0157 C   0  0  0  0  0  0  0  0  0  0  0  0
   -0.9927    2.2920    6.3710 C   0  0  0  0  0  0  0  0  0  0  0  0
   -0.9957    2.5117    4.7828 C   0  0  1  0  0  0  0  0  0  0  0  0
   -1.3799    3.9605    4.4162 C   0  0  0  0  0  0  0  0  0  0  0  0
    0.3662    1.9958    4.2777 C   0  0  1  0  0  0  0  0  0  0  0  0
    1.1980    2.9538    4.9490 O   0  0  0  0  0  0  0  0  0  0  0  0
    1.1354    1.9713    2.9146 C   0  0  1  0  0  0  0  0  0  0  0  0
    1.8323    3.1350    2.5040 O   0  0  0  0  0  0  0  0  0  0  0  0
    2.0502   -3.4961    5.1641 H   0  0  0  0  0  0  0  0  0  0  0  0
    0.9457   -4.1668    6.3456 H   0  0  0  0  0  0  0  0  0  0  0  0
    2.4167   -3.3702    6.8806 H   0  0  0  0  0  0  0  0  0  0  0  0
    0.3602   -1.9964    7.2063 H   0  0  0  0  0  0  0  0  0  0  0  0
   -0.0695   -2.5558    4.3195 H   0  0  0  0  0  0  0  0  0  0  0  0
   -1.1788   -2.5128    5.6266 H   0  0  0  0  0  0  0  0  0  0  0  0
   -1.2729   -0.6848    3.7201 H   0  0  0  0  0  0  0  0  0  0  0  0
   -2.4769    0.4411    4.9903 H   0  0  0  0  0  0  0  0  0  0  0  0
    1.4603   -1.2241    3.5686 H   0  0  0  0  0  0  0  0  0  0  0  0
    0.4184   -0.3299    2.5901 H   0  0  0  0  0  0  0  0  0  0  0  0
    1.9141    0.2202    0.9729 H   0  0  0  0  0  0  0  0  0  0  0  0
    3.2509    1.2518    1.2344 H   0  0  0  0  0  0  0  0  0  0  0  0
    2.3870   -2.0818    0.4600 H   0  0  0  0  0  0  0  0  0  0  0  0
    3.5371   -1.1555   -0.4753 H   0  0  0  0  0  0  0  0  0  0  0  0
    4.1750   -3.5840    1.2916 H   0  0  0  0  0  0  0  0  0  0  0  0
    4.2415   -3.5182   -0.4568 H   0  0  0  0  0  0  0  0  0  0  0  0
    5.8283   -2.2653    2.5448 H   0  0  0  0  0  0  0  0  0  0  0  0
    7.0335   -1.3914    1.6345 H   0  0  0  0  0  0  0  0  0  0  0  0
    5.3277    0.1089    0.6839 H   0  0  0  0  0  0  0  0  0  0  0  0
    5.4108    0.1712    2.4318 H   0  0  0  0  0  0  0  0  0  0  0  0
    4.1380    0.2370    3.8404 H   0  0  0  0  0  0  0  0  0  0  0  0
    3.9858    2.3256    4.0212 H   0  0  0  0  0  0  0  0  0  0  0  0
    3.1907   -1.5590    4.8175 H   0  0  0  0  0  0  0  0  0  0  0  0
    3.9062   -0.5534    5.9820 H   0  0  0  0  0  0  0  0  0  0  0  0
    2.1772   -0.7001    7.2937 H   0  0  0  0  0  0  0  0  0  0  0  0
    1.7676    1.2328    6.2418 H   0  0  0  0  0  0  0  0  0  0  0  0
   -0.7381    0.3196    7.4196 H   0  0  0  0  0  0  0  0  0  0  0  0
    0.3992    1.5137    7.8884 H   0  0  0  0  0  0  0  0  0  0  0  0
   -2.0175    2.1641    6.7073 H   0  0  0  0  0  0  0  0  0  0  0  0
   -0.6717    3.2245    6.8444 H   0  0  0  0  0  0  0  0  0  0  0  0
   -1.7725    1.9092    4.3115 H   0  0  0  0  0  0  0  0  0  0  0  0
   -0.7336    4.6951    4.8973 H   0  0  0  0  0  0  0  0  0  0  0  0
   -2.3988    4.1516    4.7561 H   0  0  0  0  0  0  0  0  0  0  0  0
   -1.3448    4.1263    3.3400 H   0  0  0  0  0  0  0  0  0  0  0  0
    2.1079    2.7296    4.7754 H   0  0  0  0  0  0  0  0  0  0  0  0
    0.4079    1.7873    2.1137 H   0  0  0  0  0  0  0  0  0  0  0  0
    1.2282    3.6657    1.9627 H   0  0  0  0  0  0  0  0  0  0  0  0
    3.4731   -1.3737    2.4104 H   0  0  0  0  0  0  0  0  0  0  0  0
  1  2  1  0
  1 29  1  0
  1 30  1  0
  1 31  1  0
  2 19  1  0
  2  3  1  0
  2 32  1  1
  3  4  1  0
  3 33  1  0
  3 34  1  0
  4  5  1  0
  4  6  1  0
  4 35  1  6
  5 36  1  0
  6 20  1  0
  6 25  1  0
  6  7  1  6
  7  8  1  0
  7 37  1  0
  7 38  1  0
  8 27  1  0
  8  9  1  6
  8 16  1  0
  9 10  1  0
  9 39  1  0
  9 40  1  0
 10 15  1  0
 10 11  1  0
 10 66  1  0
 11 12  1  0
 11 41  1  0
 11 42  1  0
 12 13  1  0
 12 43  1  0
 12 44  1  0
 13 14  1  0
 14 15  1  0
 14 45  1  0
 14 46  1  0
 15 47  1  0
 15 48  1  0
 16 17  1  0
 16 18  1  0
 16 49  1  6
 17 50  1  0
 18 19  1  0
 18 51  1  0
 18 52  1  0
 19 20  1  0
 19 53  1  1
 20 21  1  0
 20 54  1  6
 21 22  1  0
 21 55  1  0
 21 56  1  0
 22 23  1  0
 22 57  1  0
 22 58  1  0
 23 24  1  0
 23 25  1  0
 23 59  1  6
 24 60  1  0
 24 61  1  0
 24 62  1  0
 25 26  1  1
 25 27  1  0
 26 63  1  0
 27 28  1  0
 27 64  1  6
 28 65  1  0
M  CHG  1  10   1
M  END
>  <i_m_ct_stereo_status>  (303) 
1

>  <s_m_source_file>  (303) 
/var/tmp/pbs.5076255.sched01/tmpimq9cq4v/129n8p27m2m.sdf

>  <i_m_source_file_index>  (303) 
2

>  <i_lp_mmshare_version>  (303) 
48012

>  <i_f3d_flags>  (303) 
0

>  <s_epik_input>  (303) 
W09IXVtDQEBIXTFbQ0gyXVtDQEBIXShbQ0gzXSlbQ0BIXShbQ0hdMltDQF0xMzQpW0NIMl1bQ0BIXShbT0hdKVtDQEBdKFtDSDJdMykoW0NASF0oW09IXSlbQ0BAXTQoW09IXSlbQ0BIXShbQ0gzXSlbQ0gyXVtDSDJdMilbQ0gyXU41W0NIMl1bQ0gyXU9bQ0gyXVtDSDJdNQ==

>  <s_epik_cmdline>  (303) 
J2VwaWtfcHl0aG9uJywgJy1waHQnLCAnMi4wJywgJy1waCcsICc3LjAnLCAnLXRuJywgJzgnLCAnLW1hJywgJzIwMCcsICctaW1hZScsICc8aW5maWxlLm1hZT4nLCAnLW9tYWUnLCAnPG91dGZpbGUubWFlPic=

>  <r_epik_Ionization_Penalty>  (303) 
0.398667

>  <r_epik_Ionization_Penalty_Charging>  (303) 
0.398665

>  <r_epik_Ionization_Penalty_Neutral>  (303) 
1.96546e-06

>  <r_epik_State_Penalty>  (303) 
0.397868

>  <r_epik_Charging_Adjusted_Penalty>  (303) 
0.796533

>  <i_epik_Tot_Q>  (303) 
1

>  <i_epik_Tot_abs_Q>  (303) 
1

>  <s_lp_Force_Field>  (303) 
OPLS3e

>  <r_lp_Energy>  (303) 
162.31

>  <b_lp_Chiralities_Consistent>  (303) 
1

>  <s_lp_Variant>  (303) 
89:0-2

>  <s_i_glide_gridfile>  (303) 
pfpi4k_grid

>  <i_i_glide_lignum>  (303) 
2

>  <i_i_glide_rotatable_bonds>  (303) 
6

>  <r_i_docking_score>  (303) 
-4.20568

>  <r_i_glide_ligand_efficiency>  (303) 
-0.150203

>  <r_i_glide_ligand_efficiency_sa>  (303) 
-0.456104

>  <r_i_glide_ligand_efficiency_ln>  (303) 
-0.970794

>  <r_i_glide_gscore>  (303) 
-4.20568

>  <r_i_glide_lipo>  (303) 
-0.336497

>  <r_i_glide_hbond>  (303) 
0

>  <r_i_glide_metal>  (303) 
-0

>  <r_i_glide_rewards>  (303) 
-1.2054

>  <r_i_glide_evdw>  (303) 
-26.4183

>  <r_i_glide_ecoul>  (303) 
-10.5705

>  <r_i_glide_erotb>  (303) 
0.248859

>  <r_i_glide_esite>  (303) 
-0.0061412

>  <r_i_glide_emodel>  (303) 
-48.2092

>  <r_i_glide_energy>  (303) 
-36.9889

>  <r_i_glide_einternal>  (303) 
7.32492

>  <r_i_glide_intrahb_reward>  (303) 
-0.5

>  <i_i_glide_confnum>  (303) 
5

>  <i_i_glide_posenum>  (303) 
24

>  <r_i_glide_eff_state_penalty>  (303) 
0

>  <ligand_id>  (303) 
89

>  <original_smiles>  (303) 
CC1CC(O)C23CC4(CN5CCOCC5)C(O)CC1C2CCC(C)C3(O)C4O

>  <smiles>  (303) 
[H]OC1([H])C([H])([H])C([H])(C([H])([H])[H])C2([H])C([H])([H])C([H])(O[H])C3(C([H])([H])[N+]4([H])C([H])([H])C([H])([H])OC([H])([H])C4([H])[H])C([H])([H])C14C2([H])C([H])([H])C([H])([H])C([H])(C([H])([H])[H])C4(O[H])C3([H])O[H]

$$$$
89:1:2
     RDKit          3D

 66 70  0  0  1  0  0  0  0  0999 V2000
    1.5938   -3.3202    6.1220 C   0  0  0  0  0  0  0  0  0  0  0  0
    0.8220   -1.9848    6.1992 C   0  0  2  0  0  0  0  0  0  0  0  0
   -0.3506   -1.9612    5.1554 C   0  0  0  0  0  0  0  0  0  0  0  0
   -0.8590   -0.5635    4.6777 C   0  0  1  0  0  0  0  0  0  0  0  0
   -2.0624   -0.2845    5.3777 O   0  0  0  0  0  0  0  0  0  0  0  0
    0.3567    0.4594    4.6263 C   0  0  2  0  0  0  0  0  0  0  0  0
    1.1012   -0.1997    3.4223 C   0  0  0  0  0  0  0  0  0  0  0  0
    2.1693    0.7591    3.0445 C   0  0  2  0  0  0  0  0  0  0  0  0
    2.7661    0.4100    1.6528 C   0  0  0  0  0  0  0  0  0  0  0  0
    3.6744   -0.7917    1.6035 N   0  0  0  0  0  0  0  0  0  0  0  0
    3.4203   -1.6977    0.4521 C   0  0  0  0  0  0  0  0  0  0  0  0
    4.3618   -2.9180    0.4519 C   0  0  0  0  0  0  0  0  0  0  0  0
    5.7166   -2.4885    0.4940 O   0  0  0  0  0  0  0  0  0  0  0  0
    5.9916   -1.6955    1.6389 C   0  0  0  0  0  0  0  0  0  0  0  0
    5.1263   -0.4403    1.5967 C   0  0  0  0  0  0  0  0  0  0  0  0
    3.2287    0.5714    4.2467 C   0  0  1  0  0  0  0  0  0  0  0  0
    3.7378    1.7758    4.7791 O   0  0  0  0  0  0  0  0  0  0  0  0
    3.0342   -0.6094    5.3229 C   0  0  0  0  0  0  0  0  0  0  0  0
    1.7464   -0.7217    6.2679 C   0  0  1  0  0  0  0  0  0  0  0  0
    0.9413    0.5275    6.0429 C   0  0  2  0  0  0  0  0  0  0  0  0
   -0.1509    1.1120    6.9854 C   0  0  0  0  0  0  0  0  0  0  0  0
   -1.0287    2.2867    6.3407 C   0  0  0  0  0  0  0  0  0  0  0  0
   -1.0184    2.5107    4.7512 C   0  0  1  0  0  0  0  0  0  0  0  0
   -1.3969    3.9608    4.3850 C   0  0  0  0  0  0  0  0  0  0  0  0
    0.3449    1.9953    4.2508 C   0  0  1  0  0  0  0  0  0  0  0  0
    1.1608    2.9578    4.9382 O   0  0  0  0  0  0  0  0  0  0  0  0
    1.1309    1.9881    2.9043 C   0  0  1  0  0  0  0  0  0  0  0  0
    1.7938    3.1884    2.4930 O   0  0  0  0  0  0  0  0  0  0  0  0
    2.0413   -3.4852    5.1407 H   0  0  0  0  0  0  0  0  0  0  0  0
    0.9274   -4.1660    6.3088 H   0  0  0  0  0  0  0  0  0  0  0  0
    2.3918   -3.3663    6.8621 H   0  0  0  0  0  0  0  0  0  0  0  0
    0.3254   -2.0000    7.1714 H   0  0  0  0  0  0  0  0  0  0  0  0
   -0.0679   -2.5522    4.2785 H   0  0  0  0  0  0  0  0  0  0  0  0
   -1.1939   -2.5150    5.5742 H   0  0  0  0  0  0  0  0  0  0  0  0
   -1.2728   -0.6798    3.6787 H   0  0  0  0  0  0  0  0  0  0  0  0
   -2.5080    0.4108    4.9213 H   0  0  0  0  0  0  0  0  0  0  0  0
    1.4638   -1.2082    3.5482 H   0  0  0  0  0  0  0  0  0  0  0  0
    0.4331   -0.3129    2.5643 H   0  0  0  0  0  0  0  0  0  0  0  0
    1.9387    0.2533    0.9712 H   0  0  0  0  0  0  0  0  0  0  0  0
    3.2753    1.2816    1.2534 H   0  0  0  0  0  0  0  0  0  0  0  0
    2.3889   -2.0572    0.4692 H   0  0  0  0  0  0  0  0  0  0  0  0
    3.5422   -1.1460   -0.4747 H   0  0  0  0  0  0  0  0  0  0  0  0
    4.1600   -3.5758    1.2973 H   0  0  0  0  0  0  0  0  0  0  0  0
    4.2240   -3.5154   -0.4488 H   0  0  0  0  0  0  0  0  0  0  0  0
    5.8227   -2.2708    2.5443 H   0  0  0  0  0  0  0  0  0  0  0  0
    7.0397   -1.4146    1.6333 H   0  0  0  0  0  0  0  0  0  0  0  0
    5.3465    0.1012    0.6763 H   0  0  0  0  0  0  0  0  0  0  0  0
    5.4381    0.1770    2.4306 H   0  0  0  0  0  0  0  0  0  0  0  0
    4.1352    0.2229    3.8307 H   0  0  0  0  0  0  0  0  0  0  0  0
    3.8757    2.3723    4.0622 H   0  0  0  0  0  0  0  0  0  0  0  0
    3.1800   -1.5545    4.8118 H   0  0  0  0  0  0  0  0  0  0  0  0
    3.8826   -0.5527    5.9945 H   0  0  0  0  0  0  0  0  0  0  0  0
    2.1413   -0.6990    7.2833 H   0  0  0  0  0  0  0  0  0  0  0  0
    1.7419    1.2339    6.2264 H   0  0  0  0  0  0  0  0  0  0  0  0
   -0.7767    0.3117    7.3774 H   0  0  0  0  0  0  0  0  0  0  0  0
    0.3522    1.5054    7.8678 H   0  0  0  0  0  0  0  0  0  0  0  0
   -2.0548    2.1558    6.6660 H   0  0  0  0  0  0  0  0  0  0  0  0
   -0.7123    3.2178    6.8163 H   0  0  0  0  0  0  0  0  0  0  0  0
   -1.7941    1.9102    4.2749 H   0  0  0  0  0  0  0  0  0  0  0  0
   -0.7581    4.6966    4.8777 H   0  0  0  0  0  0  0  0  0  0  0  0
   -2.4179    4.1488    4.7141 H   0  0  0  0  0  0  0  0  0  0  0  0
   -1.3509    4.1319    3.3070 H   0  0  0  0  0  0  0  0  0  0  0  0
    1.2032    3.7373    4.4086 H   0  0  0  0  0  0  0  0  0  0  0  0
    0.4223    1.7982    2.0964 H   0  0  0  0  0  0  0  0  0  0  0  0
    1.2110    3.6756    1.9171 H   0  0  0  0  0  0  0  0  0  0  0  0
    3.4827   -1.3537    2.4110 H   0  0  0  0  0  0  0  0  0  0  0  0
  1  2  1  0
  1 29  1  0
  1 30  1  0
  1 31  1  0
  2 19  1  0
  2  3  1  0
  2 32  1  1
  3  4  1  0
  3 33  1  0
  3 34  1  0
  4  5  1  0
  4  6  1  0
  4 35  1  6
  5 36  1  0
  6 20  1  0
  6 25  1  0
  6  7  1  6
  7  8  1  0
  7 37  1  0
  7 38  1  0
  8 27  1  0
  8  9  1  6
  8 16  1  0
  9 10  1  0
  9 39  1  0
  9 40  1  0
 10 15  1  0
 10 11  1  0
 10 66  1  0
 11 12  1  0
 11 41  1  0
 11 42  1  0
 12 13  1  0
 12 43  1  0
 12 44  1  0
 13 14  1  0
 14 15  1  0
 14 45  1  0
 14 46  1  0
 15 47  1  0
 15 48  1  0
 16 17  1  0
 16 18  1  0
 16 49  1  6
 17 50  1  0
 18 19  1  0
 18 51  1  0
 18 52  1  0
 19 20  1  0
 19 53  1  1
 20 21  1  0
 20 54  1  6
 21 22  1  0
 21 55  1  0
 21 56  1  0
 22 23  1  0
 22 57  1  0
 22 58  1  0
 23 24  1  0
 23 25  1  0
 23 59  1  6
 24 60  1  0
 24 61  1  0
 24 62  1  0
 25 26  1  1
 25 27  1  0
 26 63  1  0
 27 28  1  0
 27 64  1  6
 28 65  1  0
M  CHG  1  10   1
M  END
>  <i_m_ct_stereo_status>  (304) 
1

>  <s_m_source_file>  (304) 
/var/tmp/pbs.5076255.sched01/tmpimq9cq4v/129n8p27m2m.sdf

>  <i_m_source_file_index>  (304) 
2

>  <i_lp_mmshare_version>  (304) 
48012

>  <i_f3d_flags>  (304) 
0

>  <s_epik_input>  (304) 
W09IXVtDQEBIXTFbQ0gyXVtDQEBIXShbQ0gzXSlbQ0BIXShbQ0hdMltDQF0xMzQpW0NIMl1bQ0BIXShbT0hdKVtDQEBdKFtDSDJdMykoW0NASF0oW09IXSlbQ0BAXTQoW09IXSlbQ0BIXShbQ0gzXSlbQ0gyXVtDSDJdMilbQ0gyXU41W0NIMl1bQ0gyXU9bQ0gyXVtDSDJdNQ==

>  <s_epik_cmdline>  (304) 
J2VwaWtfcHl0aG9uJywgJy1waHQnLCAnMi4wJywgJy1waCcsICc3LjAnLCAnLXRuJywgJzgnLCAnLW1hJywgJzIwMCcsICctaW1hZScsICc8aW5maWxlLm1hZT4nLCAnLW9tYWUnLCAnPG91dGZpbGUubWFlPic=

>  <r_epik_Ionization_Penalty>  (304) 
0.398667

>  <r_epik_Ionization_Penalty_Charging>  (304) 
0.398665

>  <r_epik_Ionization_Penalty_Neutral>  (304) 
1.96546e-06

>  <r_epik_State_Penalty>  (304) 
0.397868

>  <r_epik_Charging_Adjusted_Penalty>  (304) 
0.796533

>  <i_epik_Tot_Q>  (304) 
1

>  <i_epik_Tot_abs_Q>  (304) 
1

>  <s_lp_Force_Field>  (304) 
OPLS3e

>  <r_lp_Energy>  (304) 
162.31

>  <b_lp_Chiralities_Consistent>  (304) 
1

>  <s_lp_Variant>  (304) 
89:0-2

>  <s_i_glide_gridfile>  (304) 
pfpi4k_grid

>  <i_i_glide_lignum>  (304) 
2

>  <i_i_glide_rotatable_bonds>  (304) 
6

>  <r_i_docking_score>  (304) 
-3.7436

>  <r_i_glide_ligand_efficiency>  (304) 
-0.1337

>  <r_i_glide_ligand_efficiency_sa>  (304) 
-0.405992

>  <r_i_glide_ligand_efficiency_ln>  (304) 
-0.864133

>  <r_i_glide_gscore>  (304) 
-3.7436

>  <r_i_glide_lipo>  (304) 
-0.345079

>  <r_i_glide_hbond>  (304) 
0

>  <r_i_glide_metal>  (304) 
-0

>  <r_i_glide_rewards>  (304) 
-0.705403

>  <r_i_glide_evdw>  (304) 
-26.2065

>  <r_i_glide_ecoul>  (304) 
-10.8436

>  <r_i_glide_erotb>  (304) 
0.248859

>  <r_i_glide_esite>  (304) 
-0.00510433

>  <r_i_glide_emodel>  (304) 
-42.2168

>  <r_i_glide_energy>  (304) 
-37.0502

>  <r_i_glide_einternal>  (304) 
7.35116

>  <r_i_glide_intrahb_reward>  (304) 
-0

>  <i_i_glide_confnum>  (304) 
5

>  <i_i_glide_posenum>  (304) 
22

>  <r_i_glide_eff_state_penalty>  (304) 
0

>  <ligand_id>  (304) 
89

>  <original_smiles>  (304) 
CC1CC(O)C23CC4(CN5CCOCC5)C(O)CC1C2CCC(C)C3(O)C4O

>  <smiles>  (304) 
[H]OC1([H])C([H])([H])C([H])(C([H])([H])[H])C2([H])C([H])([H])C([H])(O[H])C3(C([H])([H])[N+]4([H])C([H])([H])C([H])([H])OC([H])([H])C4([H])[H])C([H])([H])C14C2([H])C([H])([H])C([H])([H])C([H])(C([H])([H])[H])C4(O[H])C3([H])O[H]

$$$$
89:2:0
     RDKit          3D

 65 69  0  0  1  0  0  0  0  0999 V2000
    7.2323   -6.5759    3.5243 C   0  0  0  0  0  0  0  0  0  0  0  0
    6.4438   -7.8825    3.7706 C   0  0  2  0  0  0  0  0  0  0  0  0
    6.3999   -8.8389    2.4666 C   0  0  0  0  0  0  0  0  0  0  0  0
    5.0545   -9.6341    2.1360 C   0  0  1  0  0  0  0  0  0  0  0  0
    5.1978  -11.0127    2.4772 O   0  0  0  0  0  0  0  0  0  0  0  0
    3.9038   -8.8512    2.8603 C   0  0  2  0  0  0  0  0  0  0  0  0
    4.0268   -7.5471    1.9818 C   0  0  0  0  0  0  0  0  0  0  0  0
    2.7846   -6.7659    2.0888 C   0  0  2  0  0  0  0  0  0  0  0  0
    2.5819   -5.7425    0.9235 C   0  0  0  0  0  0  0  0  0  0  0  0
    3.5540   -4.6461    0.7729 N   0  0  0  0  0  0  0  0  0  0  0  0
    4.7737   -5.0169    0.0618 C   0  0  0  0  0  0  0  0  0  0  0  0
    5.7641   -3.8587   -0.0273 C   0  0  0  0  0  0  0  0  0  0  0  0
    5.1650   -2.7528   -0.6861 O   0  0  0  0  0  0  0  0  0  0  0  0
    3.9707   -2.3170   -0.0435 C   0  0  0  0  0  0  0  0  0  0  0  0
    2.9752   -3.4889    0.0828 C   0  0  0  0  0  0  0  0  0  0  0  0
    3.0163   -6.0251    3.4872 C   0  0  1  0  0  0  0  0  0  0  0  0
    1.8096   -5.7725    4.1753 O   0  0  0  0  0  0  0  0  0  0  0  0
    4.1954   -6.3840    4.5259 C   0  0  0  0  0  0  0  0  0  0  0  0
    5.0952   -7.7032    4.6154 C   0  0  1  0  0  0  0  0  0  0  0  0
    4.3718   -8.9944    4.3267 C   0  0  1  0  0  0  0  0  0  0  0  0
    3.4968   -9.8500    5.2940 C   0  0  0  0  0  0  0  0  0  0  0  0
    2.6309  -10.9322    4.5311 C   0  0  0  0  0  0  0  0  0  0  0  0
    2.0689  -10.5459    3.0997 C   0  0  1  0  0  0  0  0  0  0  0  0
    0.6140  -11.0071    2.8952 C   0  0  0  0  0  0  0  0  0  0  0  0
    2.3362   -9.0457    2.9073 C   0  0  1  0  0  0  0  0  0  0  0  0
    1.6202   -8.4801    4.0106 O   0  0  0  0  0  0  0  0  0  0  0  0
    1.8177   -8.0130    1.8804 C   0  0  1  0  0  0  0  0  0  0  0  0
    0.4315   -7.6813    1.9065 O   0  0  0  0  0  0  0  0  0  0  0  0
    6.7264   -5.9064    2.8288 H   0  0  0  0  0  0  0  0  0  0  0  0
    8.2150   -6.7949    3.1014 H   0  0  0  0  0  0  0  0  0  0  0  0
    7.3975   -6.0261    4.4536 H   0  0  0  0  0  0  0  0  0  0  0  0
    7.0886   -8.4340    4.4570 H   0  0  0  0  0  0  0  0  0  0  0  0
    6.6622   -8.2243    1.6011 H   0  0  0  0  0  0  0  0  0  0  0  0
    7.2232   -9.5576    2.5331 H   0  0  0  0  0  0  0  0  0  0  0  0
    4.9179   -9.6853    1.0548 H   0  0  0  0  0  0  0  0  0  0  0  0
    4.6993  -11.5133    1.8302 H   0  0  0  0  0  0  0  0  0  0  0  0
    4.8624   -6.9031    2.1904 H   0  0  0  0  0  0  0  0  0  0  0  0
    4.1323   -7.7961    0.9272 H   0  0  0  0  0  0  0  0  0  0  0  0
    2.4920   -6.2606   -0.0265 H   0  0  0  0  0  0  0  0  0  0  0  0
    1.6039   -5.3057    1.1002 H   0  0  0  0  0  0  0  0  0  0  0  0
    5.3112   -5.8132    0.5499 H   0  0  0  0  0  0  0  0  0  0  0  0
    4.5288   -5.3642   -0.9402 H   0  0  0  0  0  0  0  0  0  0  0  0
    6.0823   -3.5585    0.9671 H   0  0  0  0  0  0  0  0  0  0  0  0
    6.6537   -4.1686   -0.5677 H   0  0  0  0  0  0  0  0  0  0  0  0
    4.2183   -1.9263    0.9457 H   0  0  0  0  0  0  0  0  0  0  0  0
    3.5315   -1.4932   -0.6164 H   0  0  0  0  0  0  0  0  0  0  0  0
    2.6250   -3.7789   -0.9052 H   0  0  0  0  0  0  0  0  0  0  0  0
    2.1005   -3.1294    0.6210 H   0  0  0  0  0  0  0  0  0  0  0  0
    3.2972   -5.0059    3.2210 H   0  0  0  0  0  0  0  0  0  0  0  0
    1.4711   -6.6305    4.4166 H   0  0  0  0  0  0  0  0  0  0  0  0
    4.8851   -5.5420    4.5015 H   0  0  0  0  0  0  0  0  0  0  0  0
    3.7381   -6.2959    5.5115 H   0  0  0  0  0  0  0  0  0  0  0  0
    5.4154   -7.7276    5.6574 H   0  0  0  0  0  0  0  0  0  0  0  0
    5.1907   -9.7073    4.4266 H   0  0  0  0  0  0  0  0  0  0  0  0
    4.1423  -10.3804    5.9942 H   0  0  0  0  0  0  0  0  0  0  0  0
    2.8875   -9.2099    5.9242 H   0  0  0  0  0  0  0  0  0  0  0  0
    3.2224  -11.8431    4.4174 H   0  0  0  0  0  0  0  0  0  0  0  0
    1.7967  -11.2302    5.1704 H   0  0  0  0  0  0  0  0  0  0  0  0
    2.6441  -11.0752    2.3422 H   0  0  0  0  0  0  0  0  0  0  0  0
   -0.0596  -10.5938    3.6432 H   0  0  0  0  0  0  0  0  0  0  0  0
    0.5828  -12.0964    2.9888 H   0  0  0  0  0  0  0  0  0  0  0  0
    0.2269  -10.7489    1.9082 H   0  0  0  0  0  0  0  0  0  0  0  0
    0.7485   -8.8478    4.0123 H   0  0  0  0  0  0  0  0  0  0  0  0
    1.9670   -8.4423    0.8885 H   0  0  0  0  0  0  0  0  0  0  0  0
   -0.0502   -8.4251    1.5643 H   0  0  0  0  0  0  0  0  0  0  0  0
  1  2  1  0
  1 29  1  0
  1 30  1  0
  1 31  1  0
  2 19  1  0
  2  3  1  0
  2 32  1  1
  3  4  1  0
  3 33  1  0
  3 34  1  0
  4  5  1  0
  4  6  1  0
  4 35  1  6
  5 36  1  0
  6 20  1  0
  6 25  1  0
  6  7  1  6
  7  8  1  0
  7 37  1  0
  7 38  1  0
  8 27  1  0
  8  9  1  6
  8 16  1  0
  9 10  1  0
  9 39  1  0
  9 40  1  0
 10 15  1  0
 10 11  1  0
 11 12  1  0
 11 41  1  0
 11 42  1  0
 12 13  1  0
 12 43  1  0
 12 44  1  0
 13 14  1  0
 14 15  1  0
 14 45  1  0
 14 46  1  0
 15 47  1  0
 15 48  1  0
 16 17  1  0
 16 18  1  0
 16 49  1  6
 17 50  1  0
 18 19  1  0
 18 51  1  0
 18 52  1  0
 19 20  1  0
 19 53  1  1
 20 21  1  0
 20 54  1  6
 21 22  1  0
 21 55  1  0
 21 56  1  0
 22 23  1  0
 22 57  1  0
 22 58  1  0
 23 24  1  0
 23 25  1  0
 23 59  1  6
 24 60  1  0
 24 61  1  0
 24 62  1  0
 25 26  1  1
 25 27  1  0
 26 63  1  0
 27 28  1  0
 27 64  1  6
 28 65  1  0
M  END
>  <i_m_ct_stereo_status>  (305) 
1

>  <s_m_source_file>  (305) 
/var/tmp/pbs.5076255.sched01/tmpimq9cq4v/129n8p27m2m.sdf

>  <i_m_source_file_index>  (305) 
3

>  <i_lp_mmshare_version>  (305) 
48012

>  <i_f3d_flags>  (305) 
0

>  <s_epik_input>  (305) 
W09IXVtDQEBIXTFbQ0gyXVtDQEBIXShbQ0gzXSlbQ0BIXShbQ0hdMltDQF0xMzQpW0NIMl1bQ0BIXShbT0hdKVtDQEBdKFtDSDJdMykoW0NASF0oW09IXSlbQ0BAXTQoW09IXSlbQ0BIXShbQ0gzXSlbQ0gyXVtDSDJdMilbQ0gyXU41W0NIMl1bQ0gyXU9bQ0gyXVtDSDJdNQ==

>  <s_epik_cmdline>  (305) 
J2VwaWtfcHl0aG9uJywgJy1waHQnLCAnMi4wJywgJy1waCcsICc3LjAnLCAnLXRuJywgJzgnLCAnLW1hJywgJzIwMCcsICctaW1hZScsICc8aW5maWxlLm1hZT4nLCAnLW9tYWUnLCAnPG91dGZpbGUubWFlPic=

>  <r_epik_Ionization_Penalty>  (305) 
0.422948

>  <r_epik_Ionization_Penalty_Charging>  (305) 
0

>  <r_epik_Ionization_Penalty_Neutral>  (305) 
0.422948

>  <r_epik_State_Penalty>  (305) 
0.423775

>  <r_epik_Charging_Adjusted_Penalty>  (305) 
0.423775

>  <i_epik_Tot_Q>  (305) 
0

>  <i_epik_Tot_abs_Q>  (305) 
0

>  <s_lp_Force_Field>  (305) 
OPLS3e

>  <r_lp_Energy>  (305) 
175.191

>  <b_lp_Chiralities_Consistent>  (305) 
1

>  <s_lp_Variant>  (305) 
89:0-3

>  <s_i_glide_gridfile>  (305) 
pfpi4k_grid

>  <i_i_glide_lignum>  (305) 
3

>  <i_i_glide_rotatable_bonds>  (305) 
6

>  <r_i_docking_score>  (305) 
-3.48447

>  <r_i_glide_ligand_efficiency>  (305) 
-0.124445

>  <r_i_glide_ligand_efficiency_sa>  (305) 
-0.377889

>  <r_i_glide_ligand_efficiency_ln>  (305) 
-0.804318

>  <r_i_glide_gscore>  (305) 
-3.48447

>  <r_i_glide_lipo>  (305) 
-0.285671

>  <r_i_glide_hbond>  (305) 
-0.16

>  <r_i_glide_metal>  (305) 
-0

>  <r_i_glide_rewards>  (305) 
-1.21228

>  <r_i_glide_evdw>  (305) 
-20.3841

>  <r_i_glide_ecoul>  (305) 
-7.04878

>  <r_i_glide_erotb>  (305) 
0.250001

>  <r_i_glide_esite>  (305) 
0

>  <r_i_glide_emodel>  (305) 
-38.102

>  <r_i_glide_energy>  (305) 
-27.4329

>  <r_i_glide_einternal>  (305) 
2.57241

>  <r_i_glide_intrahb_reward>  (305) 
-0.5

>  <i_i_glide_confnum>  (305) 
5

>  <i_i_glide_posenum>  (305) 
19

>  <r_i_glide_eff_state_penalty>  (305) 
0

>  <ligand_id>  (305) 
89

>  <original_smiles>  (305) 
CC1CC(O)C23CC4(CN5CCOCC5)C(O)CC1C2CCC(C)C3(O)C4O

>  <smiles>  (305) 
[H]OC1([H])C([H])([H])C2([H])C([H])(C([H])([H])[H])C([H])([H])C([H])(O[H])C34C([H])([H])C1(C([H])([H])N1C([H])([H])C([H])([H])OC([H])([H])C1([H])[H])C([H])(O[H])C3(O[H])C([H])(C([H])([H])[H])C([H])([H])C([H])([H])C24[H]

$$$$
89:2:1
     RDKit          3D

 65 69  0  0  1  0  0  0  0  0999 V2000
    7.1405   -6.4013    2.7659 C   0  0  0  0  0  0  0  0  0  0  0  0
    6.2099   -7.5385    3.2346 C   0  0  2  0  0  0  0  0  0  0  0  0
    5.9659   -8.6613    2.0925 C   0  0  0  0  0  0  0  0  0  0  0  0
    4.5048   -9.3123    1.9421 C   0  0  1  0  0  0  0  0  0  0  0  0
    4.4859  -10.6340    2.4827 O   0  0  0  0  0  0  0  0  0  0  0  0
    3.5100   -8.2792    2.5883 C   0  0  2  0  0  0  0  0  0  0  0  0
    3.7316   -7.1429    1.5230 C   0  0  0  0  0  0  0  0  0  0  0  0
    2.6214   -6.1764    1.5821 C   0  0  2  0  0  0  0  0  0  0  0  0
    2.4725   -5.3136    0.2855 C   0  0  0  0  0  0  0  0  0  0  0  0
    3.4259   -4.2132    0.0463 N   0  0  0  0  0  0  0  0  0  0  0  0
    4.7364   -4.6292   -0.4328 C   0  0  0  0  0  0  0  0  0  0  0  0
    5.7059   -3.4628   -0.5950 C   0  0  0  0  0  0  0  0  0  0  0  0
    5.1645   -2.5063   -1.4909 O   0  0  0  0  0  0  0  0  0  0  0  0
    3.8879   -2.0296   -1.0715 C   0  0  0  0  0  0  0  0  0  0  0  0
    2.9097   -3.2103   -0.8845 C   0  0  0  0  0  0  0  0  0  0  0  0
    3.0313   -5.2968    2.8575 C   0  0  1  0  0  0  0  0  0  0  0  0
    1.9138   -4.7854    3.5462 O   0  0  0  0  0  0  0  0  0  0  0  0
    4.2255   -5.6638    3.8640 C   0  0  0  0  0  0  0  0  0  0  0  0
    4.9535   -7.0683    4.1009 C   0  0  1  0  0  0  0  0  0  0  0  0
    4.0521   -8.2732    4.0381 C   0  0  1  0  0  0  0  0  0  0  0  0
    3.1426   -8.8565    5.1655 C   0  0  0  0  0  0  0  0  0  0  0  0
    2.0916   -9.9080    4.6046 C   0  0  0  0  0  0  0  0  0  0  0  0
    1.4939   -9.6523    3.1537 C   0  0  1  0  0  0  0  0  0  0  0  0
   -0.0104   -9.9438    3.0857 C   0  0  0  0  0  0  0  0  0  0  0  0
    1.9417   -8.2469    2.7309 C   0  0  1  0  0  0  0  0  0  0  0  0
    1.3708   -7.4496    3.7689 O   0  0  0  0  0  0  0  0  0  0  0  0
    1.4790   -7.2927    1.6005 C   0  0  1  0  0  0  0  0  0  0  0  0
    0.1624   -6.7676    1.6277 O   0  0  0  0  0  0  0  0  0  0  0  0
    6.6847   -5.7666    2.0045 H   0  0  0  0  0  0  0  0  0  0  0  0
    8.0596   -6.8007    2.3356 H   0  0  0  0  0  0  0  0  0  0  0  0
    7.4330   -5.7539    3.5942 H   0  0  0  0  0  0  0  0  0  0  0  0
    6.8254   -8.0704    3.9675 H   0  0  0  0  0  0  0  0  0  0  0  0
    6.2478   -8.2158    1.1347 H   0  0  0  0  0  0  0  0  0  0  0  0
    6.6885   -9.4618    2.2228 H   0  0  0  0  0  0  0  0  0  0  0  0
    4.2952   -9.4921    0.8838 H   0  0  0  0  0  0  0  0  0  0  0  0
    4.2588  -11.2432    1.7805 H   0  0  0  0  0  0  0  0  0  0  0  0
    4.6738   -6.6187    1.5965 H   0  0  0  0  0  0  0  0  0  0  0  0
    3.7450   -7.5478    0.5097 H   0  0  0  0  0  0  0  0  0  0  0  0
    2.4313   -5.9648   -0.5780 H   0  0  0  0  0  0  0  0  0  0  0  0
    1.4870   -4.8766    0.3240 H   0  0  0  0  0  0  0  0  0  0  0  0
    5.2216   -5.2865    0.2877 H   0  0  0  0  0  0  0  0  0  0  0  0
    4.6407   -5.1846   -1.3592 H   0  0  0  0  0  0  0  0  0  0  0  0
    5.8945   -3.0020    0.3680 H   0  0  0  0  0  0  0  0  0  0  0  0
    6.6599   -3.8223   -0.9712 H   0  0  0  0  0  0  0  0  0  0  0  0
    4.0062   -1.4837   -0.1337 H   0  0  0  0  0  0  0  0  0  0  0  0
    3.5097   -1.3211   -1.8115 H   0  0  0  0  0  0  0  0  0  0  0  0
    2.6841   -3.6631   -1.8458 H   0  0  0  0  0  0  0  0  0  0  0  0
    1.9723   -2.8179   -0.5041 H   0  0  0  0  0  0  0  0  0  0  0  0
    3.4275   -4.3607    2.4669 H   0  0  0  0  0  0  0  0  0  0  0  0
    1.4755   -5.5357    3.9432 H   0  0  0  0  0  0  0  0  0  0  0  0
    5.0143   -4.9373    3.6811 H   0  0  0  0  0  0  0  0  0  0  0  0
    3.8538   -5.3758    4.8461 H   0  0  0  0  0  0  0  0  0  0  0  0
    5.3338   -6.9850    5.1167 H   0  0  0  0  0  0  0  0  0  0  0  0
    4.7832   -9.0705    4.2029 H   0  0  0  0  0  0  0  0  0  0  0  0
    3.7650   -9.3751    5.8883 H   0  0  0  0  0  0  0  0  0  0  0  0
    2.6800   -8.0597    5.7447 H   0  0  0  0  0  0  0  0  0  0  0  0
    2.5625  -10.8880    4.6003 H   0  0  0  0  0  0  0  0  0  0  0  0
    1.2701  -10.0089    5.3207 H   0  0  0  0  0  0  0  0  0  0  0  0
    1.9507  -10.3658    2.4561 H   0  0  0  0  0  0  0  0  0  0  0  0
   -0.5856   -9.3243    3.7779 H   0  0  0  0  0  0  0  0  0  0  0  0
   -0.1857  -10.9808    3.3626 H   0  0  0  0  0  0  0  0  0  0  0  0
   -0.4062   -9.7984    2.0798 H   0  0  0  0  0  0  0  0  0  0  0  0
    1.5835   -7.9018    4.5872 H   0  0  0  0  0  0  0  0  0  0  0  0
    1.4744   -7.8833    0.6866 H   0  0  0  0  0  0  0  0  0  0  0  0
   -0.4246   -7.5203    1.6055 H   0  0  0  0  0  0  0  0  0  0  0  0
  1  2  1  0
  1 29  1  0
  1 30  1  0
  1 31  1  0
  2 19  1  0
  2  3  1  0
  2 32  1  1
  3  4  1  0
  3 33  1  0
  3 34  1  0
  4  5  1  0
  4  6  1  0
  4 35  1  6
  5 36  1  0
  6 20  1  0
  6 25  1  0
  6  7  1  6
  7  8  1  0
  7 37  1  0
  7 38  1  0
  8 27  1  0
  8  9  1  6
  8 16  1  0
  9 10  1  0
  9 39  1  0
  9 40  1  0
 10 15  1  0
 10 11  1  0
 11 12  1  0
 11 41  1  0
 11 42  1  0
 12 13  1  0
 12 43  1  0
 12 44  1  0
 13 14  1  0
 14 15  1  0
 14 45  1  0
 14 46  1  0
 15 47  1  0
 15 48  1  0
 16 17  1  0
 16 18  1  0
 16 49  1  6
 17 50  1  0
 18 19  1  0
 18 51  1  0
 18 52  1  0
 19 20  1  0
 19 53  1  1
 20 21  1  0
 20 54  1  6
 21 22  1  0
 21 55  1  0
 21 56  1  0
 22 23  1  0
 22 57  1  0
 22 58  1  0
 23 24  1  0
 23 25  1  0
 23 59  1  6
 24 60  1  0
 24 61  1  0
 24 62  1  0
 25 26  1  1
 25 27  1  0
 26 63  1  0
 27 28  1  0
 27 64  1  6
 28 65  1  0
M  END
>  <i_m_ct_stereo_status>  (306) 
1

>  <s_m_source_file>  (306) 
/var/tmp/pbs.5076255.sched01/tmpimq9cq4v/129n8p27m2m.sdf

>  <i_m_source_file_index>  (306) 
3

>  <i_lp_mmshare_version>  (306) 
48012

>  <i_f3d_flags>  (306) 
0

>  <s_epik_input>  (306) 
W09IXVtDQEBIXTFbQ0gyXVtDQEBIXShbQ0gzXSlbQ0BIXShbQ0hdMltDQF0xMzQpW0NIMl1bQ0BIXShbT0hdKVtDQEBdKFtDSDJdMykoW0NASF0oW09IXSlbQ0BAXTQoW09IXSlbQ0BIXShbQ0gzXSlbQ0gyXVtDSDJdMilbQ0gyXU41W0NIMl1bQ0gyXU9bQ0gyXVtDSDJdNQ==

>  <s_epik_cmdline>  (306) 
J2VwaWtfcHl0aG9uJywgJy1waHQnLCAnMi4wJywgJy1waCcsICc3LjAnLCAnLXRuJywgJzgnLCAnLW1hJywgJzIwMCcsICctaW1hZScsICc8aW5maWxlLm1hZT4nLCAnLW9tYWUnLCAnPG91dGZpbGUubWFlPic=

>  <r_epik_Ionization_Penalty>  (306) 
0.422948

>  <r_epik_Ionization_Penalty_Charging>  (306) 
0

>  <r_epik_Ionization_Penalty_Neutral>  (306) 
0.422948

>  <r_epik_State_Penalty>  (306) 
0.423775

>  <r_epik_Charging_Adjusted_Penalty>  (306) 
0.423775

>  <i_epik_Tot_Q>  (306) 
0

>  <i_epik_Tot_abs_Q>  (306) 
0

>  <s_lp_Force_Field>  (306) 
OPLS3e

>  <r_lp_Energy>  (306) 
175.191

>  <b_lp_Chiralities_Consistent>  (306) 
1

>  <s_lp_Variant>  (306) 
89:0-3

>  <s_i_glide_gridfile>  (306) 
pfpi4k_grid

>  <i_i_glide_lignum>  (306) 
3

>  <i_i_glide_rotatable_bonds>  (306) 
6

>  <r_i_docking_score>  (306) 
-3.34823

>  <r_i_glide_ligand_efficiency>  (306) 
-0.11958

>  <r_i_glide_ligand_efficiency_sa>  (306) 
-0.363115

>  <r_i_glide_ligand_efficiency_ln>  (306) 
-0.772871

>  <r_i_glide_gscore>  (306) 
-3.34823

>  <r_i_glide_lipo>  (306) 
-0.219695

>  <r_i_glide_hbond>  (306) 
-0.16

>  <r_i_glide_metal>  (306) 
-0

>  <r_i_glide_rewards>  (306) 
-1.21228

>  <r_i_glide_evdw>  (306) 
-19.653

>  <r_i_glide_ecoul>  (306) 
-6.82408

>  <r_i_glide_erotb>  (306) 
0.250001

>  <r_i_glide_esite>  (306) 
0

>  <r_i_glide_emodel>  (306) 
-36.1428

>  <r_i_glide_energy>  (306) 
-26.4771

>  <r_i_glide_einternal>  (306) 
4.17258

>  <r_i_glide_intrahb_reward>  (306) 
-0.5

>  <i_i_glide_confnum>  (306) 
5

>  <i_i_glide_posenum>  (306) 
17

>  <r_i_glide_eff_state_penalty>  (306) 
0

>  <ligand_id>  (306) 
89

>  <original_smiles>  (306) 
CC1CC(O)C23CC4(CN5CCOCC5)C(O)CC1C2CCC(C)C3(O)C4O

>  <smiles>  (306) 
[H]OC1([H])C([H])([H])C2([H])C([H])(C([H])([H])[H])C([H])([H])C([H])(O[H])C34C([H])([H])C1(C([H])([H])N1C([H])([H])C([H])([H])OC([H])([H])C1([H])[H])C([H])(O[H])C3(O[H])C([H])(C([H])([H])[H])C([H])([H])C([H])([H])C24[H]

$$$$
89:2:2
     RDKit          3D

 65 69  0  0  1  0  0  0  0  0999 V2000
    5.8820   -7.5027    5.8083 C   0  0  0  0  0  0  0  0  0  0  0  0
    5.9892   -6.4556    4.6789 C   0  0  2  0  0  0  0  0  0  0  0  0
    5.2735   -5.0554    5.0497 C   0  0  0  0  0  0  0  0  0  0  0  0
    4.4807   -4.2663    3.9084 C   0  0  1  0  0  0  0  0  0  0  0  0
    5.2204   -3.1437    3.4487 O   0  0  0  0  0  0  0  0  0  0  0  0
    4.1153   -5.3356    2.8204 C   0  0  2  0  0  0  0  0  0  0  0  0
    3.1223   -6.1517    3.7305 C   0  0  0  0  0  0  0  0  0  0  0  0
    2.2531   -6.9911    2.8889 C   0  0  2  0  0  0  0  0  0  0  0  0
    0.9514   -7.4792    3.6042 C   0  0  0  0  0  0  0  0  0  0  0  0
    1.0799   -8.0722    4.9476 N   0  0  0  0  0  0  0  0  0  0  0  0
    1.1466   -7.0745    6.0214 C   0  0  0  0  0  0  0  0  0  0  0  0
    1.2714   -7.7151    7.4065 C   0  0  0  0  0  0  0  0  0  0  0  0
    0.1822   -8.5967    7.6414 O   0  0  0  0  0  0  0  0  0  0  0  0
    0.0956   -9.6191    6.6510 C   0  0  0  0  0  0  0  0  0  0  0  0
   -0.0270   -8.9867    5.2474 C   0  0  0  0  0  0  0  0  0  0  0  0
    3.2157   -8.2245    2.5661 C   0  0  1  0  0  0  0  0  0  0  0  0
    2.8982   -8.8615    1.3312 O   0  0  0  0  0  0  0  0  0  0  0  0
    4.8006   -8.2538    2.8785 C   0  0  0  0  0  0  0  0  0  0  0  0
    5.7905   -7.0368    3.1976 C   0  0  1  0  0  0  0  0  0  0  0  0
    5.5369   -5.7793    2.4004 C   0  0  1  0  0  0  0  0  0  0  0  0
    6.0212   -5.4163    0.9601 C   0  0  0  0  0  0  0  0  0  0  0  0
    5.2494   -4.1701    0.3557 C   0  0  0  0  0  0  0  0  0  0  0  0
    3.7207   -3.9854    0.7412 C   0  0  1  0  0  0  0  0  0  0  0  0
    2.8499   -3.5515   -0.4557 C   0  0  0  0  0  0  0  0  0  0  0  0
    3.2871   -5.2655    1.4726 C   0  0  1  0  0  0  0  0  0  0  0  0
    3.5464   -6.2511    0.4751 O   0  0  0  0  0  0  0  0  0  0  0  0
    1.8996   -5.8268    1.8685 C   0  0  1  0  0  0  0  0  0  0  0  0
    1.0265   -6.2621    0.8256 O   0  0  0  0  0  0  0  0  0  0  0  0
    4.8636   -7.8656    5.9432 H   0  0  0  0  0  0  0  0  0  0  0  0
    6.2032   -7.0734    6.7592 H   0  0  0  0  0  0  0  0  0  0  0  0
    6.5222   -8.3643    5.6101 H   0  0  0  0  0  0  0  0  0  0  0  0
    7.0475   -6.1910    4.6949 H   0  0  0  0  0  0  0  0  0  0  0  0
    4.5761   -5.2519    5.8686 H   0  0  0  0  0  0  0  0  0  0  0  0
    6.0124   -4.3830    5.4977 H   0  0  0  0  0  0  0  0  0  0  0  0
    3.6036   -3.7902    4.3411 H   0  0  0  0  0  0  0  0  0  0  0  0
    5.9708   -3.4459    2.9807 H   0  0  0  0  0  0  0  0  0  0  0  0
    3.5388   -6.7530    4.5249 H   0  0  0  0  0  0  0  0  0  0  0  0
    2.4363   -5.4755    4.2361 H   0  0  0  0  0  0  0  0  0  0  0  0
    0.2317   -6.6632    3.6494 H   0  0  0  0  0  0  0  0  0  0  0  0
    0.4969   -8.2122    2.9351 H   0  0  0  0  0  0  0  0  0  0  0  0
    2.0035   -6.4244    5.9228 H   0  0  0  0  0  0  0  0  0  0  0  0
    0.2521   -6.4506    5.9949 H   0  0  0  0  0  0  0  0  0  0  0  0
    2.2105   -8.2593    7.4808 H   0  0  0  0  0  0  0  0  0  0  0  0
    1.2901   -6.9395    8.1701 H   0  0  0  0  0  0  0  0  0  0  0  0
    0.9838  -10.2513    6.7016 H   0  0  0  0  0  0  0  0  0  0  0  0
   -0.7659  -10.2495    6.8802 H   0  0  0  0  0  0  0  0  0  0  0  0
   -0.9779   -8.4619    5.1708 H   0  0  0  0  0  0  0  0  0  0  0  0
   -0.0713   -9.7896    4.5086 H   0  0  0  0  0  0  0  0  0  0  0  0
    2.8668   -8.9978    3.2543 H   0  0  0  0  0  0  0  0  0  0  0  0
    3.3066   -9.7087    1.2994 H   0  0  0  0  0  0  0  0  0  0  0  0
    4.9471   -8.9789    3.6790 H   0  0  0  0  0  0  0  0  0  0  0  0
    5.2518   -8.7509    2.0210 H   0  0  0  0  0  0  0  0  0  0  0  0
    6.7764   -7.4119    2.9138 H   0  0  0  0  0  0  0  0  0  0  0  0
    6.3128   -5.1381    2.8197 H   0  0  0  0  0  0  0  0  0  0  0  0
    7.0887   -5.1877    0.9712 H   0  0  0  0  0  0  0  0  0  0  0  0
    5.9454   -6.2832    0.3124 H   0  0  0  0  0  0  0  0  0  0  0  0
    5.7773   -3.2503    0.6232 H   0  0  0  0  0  0  0  0  0  0  0  0
    5.3291   -4.2290   -0.7308 H   0  0  0  0  0  0  0  0  0  0  0  0
    3.6339   -3.1633    1.4485 H   0  0  0  0  0  0  0  0  0  0  0  0
    2.8797   -4.2576   -1.2740 H   0  0  0  0  0  0  0  0  0  0  0  0
    3.2131   -2.6042   -0.8579 H   0  0  0  0  0  0  0  0  0  0  0  0
    1.8169   -3.4085   -0.1714 H   0  0  0  0  0  0  0  0  0  0  0  0
    3.2151   -5.9393   -0.3546 H   0  0  0  0  0  0  0  0  0  0  0  0
    1.3523   -5.0309    2.3768 H   0  0  0  0  0  0  0  0  0  0  0  0
    1.3817   -7.0862    0.5290 H   0  0  0  0  0  0  0  0  0  0  0  0
  1  2  1  0
  1 29  1  0
  1 30  1  0
  1 31  1  0
  2 19  1  0
  2  3  1  0
  2 32  1  6
  3  4  1  0
  3 33  1  0
  3 34  1  0
  4  5  1  0
  4  6  1  0
  4 35  1  1
  5 36  1  0
  6 20  1  0
  6 25  1  0
  6  7  1  1
  7  8  1  0
  7 37  1  0
  7 38  1  0
  8 27  1  0
  8  9  1  1
  8 16  1  0
  9 10  1  0
  9 39  1  0
  9 40  1  0
 10 15  1  0
 10 11  1  0
 11 12  1  0
 11 41  1  0
 11 42  1  0
 12 13  1  0
 12 43  1  0
 12 44  1  0
 13 14  1  0
 14 15  1  0
 14 45  1  0
 14 46  1  0
 15 47  1  0
 15 48  1  0
 16 17  1  0
 16 18  1  0
 16 49  1  1
 17 50  1  0
 18 19  1  0
 18 51  1  0
 18 52  1  0
 19 20  1  0
 19 53  1  6
 20 21  1  0
 20 54  1  1
 21 22  1  0
 21 55  1  0
 21 56  1  0
 22 23  1  0
 22 57  1  0
 22 58  1  0
 23 24  1  0
 23 25  1  0
 23 59  1  1
 24 60  1  0
 24 61  1  0
 24 62  1  0
 25 26  1  6
 25 27  1  0
 26 63  1  0
 27 28  1  0
 27 64  1  1
 28 65  1  0
M  END
>  <i_m_ct_stereo_status>  (307) 
1

>  <s_m_source_file>  (307) 
/var/tmp/pbs.5076255.sched01/tmpimq9cq4v/129n8p27m2m.sdf

>  <i_m_source_file_index>  (307) 
3

>  <i_lp_mmshare_version>  (307) 
48012

>  <i_f3d_flags>  (307) 
0

>  <s_epik_input>  (307) 
W09IXVtDQEBIXTFbQ0gyXVtDQEBIXShbQ0gzXSlbQ0BIXShbQ0hdMltDQF0xMzQpW0NIMl1bQ0BIXShbT0hdKVtDQEBdKFtDSDJdMykoW0NASF0oW09IXSlbQ0BAXTQoW09IXSlbQ0BIXShbQ0gzXSlbQ0gyXVtDSDJdMilbQ0gyXU41W0NIMl1bQ0gyXU9bQ0gyXVtDSDJdNQ==

>  <s_epik_cmdline>  (307) 
J2VwaWtfcHl0aG9uJywgJy1waHQnLCAnMi4wJywgJy1waCcsICc3LjAnLCAnLXRuJywgJzgnLCAnLW1hJywgJzIwMCcsICctaW1hZScsICc8aW5maWxlLm1hZT4nLCAnLW9tYWUnLCAnPG91dGZpbGUubWFlPic=

>  <r_epik_Ionization_Penalty>  (307) 
0.422948

>  <r_epik_Ionization_Penalty_Charging>  (307) 
0

>  <r_epik_Ionization_Penalty_Neutral>  (307) 
0.422948

>  <r_epik_State_Penalty>  (307) 
0.423775

>  <r_epik_Charging_Adjusted_Penalty>  (307) 
0.423775

>  <i_epik_Tot_Q>  (307) 
0

>  <i_epik_Tot_abs_Q>  (307) 
0

>  <s_lp_Force_Field>  (307) 
OPLS3e

>  <r_lp_Energy>  (307) 
175.191

>  <b_lp_Chiralities_Consistent>  (307) 
1

>  <s_lp_Variant>  (307) 
89:0-3

>  <s_i_glide_gridfile>  (307) 
pfpi4k_grid

>  <i_i_glide_lignum>  (307) 
3

>  <i_i_glide_rotatable_bonds>  (307) 
6

>  <r_i_docking_score>  (307) 
-3.05739

>  <r_i_glide_ligand_efficiency>  (307) 
-0.109192

>  <r_i_glide_ligand_efficiency_sa>  (307) 
-0.331572

>  <r_i_glide_ligand_efficiency_ln>  (307) 
-0.705735

>  <r_i_glide_gscore>  (307) 
-3.05739

>  <r_i_glide_lipo>  (307) 
-0.180755

>  <r_i_glide_hbond>  (307) 
0

>  <r_i_glide_metal>  (307) 
-0

>  <r_i_glide_rewards>  (307) 
-1.21228

>  <r_i_glide_evdw>  (307) 
-18.3094

>  <r_i_glide_ecoul>  (307) 
-6.65926

>  <r_i_glide_erotb>  (307) 
0.250001

>  <r_i_glide_esite>  (307) 
0

>  <r_i_glide_emodel>  (307) 
-35.1143

>  <r_i_glide_energy>  (307) 
-24.9686

>  <r_i_glide_einternal>  (307) 
1.80152

>  <r_i_glide_intrahb_reward>  (307) 
-0.5

>  <i_i_glide_confnum>  (307) 
5

>  <i_i_glide_posenum>  (307) 
13

>  <r_i_glide_eff_state_penalty>  (307) 
0

>  <ligand_id>  (307) 
89

>  <original_smiles>  (307) 
CC1CC(O)C23CC4(CN5CCOCC5)C(O)CC1C2CCC(C)C3(O)C4O

>  <smiles>  (307) 
[H]OC1([H])C([H])([H])C2([H])C([H])(C([H])([H])[H])C([H])([H])C([H])(O[H])C34C([H])([H])C1(C([H])([H])N1C([H])([H])C([H])([H])OC([H])([H])C1([H])[H])C([H])(O[H])C3(O[H])C([H])(C([H])([H])[H])C([H])([H])C([H])([H])C24[H]

$$$$
89:3:0
     RDKit          3D

 65 69  0  0  1  0  0  0  0  0999 V2000
    0.0391   -9.2493    7.3518 C   0  0  0  0  0  0  0  0  0  0  0  0
    0.9549   -9.5006    6.1401 C   0  0  2  0  0  0  0  0  0  0  0  0
    2.4304   -9.0524    6.4358 C   0  0  0  0  0  0  0  0  0  0  0  0
    3.3361   -8.7035    5.2063 C   0  0  1  0  0  0  0  0  0  0  0  0
    4.1793   -9.8144    4.9862 O   0  0  0  0  0  0  0  0  0  0  0  0
    2.4395   -8.0685    4.0549 C   0  0  2  0  0  0  0  0  0  0  0  0
    2.1324   -6.7278    4.7835 C   0  0  0  0  0  0  0  0  0  0  0  0
    1.5042   -5.8532    3.7851 C   0  0  2  0  0  0  0  0  0  0  0  0
    1.4376   -4.3614    4.2300 C   0  0  0  0  0  0  0  0  0  0  0  0
    0.5752   -4.0555    5.3881 N   0  0  0  0  0  0  0  0  0  0  0  0
   -0.0323   -2.7344    5.2954 C   0  0  0  0  0  0  0  0  0  0  0  0
   -0.9733   -2.4518    6.4783 C   0  0  0  0  0  0  0  0  0  0  0  0
   -0.2804   -2.6156    7.7102 O   0  0  0  0  0  0  0  0  0  0  0  0
    0.3043   -3.9021    7.8498 C   0  0  0  0  0  0  0  0  0  0  0  0
    1.2544   -4.1641    6.6766 C   0  0  0  0  0  0  0  0  0  0  0  0
    0.0354   -6.4936    3.6534 C   0  0  1  0  0  0  0  0  0  0  0  0
   -0.4267   -6.6584    2.3238 O   0  0  0  0  0  0  0  0  0  0  0  0
   -0.4485   -7.6548    4.6663 C   0  0  0  0  0  0  0  0  0  0  0  0
    0.3177   -9.0506    4.7828 C   0  0  1  0  0  0  0  0  0  0  0  0
    1.3563   -9.0902    3.6958 C   0  0  2  0  0  0  0  0  0  0  0  0
    2.0655  -10.3476    3.1172 C   0  0  0  0  0  0  0  0  0  0  0  0
    3.3339  -10.0250    2.1893 C   0  0  0  0  0  0  0  0  0  0  0  0
    4.0053   -8.5709    2.2201 C   0  0  1  0  0  0  0  0  0  0  0  0
    4.7841   -8.2649    0.9236 C   0  0  0  0  0  0  0  0  0  0  0  0
    2.8659   -7.6049    2.6080 C   0  0  1  0  0  0  0  0  0  0  0  0
    2.0017   -7.8091    1.4765 O   0  0  0  0  0  0  0  0  0  0  0  0
    2.6829   -6.0544    2.7164 C   0  0  1  0  0  0  0  0  0  0  0  0
    2.4352   -5.3156    1.5292 O   0  0  0  0  0  0  0  0  0  0  0  0
    0.0005   -8.1887    7.6092 H   0  0  0  0  0  0  0  0  0  0  0  0
    0.4182   -9.7813    8.2260 H   0  0  0  0  0  0  0  0  0  0  0  0
   -0.9769   -9.5924    7.1606 H   0  0  0  0  0  0  0  0  0  0  0  0
    1.0153  -10.5869    6.0532 H   0  0  0  0  0  0  0  0  0  0  0  0
    2.4031   -8.1999    7.1216 H   0  0  0  0  0  0  0  0  0  0  0  0
    2.9101   -9.8358    7.0275 H   0  0  0  0  0  0  0  0  0  0  0  0
    4.0803   -7.9778    5.5401 H   0  0  0  0  0  0  0  0  0  0  0  0
    3.6465  -10.5575    4.7082 H   0  0  0  0  0  0  0  0  0  0  0  0
    1.5577   -6.8226    5.6921 H   0  0  0  0  0  0  0  0  0  0  0  0
    3.0473   -6.2364    5.1195 H   0  0  0  0  0  0  0  0  0  0  0  0
    2.4393   -3.9585    4.4027 H   0  0  0  0  0  0  0  0  0  0  0  0
    1.0677   -3.8218    3.3581 H   0  0  0  0  0  0  0  0  0  0  0  0
    0.7368   -1.9684    5.2485 H   0  0  0  0  0  0  0  0  0  0  0  0
   -0.6018   -2.6537    4.3728 H   0  0  0  0  0  0  0  0  0  0  0  0
   -1.3626   -1.4351    6.4224 H   0  0  0  0  0  0  0  0  0  0  0  0
   -1.8310   -3.1260    6.4616 H   0  0  0  0  0  0  0  0  0  0  0  0
    0.8433   -3.9529    8.7952 H   0  0  0  0  0  0  0  0  0  0  0  0
   -0.4785   -4.6549    7.8873 H   0  0  0  0  0  0  0  0  0  0  0  0
    1.6861   -5.1471    6.8265 H   0  0  0  0  0  0  0  0  0  0  0  0
    2.0770   -3.4545    6.7213 H   0  0  0  0  0  0  0  0  0  0  0  0
   -0.6321   -5.6945    3.9633 H   0  0  0  0  0  0  0  0  0  0  0  0
    0.1051   -7.3604    1.9227 H   0  0  0  0  0  0  0  0  0  0  0  0
   -0.5568   -7.2012    5.6497 H   0  0  0  0  0  0  0  0  0  0  0  0
   -1.4782   -7.8878    4.3915 H   0  0  0  0  0  0  0  0  0  0  0  0
   -0.4312   -9.8042    4.5328 H   0  0  0  0  0  0  0  0  0  0  0  0
    0.6725   -8.8694    2.8877 H   0  0  0  0  0  0  0  0  0  0  0  0
    2.3310  -11.0400    3.9142 H   0  0  0  0  0  0  0  0  0  0  0  0
    1.3457  -10.9082    2.5264 H   0  0  0  0  0  0  0  0  0  0  0  0
    4.1111  -10.7584    2.3841 H   0  0  0  0  0  0  0  0  0  0  0  0
    3.0348  -10.2206    1.1596 H   0  0  0  0  0  0  0  0  0  0  0  0
    4.7713   -8.5285    2.9922 H   0  0  0  0  0  0  0  0  0  0  0  0
    4.1831   -8.3939    0.0271 H   0  0  0  0  0  0  0  0  0  0  0  0
    5.6175   -8.9622    0.8237 H   0  0  0  0  0  0  0  0  0  0  0  0
    5.1903   -7.2523    0.9094 H   0  0  0  0  0  0  0  0  0  0  0  0
    1.9459   -8.7505    1.3335 H   0  0  0  0  0  0  0  0  0  0  0  0
    3.6114   -5.6308    3.1044 H   0  0  0  0  0  0  0  0  0  0  0  0
    3.1359   -5.5123    0.9098 H   0  0  0  0  0  0  0  0  0  0  0  0
  1  2  1  0
  1 29  1  0
  1 30  1  0
  1 31  1  0
  2 19  1  0
  2  3  1  0
  2 32  1  6
  3  4  1  0
  3 33  1  0
  3 34  1  0
  4  5  1  0
  4  6  1  0
  4 35  1  1
  5 36  1  0
  6 20  1  0
  6 25  1  0
  6  7  1  1
  7  8  1  0
  7 37  1  0
  7 38  1  0
  8 27  1  0
  8  9  1  1
  8 16  1  0
  9 10  1  0
  9 39  1  0
  9 40  1  0
 10 15  1  0
 10 11  1  0
 11 12  1  0
 11 41  1  0
 11 42  1  0
 12 13  1  0
 12 43  1  0
 12 44  1  0
 13 14  1  0
 14 15  1  0
 14 45  1  0
 14 46  1  0
 15 47  1  0
 15 48  1  0
 16 17  1  0
 16 18  1  0
 16 49  1  1
 17 50  1  0
 18 19  1  0
 18 51  1  0
 18 52  1  0
 19 20  1  0
 19 53  1  6
 20 21  1  0
 20 54  1  6
 21 22  1  0
 21 55  1  0
 21 56  1  0
 22 23  1  0
 22 57  1  0
 22 58  1  0
 23 24  1  0
 23 25  1  0
 23 59  1  1
 24 60  1  0
 24 61  1  0
 24 62  1  0
 25 26  1  6
 25 27  1  0
 26 63  1  0
 27 28  1  0
 27 64  1  1
 28 65  1  0
M  END
>  <i_m_ct_stereo_status>  (308) 
1

>  <s_m_source_file>  (308) 
/var/tmp/pbs.5076255.sched01/tmpimq9cq4v/129n8p27m2m.sdf

>  <i_m_source_file_index>  (308) 
4

>  <i_lp_mmshare_version>  (308) 
48012

>  <i_f3d_flags>  (308) 
0

>  <s_epik_input>  (308) 
W09IXVtDQEBIXTFbQ0gyXVtDQEBIXShbQ0gzXSlbQ0BIXShbQ0hdMltDQF0xMzQpW0NIMl1bQ0BIXShbT0hdKVtDQEBdKFtDSDJdMykoW0NASF0oW09IXSlbQ0BAXTQoW09IXSlbQ0BIXShbQ0gzXSlbQ0gyXVtDSDJdMilbQ0gyXU41W0NIMl1bQ0gyXU9bQ0gyXVtDSDJdNQ==

>  <s_epik_cmdline>  (308) 
J2VwaWtfcHl0aG9uJywgJy1waHQnLCAnMi4wJywgJy1waCcsICc3LjAnLCAnLXRuJywgJzgnLCAnLW1hJywgJzIwMCcsICctaW1hZScsICc8aW5maWxlLm1hZT4nLCAnLW9tYWUnLCAnPG91dGZpbGUubWFlPic=

>  <r_epik_Ionization_Penalty>  (308) 
0.422948

>  <r_epik_Ionization_Penalty_Charging>  (308) 
0

>  <r_epik_Ionization_Penalty_Neutral>  (308) 
0.422948

>  <r_epik_State_Penalty>  (308) 
0.423775

>  <r_epik_Charging_Adjusted_Penalty>  (308) 
0.423775

>  <i_epik_Tot_Q>  (308) 
0

>  <i_epik_Tot_abs_Q>  (308) 
0

>  <s_lp_Force_Field>  (308) 
OPLS3e

>  <r_lp_Energy>  (308) 
159.154

>  <b_lp_Chiralities_Consistent>  (308) 
1

>  <s_lp_Variant>  (308) 
89:0-4

>  <s_i_glide_gridfile>  (308) 
pfpi4k_grid

>  <i_i_glide_lignum>  (308) 
4

>  <i_i_glide_rotatable_bonds>  (308) 
6

>  <r_i_docking_score>  (308) 
-3.20278

>  <r_i_glide_ligand_efficiency>  (308) 
-0.114385

>  <r_i_glide_ligand_efficiency_sa>  (308) 
-0.34734

>  <r_i_glide_ligand_efficiency_ln>  (308) 
-0.739295

>  <r_i_glide_gscore>  (308) 
-3.20278

>  <r_i_glide_lipo>  (308) 
-0.0595724

>  <r_i_glide_hbond>  (308) 
-0.0757614

>  <r_i_glide_metal>  (308) 
-0

>  <r_i_glide_rewards>  (308) 
-1.21228

>  <r_i_glide_evdw>  (308) 
-19.231

>  <r_i_glide_ecoul>  (308) 
-7.62411

>  <r_i_glide_erotb>  (308) 
0.250001

>  <r_i_glide_esite>  (308) 
0

>  <r_i_glide_emodel>  (308) 
-36.5709

>  <r_i_glide_energy>  (308) 
-26.8551

>  <r_i_glide_einternal>  (308) 
3.1231

>  <r_i_glide_intrahb_reward>  (308) 
-0.5

>  <i_i_glide_confnum>  (308) 
2

>  <i_i_glide_posenum>  (308) 
22

>  <r_i_glide_eff_state_penalty>  (308) 
0

>  <ligand_id>  (308) 
89

>  <original_smiles>  (308) 
CC1CC(O)C23CC4(CN5CCOCC5)C(O)CC1C2CCC(C)C3(O)C4O

>  <smiles>  (308) 
[H]OC1([H])C([H])([H])C2([H])C([H])(C([H])([H])[H])C([H])([H])C([H])(O[H])C34C([H])([H])C1(C([H])([H])N1C([H])([H])C([H])([H])OC([H])([H])C1([H])[H])C([H])(O[H])C3(O[H])C([H])(C([H])([H])[H])C([H])([H])C([H])([H])C24[H]

$$$$
89:3:1
     RDKit          3D

 65 69  0  0  1  0  0  0  0  0999 V2000
   -0.0057   -9.2322    7.5318 C   0  0  0  0  0  0  0  0  0  0  0  0
    0.8517   -9.5769    6.3014 C   0  0  2  0  0  0  0  0  0  0  0  0
    2.3720   -9.3151    6.5706 C   0  0  0  0  0  0  0  0  0  0  0  0
    3.3034   -9.0907    5.3339 C   0  0  1  0  0  0  0  0  0  0  0  0
    4.0271  -10.2859    5.1006 O   0  0  0  0  0  0  0  0  0  0  0  0
    2.4751   -8.3565    4.1861 C   0  0  2  0  0  0  0  0  0  0  0  0
    2.3251   -6.9737    4.8983 C   0  0  0  0  0  0  0  0  0  0  0  0
    1.7695   -6.0499    3.8751 C   0  0  2  0  0  0  0  0  0  0  0  0
    1.8475   -4.5640    4.3476 C   0  0  0  0  0  0  0  0  0  0  0  0
    1.2653   -4.2219    5.6694 N   0  0  0  0  0  0  0  0  0  0  0  0
   -0.1884   -4.0737    5.6694 C   0  0  0  0  0  0  0  0  0  0  0  0
   -0.7654   -3.6987    7.0307 C   0  0  0  0  0  0  0  0  0  0  0  0
   -0.1731   -2.5010    7.5436 O   0  0  0  0  0  0  0  0  0  0  0  0
    1.2465   -2.6412    7.6064 C   0  0  0  0  0  0  0  0  0  0  0  0
    1.8443   -2.9885    6.2178 C   0  0  0  0  0  0  0  0  0  0  0  0
    0.2474   -6.5323    3.7043 C   0  0  1  0  0  0  0  0  0  0  0  0
   -0.2287   -6.7789    2.3828 O   0  0  0  0  0  0  0  0  0  0  0  0
   -0.3328   -7.5961    4.7853 C   0  0  0  0  0  0  0  0  0  0  0  0
    0.2631   -9.0740    4.9393 C   0  0  1  0  0  0  0  0  0  0  0  0
    1.2803   -9.2575    3.8507 C   0  0  2  0  0  0  0  0  0  0  0  0
    1.8460  -10.5964    3.2844 C   0  0  0  0  0  0  0  0  0  0  0  0
    3.1172  -10.4101    2.3224 C   0  0  0  0  0  0  0  0  0  0  0  0
    3.9503   -9.0406    2.3293 C   0  0  1  0  0  0  0  0  0  0  0  0
    4.7132   -8.8497    0.9959 C   0  0  0  0  0  0  0  0  0  0  0  0
    2.9266   -7.9604    2.7240 C   0  0  1  0  0  0  0  0  0  0  0  0
    2.0342   -8.0788    1.6091 O   0  0  0  0  0  0  0  0  0  0  0  0
    2.9275   -6.3947    2.8148 C   0  0  1  0  0  0  0  0  0  0  0  0
    2.7323   -5.6457    1.6255 O   0  0  0  0  0  0  0  0  0  0  0  0
    0.0657   -8.1817    7.7979 H   0  0  0  0  0  0  0  0  0  0  0  0
    0.3198   -9.8035    8.4006 H   0  0  0  0  0  0  0  0  0  0  0  0
   -1.0545   -9.4640    7.3665 H   0  0  0  0  0  0  0  0  0  0  0  0
    0.7636  -10.6540    6.2097 H   0  0  0  0  0  0  0  0  0  0  0  0
    2.4675   -8.4720    7.2526 H   0  0  0  0  0  0  0  0  0  0  0  0
    2.7612  -10.1503    7.1527 H   0  0  0  0  0  0  0  0  0  0  0  0
    4.1213   -8.4503    5.6615 H   0  0  0  0  0  0  0  0  0  0  0  0
    3.4151  -10.9939    4.9180 H   0  0  0  0  0  0  0  0  0  0  0  0
    1.7725   -6.9539    5.8294 H   0  0  0  0  0  0  0  0  0  0  0  0
    3.2935   -6.5751    5.2137 H   0  0  0  0  0  0  0  0  0  0  0  0
    2.8938   -4.2661    4.3344 H   0  0  0  0  0  0  0  0  0  0  0  0
    1.4023   -3.9346    3.5791 H   0  0  0  0  0  0  0  0  0  0  0  0
   -0.4868   -3.3363    4.9215 H   0  0  0  0  0  0  0  0  0  0  0  0
   -0.6725   -5.0175    5.4832 H   0  0  0  0  0  0  0  0  0  0  0  0
   -1.8466   -3.5893    6.9245 H   0  0  0  0  0  0  0  0  0  0  0  0
   -0.6000   -4.5401    7.7098 H   0  0  0  0  0  0  0  0  0  0  0  0
    1.6481   -1.6996    7.9739 H   0  0  0  0  0  0  0  0  0  0  0  0
    1.5005   -3.4254    8.3254 H   0  0  0  0  0  0  0  0  0  0  0  0
    2.9365   -3.0898    6.3187 H   0  0  0  0  0  0  0  0  0  0  0  0
    1.6788   -2.1557    5.5266 H   0  0  0  0  0  0  0  0  0  0  0  0
   -0.3341   -5.6370    3.7996 H   0  0  0  0  0  0  0  0  0  0  0  0
    0.2443   -7.5224    2.0093 H   0  0  0  0  0  0  0  0  0  0  0  0
   -0.3753   -7.1484    5.7744 H   0  0  0  0  0  0  0  0  0  0  0  0
   -1.3819   -7.7268    4.5527 H   0  0  0  0  0  0  0  0  0  0  0  0
   -0.5650   -9.7450    4.7077 H   0  0  0  0  0  0  0  0  0  0  0  0
    0.6055   -8.9719    3.0543 H   0  0  0  0  0  0  0  0  0  0  0  0
    2.0111  -11.3316    4.0759 H   0  0  0  0  0  0  0  0  0  0  0  0
    1.0563  -11.0504    2.6895 H   0  0  0  0  0  0  0  0  0  0  0  0
    3.8041  -11.2231    2.5428 H   0  0  0  0  0  0  0  0  0  0  0  0
    2.8018  -10.6189    1.2986 H   0  0  0  0  0  0  0  0  0  0  0  0
    4.7318   -9.0645    3.0904 H   0  0  0  0  0  0  0  0  0  0  0  0
    4.0826   -8.9178    0.1106 H   0  0  0  0  0  0  0  0  0  0  0  0
    5.4611   -9.6361    0.8937 H   0  0  0  0  0  0  0  0  0  0  0  0
    5.2447   -7.9023    0.9711 H   0  0  0  0  0  0  0  0  0  0  0  0
    1.8790   -9.0101    1.4624 H   0  0  0  0  0  0  0  0  0  0  0  0
    3.9061   -6.0788    3.1925 H   0  0  0  0  0  0  0  0  0  0  0  0
    3.4263   -5.8695    1.0125 H   0  0  0  0  0  0  0  0  0  0  0  0
  1  2  1  0
  1 29  1  0
  1 30  1  0
  1 31  1  0
  2 19  1  0
  2  3  1  0
  2 32  1  6
  3  4  1  0
  3 33  1  0
  3 34  1  0
  4  5  1  0
  4  6  1  0
  4 35  1  1
  5 36  1  0
  6 20  1  0
  6 25  1  0
  6  7  1  1
  7  8  1  0
  7 37  1  0
  7 38  1  0
  8 27  1  0
  8  9  1  1
  8 16  1  0
  9 10  1  0
  9 39  1  0
  9 40  1  0
 10 15  1  0
 10 11  1  0
 11 12  1  0
 11 41  1  0
 11 42  1  0
 12 13  1  0
 12 43  1  0
 12 44  1  0
 13 14  1  0
 14 15  1  0
 14 45  1  0
 14 46  1  0
 15 47  1  0
 15 48  1  0
 16 17  1  0
 16 18  1  0
 16 49  1  1
 17 50  1  0
 18 19  1  0
 18 51  1  0
 18 52  1  0
 19 20  1  0
 19 53  1  6
 20 21  1  0
 20 54  1  6
 21 22  1  0
 21 55  1  0
 21 56  1  0
 22 23  1  0
 22 57  1  0
 22 58  1  0
 23 24  1  0
 23 25  1  0
 23 59  1  1
 24 60  1  0
 24 61  1  0
 24 62  1  0
 25 26  1  6
 25 27  1  0
 26 63  1  0
 27 28  1  0
 27 64  1  1
 28 65  1  0
M  END
>  <i_m_ct_stereo_status>  (309) 
1

>  <s_m_source_file>  (309) 
/var/tmp/pbs.5076255.sched01/tmpimq9cq4v/129n8p27m2m.sdf

>  <i_m_source_file_index>  (309) 
4

>  <i_lp_mmshare_version>  (309) 
48012

>  <i_f3d_flags>  (309) 
0

>  <s_epik_input>  (309) 
W09IXVtDQEBIXTFbQ0gyXVtDQEBIXShbQ0gzXSlbQ0BIXShbQ0hdMltDQF0xMzQpW0NIMl1bQ0BIXShbT0hdKVtDQEBdKFtDSDJdMykoW0NASF0oW09IXSlbQ0BAXTQoW09IXSlbQ0BIXShbQ0gzXSlbQ0gyXVtDSDJdMilbQ0gyXU41W0NIMl1bQ0gyXU9bQ0gyXVtDSDJdNQ==

>  <s_epik_cmdline>  (309) 
J2VwaWtfcHl0aG9uJywgJy1waHQnLCAnMi4wJywgJy1waCcsICc3LjAnLCAnLXRuJywgJzgnLCAnLW1hJywgJzIwMCcsICctaW1hZScsICc8aW5maWxlLm1hZT4nLCAnLW9tYWUnLCAnPG91dGZpbGUubWFlPic=

>  <r_epik_Ionization_Penalty>  (309) 
0.422948

>  <r_epik_Ionization_Penalty_Charging>  (309) 
0

>  <r_epik_Ionization_Penalty_Neutral>  (309) 
0.422948

>  <r_epik_State_Penalty>  (309) 
0.423775

>  <r_epik_Charging_Adjusted_Penalty>  (309) 
0.423775

>  <i_epik_Tot_Q>  (309) 
0

>  <i_epik_Tot_abs_Q>  (309) 
0

>  <s_lp_Force_Field>  (309) 
OPLS3e

>  <r_lp_Energy>  (309) 
159.154

>  <b_lp_Chiralities_Consistent>  (309) 
1

>  <s_lp_Variant>  (309) 
89:0-4

>  <s_i_glide_gridfile>  (309) 
pfpi4k_grid

>  <i_i_glide_lignum>  (309) 
4

>  <i_i_glide_rotatable_bonds>  (309) 
6

>  <r_i_docking_score>  (309) 
-3.01241

>  <r_i_glide_ligand_efficiency>  (309) 
-0.107586

>  <r_i_glide_ligand_efficiency_sa>  (309) 
-0.326695

>  <r_i_glide_ligand_efficiency_ln>  (309) 
-0.695353

>  <r_i_glide_gscore>  (309) 
-3.01241

>  <r_i_glide_lipo>  (309) 
-0.0920771

>  <r_i_glide_hbond>  (309) 
-0.0390963

>  <r_i_glide_metal>  (309) 
-0

>  <r_i_glide_rewards>  (309) 
-1.21228

>  <r_i_glide_evdw>  (309) 
-18.6412

>  <r_i_glide_ecoul>  (309) 
-6.57933

>  <r_i_glide_erotb>  (309) 
0.250001

>  <r_i_glide_esite>  (309) 
0

>  <r_i_glide_emodel>  (309) 
-34.4266

>  <r_i_glide_energy>  (309) 
-25.2206

>  <r_i_glide_einternal>  (309) 
1.64715

>  <r_i_glide_intrahb_reward>  (309) 
-0.5

>  <i_i_glide_confnum>  (309) 
2

>  <i_i_glide_posenum>  (309) 
32

>  <r_i_glide_eff_state_penalty>  (309) 
0

>  <ligand_id>  (309) 
89

>  <original_smiles>  (309) 
CC1CC(O)C23CC4(CN5CCOCC5)C(O)CC1C2CCC(C)C3(O)C4O

>  <smiles>  (309) 
[H]OC1([H])C([H])([H])C2([H])C([H])(C([H])([H])[H])C([H])([H])C([H])(O[H])C34C([H])([H])C1(C([H])([H])N1C([H])([H])C([H])([H])OC([H])([H])C1([H])[H])C([H])(O[H])C3(O[H])C([H])(C([H])([H])[H])C([H])([H])C([H])([H])C24[H]

$$$$
89:3:2
     RDKit          3D

 65 69  0  0  1  0  0  0  0  0999 V2000
   -1.1480   -9.4637    2.7356 C   0  0  0  0  0  0  0  0  0  0  0  0
    0.0107   -9.7813    3.7063 C   0  0  2  0  0  0  0  0  0  0  0  0
   -0.0492   -8.8609    4.9755 C   0  0  0  0  0  0  0  0  0  0  0  0
    1.2781   -8.6280    5.7652 C   0  0  1  0  0  0  0  0  0  0  0  0
    1.2557   -9.4493    6.9253 O   0  0  0  0  0  0  0  0  0  0  0  0
    2.5049   -8.6045    4.7473 C   0  0  2  0  0  0  0  0  0  0  0  0
    2.1589   -7.2401    4.0432 C   0  0  0  0  0  0  0  0  0  0  0  0
    3.3414   -6.9228    3.2050 C   0  0  2  0  0  0  0  0  0  0  0  0
    3.2986   -5.4593    2.6634 C   0  0  0  0  0  0  0  0  0  0  0  0
    4.4114   -5.0569    1.7712 N   0  0  0  0  0  0  0  0  0  0  0  0
    4.7846   -3.6544    1.9311 C   0  0  0  0  0  0  0  0  0  0  0  0
    5.9657   -3.2598    1.0147 C   0  0  0  0  0  0  0  0  0  0  0  0
    5.6539   -3.5299   -0.3477 O   0  0  0  0  0  0  0  0  0  0  0  0
    5.3221   -4.8884   -0.5546 C   0  0  0  0  0  0  0  0  0  0  0  0
    4.1511   -5.2810    0.3378 C   0  0  0  0  0  0  0  0  0  0  0  0
    3.1188   -7.9924    2.0302 C   0  0  1  0  0  0  0  0  0  0  0  0
    4.2985   -8.6396    1.5929 O   0  0  0  0  0  0  0  0  0  0  0  0
    1.8131   -8.9042    1.8882 C   0  0  0  0  0  0  0  0  0  0  0  0
    1.3907   -9.9366    3.0079 C   0  0  1  0  0  0  0  0  0  0  0  0
    2.4939   -9.9596    4.0210 C   0  0  2  0  0  0  0  0  0  0  0  0
    2.7648  -11.0719    5.0777 C   0  0  0  0  0  0  0  0  0  0  0  0
    3.8300  -10.6825    6.2100 C   0  0  0  0  0  0  0  0  0  0  0  0
    4.2428   -9.1483    6.4184 C   0  0  1  0  0  0  0  0  0  0  0  0
    5.6247   -9.0174    7.0831 C   0  0  0  0  0  0  0  0  0  0  0  0
    4.0424   -8.4699    5.0487 C   0  0  1  0  0  0  0  0  0  0  0  0
    5.0208   -9.2155    4.2897 O   0  0  0  0  0  0  0  0  0  0  0  0
    4.3616   -7.0690    4.4367 C   0  0  1  0  0  0  0  0  0  0  0  0
    5.6985   -6.8155    4.0623 O   0  0  0  0  0  0  0  0  0  0  0  0
   -1.1211   -8.4327    2.3712 H   0  0  0  0  0  0  0  0  0  0  0  0
   -2.1120   -9.5913    3.2288 H   0  0  0  0  0  0  0  0  0  0  0  0
   -1.1389  -10.1205    1.8645 H   0  0  0  0  0  0  0  0  0  0  0  0
   -0.1800  -10.7937    4.0790 H   0  0  0  0  0  0  0  0  0  0  0  0
   -0.4839   -7.8941    4.6985 H   0  0  0  0  0  0  0  0  0  0  0  0
   -0.7825   -9.2774    5.6600 H   0  0  0  0  0  0  0  0  0  0  0  0
    1.1928   -7.6567    6.2503 H   0  0  0  0  0  0  0  0  0  0  0  0
    1.3524  -10.3759    6.7006 H   0  0  0  0  0  0  0  0  0  0  0  0
    1.2177   -7.1870    3.5015 H   0  0  0  0  0  0  0  0  0  0  0  0
    2.0362   -6.4341    4.7744 H   0  0  0  0  0  0  0  0  0  0  0  0
    2.3479   -5.2630    2.1648 H   0  0  0  0  0  0  0  0  0  0  0  0
    3.2745   -4.8013    3.5302 H   0  0  0  0  0  0  0  0  0  0  0  0
    3.9328   -3.0122    1.7219 H   0  0  0  0  0  0  0  0  0  0  0  0
    5.0727   -3.4680    2.9619 H   0  0  0  0  0  0  0  0  0  0  0  0
    6.1924   -2.1971    1.1053 H   0  0  0  0  0  0  0  0  0  0  0  0
    6.8665   -3.8150    1.2886 H   0  0  0  0  0  0  0  0  0  0  0  0
    5.0395   -5.0683   -1.5866 H   0  0  0  0  0  0  0  0  0  0  0  0
    6.1627   -5.5313   -0.3222 H   0  0  0  0  0  0  0  0  0  0  0  0
    4.0406   -6.3512    0.0919 H   0  0  0  0  0  0  0  0  0  0  0  0
    3.2407   -4.7647    0.0249 H   0  0  0  0  0  0  0  0  0  0  0  0
    2.8346   -7.3631    1.1732 H   0  0  0  0  0  0  0  0  0  0  0  0
    4.5021   -9.3379    2.2120 H   0  0  0  0  0  0  0  0  0  0  0  0
    0.9725   -8.2681    1.6272 H   0  0  0  0  0  0  0  0  0  0  0  0
    1.9792   -9.4761    0.9801 H   0  0  0  0  0  0  0  0  0  0  0  0
    1.3727  -10.8993    2.5025 H   0  0  0  0  0  0  0  0  0  0  0  0
    3.2855  -10.1740    3.3095 H   0  0  0  0  0  0  0  0  0  0  0  0
    1.8243  -11.4317    5.5082 H   0  0  0  0  0  0  0  0  0  0  0  0
    3.1416  -11.9424    4.5540 H   0  0  0  0  0  0  0  0  0  0  0  0
    3.4613  -11.0627    7.1504 H   0  0  0  0  0  0  0  0  0  0  0  0
    4.7429  -11.2677    6.0322 H   0  0  0  0  0  0  0  0  0  0  0  0
    3.5629   -8.6645    7.1279 H   0  0  0  0  0  0  0  0  0  0  0  0
    6.4121   -9.5479    6.5367 H   0  0  0  0  0  0  0  0  0  0  0  0
    5.5961   -9.4464    8.0843 H   0  0  0  0  0  0  0  0  0  0  0  0
    5.9336   -7.9740    7.1884 H   0  0  0  0  0  0  0  0  0  0  0  0
    4.8725  -10.1342    4.4727 H   0  0  0  0  0  0  0  0  0  0  0  0
    4.1511   -6.3083    5.1937 H   0  0  0  0  0  0  0  0  0  0  0  0
    5.8927   -7.4236    3.3548 H   0  0  0  0  0  0  0  0  0  0  0  0
  1  2  1  0
  1 29  1  0
  1 30  1  0
  1 31  1  0
  2 19  1  0
  2  3  1  0
  2 32  1  1
  3  4  1  0
  3 33  1  0
  3 34  1  0
  4  5  1  0
  4  6  1  0
  4 35  1  1
  5 36  1  0
  6 20  1  0
  6 25  1  0
  6  7  1  6
  7  8  1  0
  7 37  1  0
  7 38  1  0
  8 27  1  0
  8  9  1  6
  8 16  1  0
  9 10  1  0
  9 39  1  0
  9 40  1  0
 10 15  1  0
 10 11  1  0
 11 12  1  0
 11 41  1  0
 11 42  1  0
 12 13  1  0
 12 43  1  0
 12 44  1  0
 13 14  1  0
 14 15  1  0
 14 45  1  0
 14 46  1  0
 15 47  1  0
 15 48  1  0
 16 17  1  0
 16 18  1  0
 16 49  1  6
 17 50  1  0
 18 19  1  0
 18 51  1  0
 18 52  1  0
 19 20  1  0
 19 53  1  6
 20 21  1  0
 20 54  1  6
 21 22  1  0
 21 55  1  0
 21 56  1  0
 22 23  1  0
 22 57  1  0
 22 58  1  0
 23 24  1  0
 23 25  1  0
 23 59  1  1
 24 60  1  0
 24 61  1  0
 24 62  1  0
 25 26  1  6
 25 27  1  0
 26 63  1  0
 27 28  1  0
 27 64  1  1
 28 65  1  0
M  END
>  <i_m_ct_stereo_status>  (310) 
1

>  <s_m_source_file>  (310) 
/var/tmp/pbs.5076255.sched01/tmpimq9cq4v/129n8p27m2m.sdf

>  <i_m_source_file_index>  (310) 
4

>  <i_lp_mmshare_version>  (310) 
48012

>  <i_f3d_flags>  (310) 
0

>  <s_epik_input>  (310) 
W09IXVtDQEBIXTFbQ0gyXVtDQEBIXShbQ0gzXSlbQ0BIXShbQ0hdMltDQF0xMzQpW0NIMl1bQ0BIXShbT0hdKVtDQEBdKFtDSDJdMykoW0NASF0oW09IXSlbQ0BAXTQoW09IXSlbQ0BIXShbQ0gzXSlbQ0gyXVtDSDJdMilbQ0gyXU41W0NIMl1bQ0gyXU9bQ0gyXVtDSDJdNQ==

>  <s_epik_cmdline>  (310) 
J2VwaWtfcHl0aG9uJywgJy1waHQnLCAnMi4wJywgJy1waCcsICc3LjAnLCAnLXRuJywgJzgnLCAnLW1hJywgJzIwMCcsICctaW1hZScsICc8aW5maWxlLm1hZT4nLCAnLW9tYWUnLCAnPG91dGZpbGUubWFlPic=

>  <r_epik_Ionization_Penalty>  (310) 
0.422948

>  <r_epik_Ionization_Penalty_Charging>  (310) 
0

>  <r_epik_Ionization_Penalty_Neutral>  (310) 
0.422948

>  <r_epik_State_Penalty>  (310) 
0.423775

>  <r_epik_Charging_Adjusted_Penalty>  (310) 
0.423775

>  <i_epik_Tot_Q>  (310) 
0

>  <i_epik_Tot_abs_Q>  (310) 
0

>  <s_lp_Force_Field>  (310) 
OPLS3e

>  <r_lp_Energy>  (310) 
159.154

>  <b_lp_Chiralities_Consistent>  (310) 
1

>  <s_lp_Variant>  (310) 
89:0-4

>  <s_i_glide_gridfile>  (310) 
pfpi4k_grid

>  <i_i_glide_lignum>  (310) 
4

>  <i_i_glide_rotatable_bonds>  (310) 
6

>  <r_i_docking_score>  (310) 
-2.90581

>  <r_i_glide_ligand_efficiency>  (310) 
-0.103779

>  <r_i_glide_ligand_efficiency_sa>  (310) 
-0.315134

>  <r_i_glide_ligand_efficiency_ln>  (310) 
-0.670747

>  <r_i_glide_gscore>  (310) 
-2.90581

>  <r_i_glide_lipo>  (310) 
-0.287624

>  <r_i_glide_hbond>  (310) 
-0.0817665

>  <r_i_glide_metal>  (310) 
-0

>  <r_i_glide_rewards>  (310) 
-1.21228

>  <r_i_glide_evdw>  (310) 
-19.7619

>  <r_i_glide_ecoul>  (310) 
-3.907

>  <r_i_glide_erotb>  (310) 
0.250001

>  <r_i_glide_esite>  (310) 
0

>  <r_i_glide_emodel>  (310) 
-32.8707

>  <r_i_glide_energy>  (310) 
-23.6689

>  <r_i_glide_einternal>  (310) 
1.18595

>  <r_i_glide_intrahb_reward>  (310) 
-0.5

>  <i_i_glide_confnum>  (310) 
3

>  <i_i_glide_posenum>  (310) 
6

>  <r_i_glide_eff_state_penalty>  (310) 
0

>  <ligand_id>  (310) 
89

>  <original_smiles>  (310) 
CC1CC(O)C23CC4(CN5CCOCC5)C(O)CC1C2CCC(C)C3(O)C4O

>  <smiles>  (310) 
[H]OC1([H])C([H])([H])C2([H])C([H])(C([H])([H])[H])C([H])([H])C([H])(O[H])C34C([H])([H])C1(C([H])([H])N1C([H])([H])C([H])([H])OC([H])([H])C1([H])[H])C([H])(O[H])C3(O[H])C([H])(C([H])([H])[H])C([H])([H])C([H])([H])C24[H]

$$$$
91:0:0
     RDKit          3D

 54 59  0  0  1  0  0  0  0  0999 V2000
    3.0764   -5.4139    1.4059 C   0  0  0  0  0  0  0  0  0  0  0  0
    4.5048   -4.8956    1.2611 C   0  0  0  0  0  0  0  0  0  0  0  0
    4.9626   -4.2261    0.1764 C   0  0  0  0  0  0  0  0  0  0  0  0
    6.4601   -4.2067    0.0467 C   0  0  1  0  0  0  0  0  0  0  0  0
    7.5314   -3.3671   -0.6454 C   0  0  0  0  0  0  0  0  0  0  0  0
    7.0644   -3.0351    0.7303 C   0  0  1  0  0  0  0  0  0  0  0  0
    6.1953   -1.8399    1.0941 C   0  0  1  0  0  0  0  0  0  0  0  0
    5.7051   -0.8906    0.1213 O   0  0  0  0  0  0  0  0  0  0  0  0
    5.3821   -1.1461   -1.2643 C   0  0  0  0  0  0  0  0  0  0  0  0
    4.5559   -2.3914   -1.7228 C   0  0  2  0  0  0  0  0  0  0  0  0
    5.2104   -3.1740   -2.9027 C   0  0  0  0  0  0  0  0  0  0  0  0
    4.0872   -3.6251   -3.7979 C   0  0  0  0  0  0  0  0  0  0  0  0
    2.9885   -2.6735   -3.4064 C   0  0  0  0  0  0  0  0  0  0  0  0
    1.8778   -2.6719   -3.9182 O   0  0  0  0  0  0  0  0  0  0  0  0
    3.4101   -1.8956   -2.4130 O   0  0  0  0  0  0  0  0  0  0  0  0
    4.0038   -3.2550   -0.5519 C   0  0  2  0  0  0  0  0  0  0  0  0
    3.1864   -2.2985    0.4194 C   0  0  0  0  0  0  0  0  0  0  0  0
    3.6640   -2.2316    1.8648 C   0  0  0  0  0  0  0  0  0  0  0  0
    2.9587   -2.6271    2.9499 C   0  0  0  0  0  0  0  0  0  0  0  0
    1.4705   -2.8117    3.1026 C   0  0  0  0  0  0  0  0  0  0  0  0
    3.8954   -3.0767    4.0436 C   0  0  1  0  0  0  0  0  0  0  0  0
    3.4411   -4.2231    4.7274 O   0  0  0  0  0  0  0  0  0  0  0  0
    5.2174   -3.2924    3.2413 C   0  0  1  0  0  0  0  0  0  0  0  0
    5.2882   -4.7597    2.5825 C   0  0  0  0  0  0  0  0  0  0  0  0
    5.1326   -2.0607    2.2456 C   0  0  1  0  0  0  0  0  0  0  0  0
    5.2281   -0.7099    3.0277 C   0  0  0  0  0  0  0  0  0  0  0  0
    2.6776   -5.2454    2.4045 H   0  0  0  0  0  0  0  0  0  0  0  0
    3.0739   -6.4946    1.2461 H   0  0  0  0  0  0  0  0  0  0  0  0
    2.3792   -4.9902    0.6847 H   0  0  0  0  0  0  0  0  0  0  0  0
    6.8490   -5.1956    0.2760 H   0  0  0  0  0  0  0  0  0  0  0  0
    8.5272   -3.8059   -0.6881 H   0  0  0  0  0  0  0  0  0  0  0  0
    7.3304   -2.7380   -1.4909 H   0  0  0  0  0  0  0  0  0  0  0  0
    7.7280   -3.3291    1.5350 H   0  0  0  0  0  0  0  0  0  0  0  0
    6.9641   -1.2138    1.5459 H   0  0  0  0  0  0  0  0  0  0  0  0
    4.8336   -0.2539   -1.5791 H   0  0  0  0  0  0  0  0  0  0  0  0
    6.2701   -1.0607   -1.8679 H   0  0  0  0  0  0  0  0  0  0  0  0
    5.8160   -2.4978   -3.5089 H   0  0  0  0  0  0  0  0  0  0  0  0
    5.8329   -4.0227   -2.6109 H   0  0  0  0  0  0  0  0  0  0  0  0
    4.3205   -3.5904   -4.8518 H   0  0  0  0  0  0  0  0  0  0  0  0
    3.8096   -4.6389   -3.5607 H   0  0  0  0  0  0  0  0  0  0  0  0
    3.2891   -3.9502   -0.9884 H   0  0  0  0  0  0  0  0  0  0  0  0
    3.1594   -1.2733    0.0569 H   0  0  0  0  0  0  0  0  0  0  0  0
    2.1512   -2.6222    0.3889 H   0  0  0  0  0  0  0  0  0  0  0  0
    1.0920   -2.1439    3.8764 H   0  0  0  0  0  0  0  0  0  0  0  0
    1.2015   -3.8344    3.3717 H   0  0  0  0  0  0  0  0  0  0  0  0
    0.9978   -2.5342    2.1714 H   0  0  0  0  0  0  0  0  0  0  0  0
    3.9829   -2.2833    4.7859 H   0  0  0  0  0  0  0  0  0  0  0  0
    4.1338   -4.4998    5.3141 H   0  0  0  0  0  0  0  0  0  0  0  0
    6.0386   -3.1767    3.9481 H   0  0  0  0  0  0  0  0  0  0  0  0
    4.9408   -5.5317    3.2709 H   0  0  0  0  0  0  0  0  0  0  0  0
    6.3341   -5.0254    2.4368 H   0  0  0  0  0  0  0  0  0  0  0  0
    6.1368   -0.6645    3.6363 H   0  0  0  0  0  0  0  0  0  0  0  0
    4.3797   -0.4996    3.6825 H   0  0  0  0  0  0  0  0  0  0  0  0
    5.2507    0.1352    2.3339 H   0  0  0  0  0  0  0  0  0  0  0  0
  1  2  1  0
  1 27  1  0
  1 28  1  0
  1 29  1  0
  2 24  1  0
  2  3  2  3
  3 16  1  0
  3  4  1  0
  4  6  1  0
  4  5  1  0
  4 30  1  1
  5  6  1  0
  5 31  1  0
  5 32  1  0
  6  7  1  0
  6 33  1  1
  7 25  1  0
  7  8  1  0
  7 34  1  1
  8  9  1  0
  9 10  1  0
  9 35  1  0
  9 36  1  0
 10 15  1  6
 10 11  1  0
 10 16  1  0
 11 12  1  0
 11 37  1  0
 11 38  1  0
 12 13  1  0
 12 39  1  0
 12 40  1  0
 13 14  2  0
 13 15  1  0
 16 17  1  0
 16 41  1  6
 17 18  1  0
 17 42  1  0
 17 43  1  0
 18 25  1  0
 18 19  2  0
 19 20  1  0
 19 21  1  0
 20 44  1  0
 20 45  1  0
 20 46  1  0
 21 22  1  0
 21 23  1  0
 21 47  1  1
 22 48  1  0
 23 24  1  0
 23 25  1  0
 23 49  1  1
 24 50  1  0
 24 51  1  0
 25 26  1  1
 26 52  1  0
 26 53  1  0
 26 54  1  0
M  END
>  <i_m_ct_stereo_status>  (311) 
1

>  <s_m_source_file>  (311) 
/var/tmp/pbs.5076255.sched01/tmpimq9cq4v/129n8p27m2m.sdf

>  <i_m_source_file_index>  (311) 
6

>  <i_lp_mmshare_version>  (311) 
48012

>  <i_f3d_flags>  (311) 
0

>  <s_epik_input>  (311) 
W0NIM10vQz0xW0NIMl1bQ0BASF0yW0NASF0oW09IXSlDKFtDSDNdKT1DKFtDSDJdMylbQ0BdMihbQ0gzXSlbQ0BIXShPW0NIMl00KVtDQEhdKFtDSDJdNSlbQ0BIXTVcQzFbQ0BASF0zW0NAXTQ2W0NIMl1bQ0gyXUMoPU8pTzY=

>  <s_epik_cmdline>  (311) 
J2VwaWtfcHl0aG9uJywgJy1waHQnLCAnMi4wJywgJy1waCcsICc3LjAnLCAnLXRuJywgJzgnLCAnLW1hJywgJzIwMCcsICctaW1hZScsICc8aW5maWxlLm1hZT4nLCAnLW9tYWUnLCAnPG91dGZpbGUubWFlPic=

>  <r_lp_tautomer_probability>  (311) 
1

>  <r_epik_Ionization_Penalty>  (311) 
7.22343e-08

>  <r_epik_Ionization_Penalty_Charging>  (311) 
0

>  <r_epik_Ionization_Penalty_Neutral>  (311) 
7.22343e-08

>  <r_epik_State_Penalty>  (311) 
-0

>  <r_epik_Charging_Adjusted_Penalty>  (311) 
0

>  <i_epik_Tot_Q>  (311) 
0

>  <i_epik_Tot_abs_Q>  (311) 
0

>  <s_epik_Chemistry_Notes>  (311) 
This compound has an ester and may undergo hydrolysis at high or low pH.

>  <s_lp_Force_Field>  (311) 
OPLS3e

>  <r_lp_Energy>  (311) 
125.122

>  <b_lp_Chiralities_Consistent>  (311) 
1

>  <s_lp_Variant>  (311) 
91:0-1

>  <s_i_glide_gridfile>  (311) 
pfpi4k_grid

>  <i_i_glide_lignum>  (311) 
6

>  <i_i_glide_rotatable_bonds>  (311) 
1

>  <r_i_docking_score>  (311) 
-3.35762

>  <r_i_glide_ligand_efficiency>  (311) 
-0.129139

>  <r_i_glide_ligand_efficiency_sa>  (311) 
-0.382574

>  <r_i_glide_ligand_efficiency_ln>  (311) 
-0.788526

>  <r_i_glide_gscore>  (311) 
-3.35762

>  <r_i_glide_lipo>  (311) 
-1.13111

>  <r_i_glide_hbond>  (311) 
0

>  <r_i_glide_metal>  (311) 
-0

>  <r_i_glide_rewards>  (311) 
-1.21247

>  <r_i_glide_evdw>  (311) 
-26.8901

>  <r_i_glide_ecoul>  (311) 
2.2031

>  <r_i_glide_erotb>  (311) 
0

>  <r_i_glide_esite>  (311) 
0

>  <r_i_glide_emodel>  (311) 
-27.3583

>  <r_i_glide_energy>  (311) 
-24.687

>  <r_i_glide_einternal>  (311) 
0.449157

>  <r_i_glide_intrahb_reward>  (311) 
-0

>  <i_i_glide_confnum>  (311) 
1

>  <i_i_glide_posenum>  (311) 
1

>  <r_i_glide_eff_state_penalty>  (311) 
0

>  <ligand_id>  (311) 
91

>  <original_smiles>  (311) 
CC1=C2C3CC3C3OCC4(CCC(=O)O4)C2CC2=C(C)C(O)C(C1)C23C

>  <smiles>  (311) 
[H]OC1([H])C(C([H])([H])[H])=C2C([H])([H])C3([H])C4=C(C([H])([H])[H])C([H])([H])C1([H])C2(C([H])([H])[H])C([H])(OC([H])([H])C31OC(=O)C([H])([H])C1([H])[H])C1([H])C([H])([H])C41[H]

$$$$
91:0:1
     RDKit          3D

 54 59  0  0  1  0  0  0  0  0999 V2000
    3.3550   -5.5864    1.3804 C   0  0  0  0  0  0  0  0  0  0  0  0
    4.7329   -4.9521    1.2219 C   0  0  0  0  0  0  0  0  0  0  0  0
    5.1123   -4.2185    0.1449 C   0  0  0  0  0  0  0  0  0  0  0  0
    6.5975   -4.0758   -0.0204 C   0  0  1  0  0  0  0  0  0  0  0  0
    7.5867   -3.1324   -0.7074 C   0  0  0  0  0  0  0  0  0  0  0  0
    7.1232   -2.8837    0.6872 C   0  0  1  0  0  0  0  0  0  0  0  0
    6.1818   -1.7702    1.1178 C   0  0  1  0  0  0  0  0  0  0  0  0
    5.5908   -0.8393    0.1843 O   0  0  0  0  0  0  0  0  0  0  0  0
    5.2861   -1.0769   -1.2040 C   0  0  0  0  0  0  0  0  0  0  0  0
    4.5326   -2.3635   -1.6752 C   0  0  2  0  0  0  0  0  0  0  0  0
    5.1919   -3.0660   -2.8948 C   0  0  0  0  0  0  0  0  0  0  0  0
    4.0668   -3.5701   -3.7618 C   0  0  0  0  0  0  0  0  0  0  0  0
    2.9333   -2.6578   -3.3478 C   0  0  0  0  0  0  0  0  0  0  0  0
    1.8389   -2.6572   -3.8924 O   0  0  0  0  0  0  0  0  0  0  0  0
    3.3308   -1.9183   -2.3149 O   0  0  0  0  0  0  0  0  0  0  0  0
    4.0646   -3.2983   -0.5226 C   0  0  2  0  0  0  0  0  0  0  0  0
    3.2006   -2.4338    0.4959 C   0  0  0  0  0  0  0  0  0  0  0  0
    3.7068   -2.3825    1.9328 C   0  0  0  0  0  0  0  0  0  0  0  0
    3.0593   -2.8735    3.0182 C   0  0  0  0  0  0  0  0  0  0  0  0
    1.5966   -3.1785    3.2023 C   0  0  0  0  0  0  0  0  0  0  0  0
    4.0574   -3.2804    4.0803 C   0  0  1  0  0  0  0  0  0  0  0  0
    3.7046   -4.4738    4.7532 O   0  0  0  0  0  0  0  0  0  0  0  0
    5.3731   -3.3648    3.2398 C   0  0  1  0  0  0  0  0  0  0  0  0
    5.5414   -4.8003    2.5302 C   0  0  0  0  0  0  0  0  0  0  0  0
    5.1671   -2.1071    2.2889 C   0  0  1  0  0  0  0  0  0  0  0  0
    5.1777   -0.7734    3.1130 C   0  0  0  0  0  0  0  0  0  0  0  0
    2.9629   -5.4831    2.3892 H   0  0  0  0  0  0  0  0  0  0  0  0
    3.4327   -6.6582    1.1820 H   0  0  0  0  0  0  0  0  0  0  0  0
    2.6112   -5.1957    0.6861 H   0  0  0  0  0  0  0  0  0  0  0  0
    7.0682   -5.0361    0.1723 H   0  0  0  0  0  0  0  0  0  0  0  0
    8.6111   -3.4884   -0.7841 H   0  0  0  0  0  0  0  0  0  0  0  0
    7.3242   -2.5060   -1.5312 H   0  0  0  0  0  0  0  0  0  0  0  0
    7.8086   -3.1622    1.4713 H   0  0  0  0  0  0  0  0  0  0  0  0
    6.9163   -1.1035    1.5753 H   0  0  0  0  0  0  0  0  0  0  0  0
    4.6524   -0.2291   -1.4680 H   0  0  0  0  0  0  0  0  0  0  0  0
    6.1797   -0.8889   -1.8035 H   0  0  0  0  0  0  0  0  0  0  0  0
    5.7222   -2.3216   -3.4926 H   0  0  0  0  0  0  0  0  0  0  0  0
    5.8982   -3.8654   -2.6581 H   0  0  0  0  0  0  0  0  0  0  0  0
    4.2757   -3.4964   -4.8205 H   0  0  0  0  0  0  0  0  0  0  0  0
    3.8514   -4.6124   -3.5458 H   0  0  0  0  0  0  0  0  0  0  0  0
    3.3933   -4.0275   -0.9758 H   0  0  0  0  0  0  0  0  0  0  0  0
    3.0916   -1.4034    0.1684 H   0  0  0  0  0  0  0  0  0  0  0  0
    2.1904   -2.8288    0.4746 H   0  0  0  0  0  0  0  0  0  0  0  0
    1.1924   -2.5673    4.0106 H   0  0  0  0  0  0  0  0  0  0  0  0
    1.4181   -4.2258    3.4496 H   0  0  0  0  0  0  0  0  0  0  0  0
    1.0513   -2.9189    2.3095 H   0  0  0  0  0  0  0  0  0  0  0  0
    4.1056   -2.5037    4.8456 H   0  0  0  0  0  0  0  0  0  0  0  0
    3.7402   -5.1897    4.1351 H   0  0  0  0  0  0  0  0  0  0  0  0
    6.1995   -3.2052    3.9329 H   0  0  0  0  0  0  0  0  0  0  0  0
    5.2805   -5.6185    3.1992 H   0  0  0  0  0  0  0  0  0  0  0  0
    6.5981   -4.9779    2.3475 H   0  0  0  0  0  0  0  0  0  0  0  0
    6.0951   -0.6746    3.7009 H   0  0  0  0  0  0  0  0  0  0  0  0
    4.3363   -0.6591    3.7980 H   0  0  0  0  0  0  0  0  0  0  0  0
    5.1165    0.0999    2.4591 H   0  0  0  0  0  0  0  0  0  0  0  0
  1  2  1  0
  1 27  1  0
  1 28  1  0
  1 29  1  0
  2 24  1  0
  2  3  2  3
  3 16  1  0
  3  4  1  0
  4  6  1  0
  4  5  1  0
  4 30  1  1
  5  6  1  0
  5 31  1  0
  5 32  1  0
  6  7  1  0
  6 33  1  1
  7 25  1  0
  7  8  1  0
  7 34  1  1
  8  9  1  0
  9 10  1  0
  9 35  1  0
  9 36  1  0
 10 15  1  6
 10 11  1  0
 10 16  1  0
 11 12  1  0
 11 37  1  0
 11 38  1  0
 12 13  1  0
 12 39  1  0
 12 40  1  0
 13 14  2  0
 13 15  1  0
 16 17  1  0
 16 41  1  6
 17 18  1  0
 17 42  1  0
 17 43  1  0
 18 25  1  0
 18 19  2  0
 19 20  1  0
 19 21  1  0
 20 44  1  0
 20 45  1  0
 20 46  1  0
 21 22  1  0
 21 23  1  0
 21 47  1  1
 22 48  1  0
 23 24  1  0
 23 25  1  0
 23 49  1  1
 24 50  1  0
 24 51  1  0
 25 26  1  1
 26 52  1  0
 26 53  1  0
 26 54  1  0
M  END
>  <i_m_ct_stereo_status>  (312) 
1

>  <s_m_source_file>  (312) 
/var/tmp/pbs.5076255.sched01/tmpimq9cq4v/129n8p27m2m.sdf

>  <i_m_source_file_index>  (312) 
6

>  <i_lp_mmshare_version>  (312) 
48012

>  <i_f3d_flags>  (312) 
0

>  <s_epik_input>  (312) 
W0NIM10vQz0xW0NIMl1bQ0BASF0yW0NASF0oW09IXSlDKFtDSDNdKT1DKFtDSDJdMylbQ0BdMihbQ0gzXSlbQ0BIXShPW0NIMl00KVtDQEhdKFtDSDJdNSlbQ0BIXTVcQzFbQ0BASF0zW0NAXTQ2W0NIMl1bQ0gyXUMoPU8pTzY=

>  <s_epik_cmdline>  (312) 
J2VwaWtfcHl0aG9uJywgJy1waHQnLCAnMi4wJywgJy1waCcsICc3LjAnLCAnLXRuJywgJzgnLCAnLW1hJywgJzIwMCcsICctaW1hZScsICc8aW5maWxlLm1hZT4nLCAnLW9tYWUnLCAnPG91dGZpbGUubWFlPic=

>  <r_lp_tautomer_probability>  (312) 
1

>  <r_epik_Ionization_Penalty>  (312) 
7.22343e-08

>  <r_epik_Ionization_Penalty_Charging>  (312) 
0

>  <r_epik_Ionization_Penalty_Neutral>  (312) 
7.22343e-08

>  <r_epik_State_Penalty>  (312) 
-0

>  <r_epik_Charging_Adjusted_Penalty>  (312) 
0

>  <i_epik_Tot_Q>  (312) 
0

>  <i_epik_Tot_abs_Q>  (312) 
0

>  <s_epik_Chemistry_Notes>  (312) 
This compound has an ester and may undergo hydrolysis at high or low pH.

>  <s_lp_Force_Field>  (312) 
OPLS3e

>  <r_lp_Energy>  (312) 
125.122

>  <b_lp_Chiralities_Consistent>  (312) 
1

>  <s_lp_Variant>  (312) 
91:0-1

>  <s_i_glide_gridfile>  (312) 
pfpi4k_grid

>  <i_i_glide_lignum>  (312) 
6

>  <i_i_glide_rotatable_bonds>  (312) 
1

>  <r_i_docking_score>  (312) 
-3.26347

>  <r_i_glide_ligand_efficiency>  (312) 
-0.125518

>  <r_i_glide_ligand_efficiency_sa>  (312) 
-0.371847

>  <r_i_glide_ligand_efficiency_ln>  (312) 
-0.766415

>  <r_i_glide_gscore>  (312) 
-3.26347

>  <r_i_glide_lipo>  (312) 
-1.10346

>  <r_i_glide_hbond>  (312) 
0

>  <r_i_glide_metal>  (312) 
-0

>  <r_i_glide_rewards>  (312) 
-1.18592

>  <r_i_glide_evdw>  (312) 
-25.2818

>  <r_i_glide_ecoul>  (312) 
1.93338

>  <r_i_glide_erotb>  (312) 
0

>  <r_i_glide_esite>  (312) 
0

>  <r_i_glide_emodel>  (312) 
-26.3217

>  <r_i_glide_energy>  (312) 
-23.3484

>  <r_i_glide_einternal>  (312) 
0.0153824

>  <r_i_glide_intrahb_reward>  (312) 
-0

>  <i_i_glide_confnum>  (312) 
1

>  <i_i_glide_posenum>  (312) 
32

>  <r_i_glide_eff_state_penalty>  (312) 
0

>  <ligand_id>  (312) 
91

>  <original_smiles>  (312) 
CC1=C2C3CC3C3OCC4(CCC(=O)O4)C2CC2=C(C)C(O)C(C1)C23C

>  <smiles>  (312) 
[H]OC1([H])C(C([H])([H])[H])=C2C([H])([H])C3([H])C4=C(C([H])([H])[H])C([H])([H])C1([H])C2(C([H])([H])[H])C([H])(OC([H])([H])C31OC(=O)C([H])([H])C1([H])[H])C1([H])C([H])([H])C41[H]

$$$$
91:1:0
     RDKit          3D

 54 59  0  0  1  0  0  0  0  0999 V2000
    3.4975   -0.0670    2.5209 C   0  0  0  0  0  0  0  0  0  0  0  0
    3.3918   -1.3227    1.6400 C   0  0  0  0  0  0  0  0  0  0  0  0
    3.2810   -2.6081    2.1167 C   0  0  0  0  0  0  0  0  0  0  0  0
    3.9815   -2.7331    3.4216 C   0  0  2  0  0  0  0  0  0  0  0  0
    5.1465   -3.5102    4.0574 C   0  0  0  0  0  0  0  0  0  0  0  0
    5.4130   -2.6920    2.8657 C   0  0  1  0  0  0  0  0  0  0  0  0
    5.8536   -3.4296    1.5766 C   0  0  1  0  0  0  0  0  0  0  0  0
    5.8959   -4.8495    1.7799 O   0  0  0  0  0  0  0  0  0  0  0  0
    4.8053   -5.7219    1.4633 C   0  0  0  0  0  0  0  0  0  0  0  0
    3.3599   -5.3274    1.9220 C   0  0  2  0  0  0  0  0  0  0  0  0
    2.9983   -5.7016    3.4012 C   0  0  0  0  0  0  0  0  0  0  0  0
    1.5481   -6.1155    3.3999 C   0  0  0  0  0  0  0  0  0  0  0  0
    1.3700   -6.5451    1.9668 C   0  0  0  0  0  0  0  0  0  0  0  0
    0.3166   -7.0078    1.5073 O   0  0  0  0  0  0  0  0  0  0  0  0
    2.4749   -6.2606    1.2831 O   0  0  0  0  0  0  0  0  0  0  0  0
    2.9165   -3.9301    1.3531 C   0  0  2  0  0  0  0  0  0  0  0  0
    3.0725   -3.9768   -0.2020 C   0  0  0  0  0  0  0  0  0  0  0  0
    4.3706   -3.4612   -0.7791 C   0  0  0  0  0  0  0  0  0  0  0  0
    4.3319   -2.7773   -1.9561 C   0  0  0  0  0  0  0  0  0  0  0  0
    3.3553   -2.9266   -3.1070 C   0  0  0  0  0  0  0  0  0  0  0  0
    5.1565   -1.5151   -1.8087 C   0  0  1  0  0  0  0  0  0  0  0  0
    4.5752   -0.3885   -2.4355 O   0  0  0  0  0  0  0  0  0  0  0  0
    5.2171   -1.4332   -0.2471 C   0  0  1  0  0  0  0  0  0  0  0  0
    3.7777   -0.9518    0.2195 C   0  0  0  0  0  0  0  0  0  0  0  0
    5.5381   -2.9349    0.0736 C   0  0  1  0  0  0  0  0  0  0  0  0
    6.8569   -3.4232   -0.6355 C   0  0  0  0  0  0  0  0  0  0  0  0
    2.8931    0.7323    2.0918 H   0  0  0  0  0  0  0  0  0  0  0  0
    4.5227    0.2895    2.5840 H   0  0  0  0  0  0  0  0  0  0  0  0
    3.0993   -0.1779    3.5246 H   0  0  0  0  0  0  0  0  0  0  0  0
    3.6082   -2.0407    4.1664 H   0  0  0  0  0  0  0  0  0  0  0  0
    5.5154   -3.1164    5.0001 H   0  0  0  0  0  0  0  0  0  0  0  0
    5.2310   -4.5857    3.9900 H   0  0  0  0  0  0  0  0  0  0  0  0
    5.9267   -1.7386    3.0154 H   0  0  0  0  0  0  0  0  0  0  0  0
    6.9182   -3.2170    1.6804 H   0  0  0  0  0  0  0  0  0  0  0  0
    4.8386   -5.8988    0.3942 H   0  0  0  0  0  0  0  0  0  0  0  0
    5.0586   -6.6852    1.9053 H   0  0  0  0  0  0  0  0  0  0  0  0
    3.5928   -6.5770    3.6988 H   0  0  0  0  0  0  0  0  0  0  0  0
    3.1313   -4.9465    4.1684 H   0  0  0  0  0  0  0  0  0  0  0  0
    1.3349   -6.9131    4.1091 H   0  0  0  0  0  0  0  0  0  0  0  0
    0.9098   -5.2638    3.6212 H   0  0  0  0  0  0  0  0  0  0  0  0
    1.8418   -3.8933    1.5120 H   0  0  0  0  0  0  0  0  0  0  0  0
    2.9297   -4.9748   -0.6165 H   0  0  0  0  0  0  0  0  0  0  0  0
    2.2527   -3.3967   -0.6302 H   0  0  0  0  0  0  0  0  0  0  0  0
    3.9180   -3.1483   -4.0181 H   0  0  0  0  0  0  0  0  0  0  0  0
    2.7808   -2.0128   -3.2851 H   0  0  0  0  0  0  0  0  0  0  0  0
    2.6534   -3.7405   -2.9522 H   0  0  0  0  0  0  0  0  0  0  0  0
    6.1388   -1.6232   -2.2673 H   0  0  0  0  0  0  0  0  0  0  0  0
    3.6982   -0.2695   -2.0991 H   0  0  0  0  0  0  0  0  0  0  0  0
    5.9844   -0.7606    0.1258 H   0  0  0  0  0  0  0  0  0  0  0  0
    2.9687   -1.3023   -0.4125 H   0  0  0  0  0  0  0  0  0  0  0  0
    3.7398    0.1286    0.1077 H   0  0  0  0  0  0  0  0  0  0  0  0
    7.6867   -2.7436   -0.4394 H   0  0  0  0  0  0  0  0  0  0  0  0
    6.7808   -3.5517   -1.7163 H   0  0  0  0  0  0  0  0  0  0  0  0
    7.1474   -4.4153   -0.2886 H   0  0  0  0  0  0  0  0  0  0  0  0
  1  2  1  0
  1 27  1  0
  1 28  1  0
  1 29  1  0
  2 24  1  0
  2  3  2  3
  3 16  1  0
  3  4  1  0
  4  6  1  0
  4  5  1  0
  4 30  1  1
  5  6  1  0
  5 31  1  0
  5 32  1  0
  6  7  1  0
  6 33  1  1
  7 25  1  0
  7  8  1  0
  7 34  1  6
  8  9  1  0
  9 10  1  0
  9 35  1  0
  9 36  1  0
 10 15  1  6
 10 11  1  0
 10 16  1  0
 11 12  1  0
 11 37  1  0
 11 38  1  0
 12 13  1  0
 12 39  1  0
 12 40  1  0
 13 14  2  0
 13 15  1  0
 16 17  1  0
 16 41  1  6
 17 18  1  0
 17 42  1  0
 17 43  1  0
 18 25  1  0
 18 19  2  0
 19 20  1  0
 19 21  1  0
 20 44  1  0
 20 45  1  0
 20 46  1  0
 21 22  1  0
 21 23  1  0
 21 47  1  6
 22 48  1  0
 23 24  1  0
 23 25  1  0
 23 49  1  6
 24 50  1  0
 24 51  1  0
 25 26  1  6
 26 52  1  0
 26 53  1  0
 26 54  1  0
M  END
>  <i_m_ct_stereo_status>  (313) 
1

>  <s_m_source_file>  (313) 
/var/tmp/pbs.5076255.sched01/tmpimq9cq4v/129n8p27m2m.sdf

>  <i_m_source_file_index>  (313) 
7

>  <i_lp_mmshare_version>  (313) 
48012

>  <i_f3d_flags>  (313) 
0

>  <s_epik_input>  (313) 
W0NIM10vQz0xW0NIMl1bQ0BASF0yW0NASF0oW09IXSlDKFtDSDNdKT1DKFtDSDJdMylbQ0BdMihbQ0gzXSlbQ0BIXShPW0NIMl00KVtDQEhdKFtDSDJdNSlbQ0BIXTVcQzFbQ0BASF0zW0NAXTQ2W0NIMl1bQ0gyXUMoPU8pTzY=

>  <s_epik_cmdline>  (313) 
J2VwaWtfcHl0aG9uJywgJy1waHQnLCAnMi4wJywgJy1waCcsICc3LjAnLCAnLXRuJywgJzgnLCAnLW1hJywgJzIwMCcsICctaW1hZScsICc8aW5maWxlLm1hZT4nLCAnLW9tYWUnLCAnPG91dGZpbGUubWFlPic=

>  <r_lp_tautomer_probability>  (313) 
1

>  <r_epik_Ionization_Penalty>  (313) 
7.22343e-08

>  <r_epik_Ionization_Penalty_Charging>  (313) 
0

>  <r_epik_Ionization_Penalty_Neutral>  (313) 
7.22343e-08

>  <r_epik_State_Penalty>  (313) 
-0

>  <r_epik_Charging_Adjusted_Penalty>  (313) 
0

>  <i_epik_Tot_Q>  (313) 
0

>  <i_epik_Tot_abs_Q>  (313) 
0

>  <s_epik_Chemistry_Notes>  (313) 
This compound has an ester and may undergo hydrolysis at high or low pH.

>  <s_lp_Force_Field>  (313) 
OPLS3e

>  <r_lp_Energy>  (313) 
151.758

>  <b_lp_Chiralities_Consistent>  (313) 
1

>  <s_lp_Variant>  (313) 
91:0-2

>  <s_i_glide_gridfile>  (313) 
pfpi4k_grid

>  <i_i_glide_lignum>  (313) 
7

>  <i_i_glide_rotatable_bonds>  (313) 
1

>  <r_i_docking_score>  (313) 
-3.15381

>  <r_i_glide_ligand_efficiency>  (313) 
-0.1213

>  <r_i_glide_ligand_efficiency_sa>  (313) 
-0.359352

>  <r_i_glide_ligand_efficiency_ln>  (313) 
-0.740661

>  <r_i_glide_gscore>  (313) 
-3.15381

>  <r_i_glide_lipo>  (313) 
-0.472231

>  <r_i_glide_hbond>  (313) 
0

>  <r_i_glide_metal>  (313) 
-0

>  <r_i_glide_rewards>  (313) 
-0.978714

>  <r_i_glide_evdw>  (313) 
-28.6589

>  <r_i_glide_ecoul>  (313) 
-1.48669

>  <r_i_glide_erotb>  (313) 
0

>  <r_i_glide_esite>  (313) 
-0.0469115

>  <r_i_glide_emodel>  (313) 
-34.6663

>  <r_i_glide_energy>  (313) 
-30.1456

>  <r_i_glide_einternal>  (313) 
0.00959893

>  <r_i_glide_intrahb_reward>  (313) 
-0

>  <i_i_glide_confnum>  (313) 
3

>  <i_i_glide_posenum>  (313) 
4

>  <r_i_glide_eff_state_penalty>  (313) 
0

>  <ligand_id>  (313) 
91

>  <original_smiles>  (313) 
CC1=C2C3CC3C3OCC4(CCC(=O)O4)C2CC2=C(C)C(O)C(C1)C23C

>  <smiles>  (313) 
[H]OC1([H])C(C([H])([H])[H])=C2C([H])([H])C3([H])C4=C(C([H])([H])[H])C([H])([H])C1([H])C2(C([H])([H])[H])C([H])(OC([H])([H])C31OC(=O)C([H])([H])C1([H])[H])C1([H])C([H])([H])C41[H]

$$$$
91:1:1
     RDKit          3D

 54 59  0  0  1  0  0  0  0  0999 V2000
    3.8772   -0.4238    2.3285 C   0  0  0  0  0  0  0  0  0  0  0  0
    3.5315   -1.5039    1.2847 C   0  0  0  0  0  0  0  0  0  0  0  0
    3.4594   -2.8482    1.5571 C   0  0  0  0  0  0  0  0  0  0  0  0
    4.3972   -3.2168    2.6272 C   0  0  2  0  0  0  0  0  0  0  0  0
    5.6210   -4.1108    2.8533 C   0  0  0  0  0  0  0  0  0  0  0  0
    5.6940   -3.0846    1.7973 C   0  0  1  0  0  0  0  0  0  0  0  0
    5.8260   -3.5784    0.3328 C   0  0  1  0  0  0  0  0  0  0  0  0
    5.8309   -5.0176    0.2748 O   0  0  0  0  0  0  0  0  0  0  0  0
    4.6420   -5.7913    0.0711 C   0  0  0  0  0  0  0  0  0  0  0  0
    3.3435   -5.4805    0.8938 C   0  0  2  0  0  0  0  0  0  0  0  0
    3.2624   -6.1010    2.3332 C   0  0  0  0  0  0  0  0  0  0  0  0
    1.8283   -6.4887    2.5823 C   0  0  0  0  0  0  0  0  0  0  0  0
    1.3334   -6.6523    1.1764 C   0  0  0  0  0  0  0  0  0  0  0  0
    0.1884   -6.9882    0.8944 O   0  0  0  0  0  0  0  0  0  0  0  0
    2.2954   -6.2264    0.3310 O   0  0  0  0  0  0  0  0  0  0  0  0
    2.8702   -3.9963    0.6775 C   0  0  2  0  0  0  0  0  0  0  0  0
    2.6933   -3.7427   -0.8542 C   0  0  0  0  0  0  0  0  0  0  0  0
    3.9036   -3.2235   -1.6001 C   0  0  0  0  0  0  0  0  0  0  0  0
    3.6919   -2.4015   -2.6536 C   0  0  0  0  0  0  0  0  0  0  0  0
    2.5563   -2.3875   -3.6344 C   0  0  0  0  0  0  0  0  0  0  0  0
    4.5419   -1.1586   -2.4594 C   0  0  1  0  0  0  0  0  0  0  0  0
    3.9411    0.0304   -2.8835 O   0  0  0  0  0  0  0  0  0  0  0  0
    4.9125   -1.2961   -0.9290 C   0  0  1  0  0  0  0  0  0  0  0  0
    3.6553   -0.8800   -0.0715 C   0  0  0  0  0  0  0  0  0  0  0  0
    5.2170   -2.8214   -0.9421 C   0  0  1  0  0  0  0  0  0  0  0  0
    6.3183   -3.1706   -2.0078 C   0  0  0  0  0  0  0  0  0  0  0  0
    3.2309    0.4443    2.1616 H   0  0  0  0  0  0  0  0  0  0  0  0
    4.9087   -0.0808    2.2179 H   0  0  0  0  0  0  0  0  0  0  0  0
    3.6801   -0.6814    3.3740 H   0  0  0  0  0  0  0  0  0  0  0  0
    4.2350   -2.6357    3.5292 H   0  0  0  0  0  0  0  0  0  0  0  0
    6.1410   -3.8998    3.7818 H   0  0  0  0  0  0  0  0  0  0  0  0
    5.6465   -5.1547    2.5551 H   0  0  0  0  0  0  0  0  0  0  0  0
    6.2729   -2.1795    1.9944 H   0  0  0  0  0  0  0  0  0  0  0  0
    6.8980   -3.4015    0.2274 H   0  0  0  0  0  0  0  0  0  0  0  0
    4.4728   -5.7670   -0.9993 H   0  0  0  0  0  0  0  0  0  0  0  0
    4.9196   -6.8165    0.2612 H   0  0  0  0  0  0  0  0  0  0  0  0
    3.8575   -7.0118    2.3133 H   0  0  0  0  0  0  0  0  0  0  0  0
    3.5653   -5.5013    3.1939 H   0  0  0  0  0  0  0  0  0  0  0  0
    1.7321   -7.4061    3.1632 H   0  0  0  0  0  0  0  0  0  0  0  0
    1.2959   -5.6669    3.0557 H   0  0  0  0  0  0  0  0  0  0  0  0
    1.8533   -3.9338    1.0621 H   0  0  0  0  0  0  0  0  0  0  0  0
    2.3110   -4.6154   -1.3500 H   0  0  0  0  0  0  0  0  0  0  0  0
    1.8691   -3.0326   -0.9997 H   0  0  0  0  0  0  0  0  0  0  0  0
    2.9206   -2.4922   -4.6628 H   0  0  0  0  0  0  0  0  0  0  0  0
    2.1658   -1.3989   -3.5790 H   0  0  0  0  0  0  0  0  0  0  0  0
    1.7795   -3.1262   -3.4235 H   0  0  0  0  0  0  0  0  0  0  0  0
    5.4138   -1.1710   -3.1209 H   0  0  0  0  0  0  0  0  0  0  0  0
    3.1472    0.1881   -2.3814 H   0  0  0  0  0  0  0  0  0  0  0  0
    5.7840   -0.7020   -0.6354 H   0  0  0  0  0  0  0  0  0  0  0  0
    2.7144   -1.1148   -0.5784 H   0  0  0  0  0  0  0  0  0  0  0  0
    3.6785    0.1979    0.0691 H   0  0  0  0  0  0  0  0  0  0  0  0
    7.2374   -2.5927   -1.8745 H   0  0  0  0  0  0  0  0  0  0  0  0
    6.0249   -3.1016   -3.0578 H   0  0  0  0  0  0  0  0  0  0  0  0
    6.5427   -4.2264   -1.9291 H   0  0  0  0  0  0  0  0  0  0  0  0
  1  2  1  0
  1 27  1  0
  1 28  1  0
  1 29  1  0
  2 24  1  0
  2  3  2  3
  3 16  1  0
  3  4  1  0
  4  6  1  0
  4  5  1  0
  4 30  1  1
  5  6  1  0
  5 31  1  0
  5 32  1  0
  6  7  1  0
  6 33  1  1
  7 25  1  0
  7  8  1  0
  7 34  1  6
  8  9  1  0
  9 10  1  0
  9 35  1  0
  9 36  1  0
 10 15  1  6
 10 11  1  0
 10 16  1  0
 11 12  1  0
 11 37  1  0
 11 38  1  0
 12 13  1  0
 12 39  1  0
 12 40  1  0
 13 14  2  0
 13 15  1  0
 16 17  1  0
 16 41  1  1
 17 18  1  0
 17 42  1  0
 17 43  1  0
 18 25  1  0
 18 19  2  0
 19 20  1  0
 19 21  1  0
 20 44  1  0
 20 45  1  0
 20 46  1  0
 21 22  1  0
 21 23  1  0
 21 47  1  6
 22 48  1  0
 23 24  1  0
 23 25  1  0
 23 49  1  1
 24 50  1  0
 24 51  1  0
 25 26  1  6
 26 52  1  0
 26 53  1  0
 26 54  1  0
M  END
>  <i_m_ct_stereo_status>  (314) 
1

>  <s_m_source_file>  (314) 
/var/tmp/pbs.5076255.sched01/tmpimq9cq4v/129n8p27m2m.sdf

>  <i_m_source_file_index>  (314) 
7

>  <i_lp_mmshare_version>  (314) 
48012

>  <i_f3d_flags>  (314) 
0

>  <s_epik_input>  (314) 
W0NIM10vQz0xW0NIMl1bQ0BASF0yW0NASF0oW09IXSlDKFtDSDNdKT1DKFtDSDJdMylbQ0BdMihbQ0gzXSlbQ0BIXShPW0NIMl00KVtDQEhdKFtDSDJdNSlbQ0BIXTVcQzFbQ0BASF0zW0NAXTQ2W0NIMl1bQ0gyXUMoPU8pTzY=

>  <s_epik_cmdline>  (314) 
J2VwaWtfcHl0aG9uJywgJy1waHQnLCAnMi4wJywgJy1waCcsICc3LjAnLCAnLXRuJywgJzgnLCAnLW1hJywgJzIwMCcsICctaW1hZScsICc8aW5maWxlLm1hZT4nLCAnLW9tYWUnLCAnPG91dGZpbGUubWFlPic=

>  <r_lp_tautomer_probability>  (314) 
1

>  <r_epik_Ionization_Penalty>  (314) 
7.22343e-08

>  <r_epik_Ionization_Penalty_Charging>  (314) 
0

>  <r_epik_Ionization_Penalty_Neutral>  (314) 
7.22343e-08

>  <r_epik_State_Penalty>  (314) 
-0

>  <r_epik_Charging_Adjusted_Penalty>  (314) 
0

>  <i_epik_Tot_Q>  (314) 
0

>  <i_epik_Tot_abs_Q>  (314) 
0

>  <s_epik_Chemistry_Notes>  (314) 
This compound has an ester and may undergo hydrolysis at high or low pH.

>  <s_lp_Force_Field>  (314) 
OPLS3e

>  <r_lp_Energy>  (314) 
151.758

>  <b_lp_Chiralities_Consistent>  (314) 
1

>  <s_lp_Variant>  (314) 
91:0-2

>  <s_i_glide_gridfile>  (314) 
pfpi4k_grid

>  <i_i_glide_lignum>  (314) 
7

>  <i_i_glide_rotatable_bonds>  (314) 
1

>  <r_i_docking_score>  (314) 
-2.80648

>  <r_i_glide_ligand_efficiency>  (314) 
-0.107942

>  <r_i_glide_ligand_efficiency_sa>  (314) 
-0.319777

>  <r_i_glide_ligand_efficiency_ln>  (314) 
-0.659093

>  <r_i_glide_gscore>  (314) 
-2.80648

>  <r_i_glide_lipo>  (314) 
-0.659445

>  <r_i_glide_hbond>  (314) 
-0.032

>  <r_i_glide_metal>  (314) 
-0

>  <r_i_glide_rewards>  (314) 
-0.978714

>  <r_i_glide_evdw>  (314) 
-16.0867

>  <r_i_glide_ecoul>  (314) 
-1.79661

>  <r_i_glide_erotb>  (314) 
0

>  <r_i_glide_esite>  (314) 
-0.0624986

>  <r_i_glide_emodel>  (314) 
-20.151

>  <r_i_glide_energy>  (314) 
-17.8833

>  <r_i_glide_einternal>  (314) 
0.0478688

>  <r_i_glide_intrahb_reward>  (314) 
-0

>  <i_i_glide_confnum>  (314) 
1

>  <i_i_glide_posenum>  (314) 
5

>  <r_i_glide_eff_state_penalty>  (314) 
0

>  <ligand_id>  (314) 
91

>  <original_smiles>  (314) 
CC1=C2C3CC3C3OCC4(CCC(=O)O4)C2CC2=C(C)C(O)C(C1)C23C

>  <smiles>  (314) 
[H]OC1([H])C(C([H])([H])[H])=C2C([H])([H])C3([H])C4=C(C([H])([H])[H])C([H])([H])C1([H])C2(C([H])([H])[H])C([H])(OC([H])([H])C31OC(=O)C([H])([H])C1([H])[H])C1([H])C([H])([H])C41[H]

$$$$
95:0:0
     RDKit          3D

 39 40  0  0  1  0  0  0  0  0999 V2000
   -0.4690    1.9976    2.7884 C   0  0  0  0  0  0  0  0  0  0  0  0
   -1.5733    2.4652    3.7673 C   0  0  2  0  0  0  0  0  0  0  0  0
   -2.5074    3.4243    3.0241 C   0  0  0  0  0  0  0  0  0  0  0  0
   -2.1338    4.5688    2.7245 O   0  0  0  0  0  0  0  0  0  0  0  0
   -3.7318    2.9640    2.7050 N   0  0  0  0  0  0  0  0  0  0  0  0
   -4.6456    3.6273    1.7943 C   0  0  0  0  0  0  0  0  0  0  0  0
   -4.9446    5.1265    2.0755 C   0  0  2  0  0  0  0  0  0  0  0  0
   -6.3847    5.4126    2.4746 C   0  0  0  0  0  0  0  0  0  0  0  0
   -6.6403    6.7969    1.8954 C   0  0  0  0  0  0  0  0  0  0  0  0
   -5.3433    7.1800    1.1809 C   0  0  0  0  0  0  0  0  0  0  0  0
   -4.7900    5.9052    0.8931 O   0  0  0  0  0  0  0  0  0  0  0  0
   -1.1114    2.9635    5.1016 N   0  0  0  0  0  0  0  0  0  0  0  0
   -2.2047    3.3364    6.0153 C   0  0  0  0  0  0  0  0  0  0  0  0
   -1.7178    3.8616    7.3780 C   0  0  0  0  0  0  0  0  0  0  0  0
   -0.7974    4.9300    7.1791 O   0  0  0  0  0  0  0  0  0  0  0  0
    0.3354    4.5415    6.4167 C   0  0  0  0  0  0  0  0  0  0  0  0
   -0.1175    4.0535    5.0337 C   0  0  0  0  0  0  0  0  0  0  0  0
   -0.9077    1.6277    1.8602 H   0  0  0  0  0  0  0  0  0  0  0  0
    0.1169    1.1909    3.1963 H   0  0  0  0  0  0  0  0  0  0  0  0
    0.2060    2.8159    2.5382 H   0  0  0  0  0  0  0  0  0  0  0  0
   -2.1767    1.5785    3.9864 H   0  0  0  0  0  0  0  0  0  0  0  0
   -3.9324    1.9840    2.8951 H   0  0  0  0  0  0  0  0  0  0  0  0
   -4.1878    3.5109    0.8305 H   0  0  0  0  0  0  0  0  0  0  0  0
   -5.5300    3.0021    1.7211 H   0  0  0  0  0  0  0  0  0  0  0  0
   -4.2819    5.6136    2.7890 H   0  0  0  0  0  0  0  0  0  0  0  0
   -7.0213    4.6797    2.0234 H   0  0  0  0  0  0  0  0  0  0  0  0
   -6.6336    5.3382    3.5251 H   0  0  0  0  0  0  0  0  0  0  0  0
   -7.4512    6.7324    1.1736 H   0  0  0  0  0  0  0  0  0  0  0  0
   -6.8866    7.5176    2.6716 H   0  0  0  0  0  0  0  0  0  0  0  0
   -5.4974    7.7715    0.2770 H   0  0  0  0  0  0  0  0  0  0  0  0
   -4.6662    7.7349    1.8411 H   0  0  0  0  0  0  0  0  0  0  0  0
   -2.8086    4.1150    5.5704 H   0  0  0  0  0  0  0  0  0  0  0  0
   -2.8810    2.5109    6.1624 H   0  0  0  0  0  0  0  0  0  0  0  0
   -2.5567    4.2352    7.9642 H   0  0  0  0  0  0  0  0  0  0  0  0
   -1.2311    3.0715    7.9542 H   0  0  0  0  0  0  0  0  0  0  0  0
    0.9781    5.4017    6.2724 H   0  0  0  0  0  0  0  0  0  0  0  0
    0.9061    3.7801    6.9450 H   0  0  0  0  0  0  0  0  0  0  0  0
    0.7808    3.7069    4.5076 H   0  0  0  0  0  0  0  0  0  0  0  0
   -0.5221    4.9279    4.5114 H   0  0  0  0  0  0  0  0  0  0  0  0
  1  2  1  0
  1 18  1  0
  1 19  1  0
  1 20  1  0
  2  3  1  0
  2 12  1  0
  2 21  1  1
  3  4  2  0
  3  5  1  0
  5  6  1  0
  5 22  1  0
  6  7  1  0
  6 23  1  0
  6 24  1  0
  7 11  1  0
  7  8  1  0
  7 25  1  1
  8  9  1  0
  8 26  1  0
  8 27  1  0
  9 10  1  0
  9 28  1  0
  9 29  1  0
 10 11  1  0
 10 30  1  0
 10 31  1  0
 12 17  1  0
 12 13  1  0
 13 14  1  0
 13 32  1  0
 13 33  1  0
 14 15  1  0
 14 34  1  0
 14 35  1  0
 15 16  1  0
 16 17  1  0
 16 36  1  0
 16 37  1  0
 17 38  1  0
 17 39  1  0
M  END
>  <i_m_ct_stereo_status>  (315) 
1

>  <s_m_source_file>  (315) 
/var/tmp/pbs.5076255.sched01/tmpimq9cq4v/129n8p27m2m.sdf

>  <i_m_source_file_index>  (315) 
12

>  <i_lp_mmshare_version>  (315) 
48012

>  <i_f3d_flags>  (315) 
0

>  <s_epik_input>  (315) 
W0NIMl0xW0NIMl1PW0NIMl1bQ0gyXU4xW0NASF0oW0NIM10pQyg9TylbTkhdW0NIMl1bQ0BASF0yW0NIMl1bQ0gyXVtDSDJdTzI=

>  <s_epik_cmdline>  (315) 
J2VwaWtfcHl0aG9uJywgJy1waHQnLCAnMi4wJywgJy1waCcsICc3LjAnLCAnLXRuJywgJzgnLCAnLW1hJywgJzIwMCcsICctaW1hZScsICc8aW5maWxlLm1hZT4nLCAnLW9tYWUnLCAnPG91dGZpbGUubWFlPic=

>  <r_epik_Ionization_Penalty>  (315) 
0.00552597

>  <r_epik_Ionization_Penalty_Charging>  (315) 
0

>  <r_epik_Ionization_Penalty_Neutral>  (315) 
0.00552597

>  <r_epik_State_Penalty>  (315) 
0.00404475

>  <r_epik_Charging_Adjusted_Penalty>  (315) 
0.00404475

>  <i_epik_Tot_Q>  (315) 
0

>  <i_epik_Tot_abs_Q>  (315) 
0

>  <s_lp_Force_Field>  (315) 
OPLS3e

>  <r_lp_Energy>  (315) 
9.2392

>  <b_lp_Chiralities_Consistent>  (315) 
1

>  <s_lp_Variant>  (315) 
95:0-1

>  <s_i_glide_gridfile>  (315) 
pfpi4k_grid

>  <i_i_glide_lignum>  (315) 
12

>  <i_i_glide_rotatable_bonds>  (315) 
5

>  <r_i_docking_score>  (315) 
-3.94199

>  <r_i_glide_ligand_efficiency>  (315) 
-0.231882

>  <r_i_glide_ligand_efficiency_sa>  (315) 
-0.596234

>  <r_i_glide_ligand_efficiency_ln>  (315) 
-1.02838

>  <r_i_glide_gscore>  (315) 
-3.94199

>  <r_i_glide_lipo>  (315) 
-0.904525

>  <r_i_glide_hbond>  (315) 
-0.443145

>  <r_i_glide_metal>  (315) 
-0

>  <r_i_glide_rewards>  (315) 
-1.75695

>  <r_i_glide_evdw>  (315) 
-16.0998

>  <r_i_glide_ecoul>  (315) 
-5.6085

>  <r_i_glide_erotb>  (315) 
0.886099

>  <r_i_glide_esite>  (315) 
-0.0772127

>  <r_i_glide_emodel>  (315) 
-20.7214

>  <r_i_glide_energy>  (315) 
-21.7083

>  <r_i_glide_einternal>  (315) 
11.3521

>  <r_i_glide_intrahb_reward>  (315) 
-0

>  <i_i_glide_confnum>  (315) 
4

>  <i_i_glide_posenum>  (315) 
12

>  <r_i_glide_eff_state_penalty>  (315) 
0

>  <ligand_id>  (315) 
95

>  <original_smiles>  (315) 
CC(C(=O)NCC1CCCO1)N1CCOCC1

>  <smiles>  (315) 
[H]N(C(=O)C([H])(N1C([H])([H])C([H])([H])OC([H])([H])C1([H])[H])C([H])([H])[H])C([H])([H])C1([H])OC([H])([H])C([H])([H])C1([H])[H]

$$$$
95:0:1
     RDKit          3D

 39 40  0  0  1  0  0  0  0  0999 V2000
   -0.2073   -0.6898    3.7066 C   0  0  0  0  0  0  0  0  0  0  0  0
   -0.0477    0.4734    4.7073 C   0  0  2  0  0  0  0  0  0  0  0  0
    0.0061   -0.1464    6.1196 C   0  0  0  0  0  0  0  0  0  0  0  0
   -0.9855   -0.1251    6.8548 O   0  0  0  0  0  0  0  0  0  0  0  0
    1.1615   -0.7217    6.4815 N   0  0  0  0  0  0  0  0  0  0  0  0
    1.3893   -1.3976    7.7578 C   0  0  0  0  0  0  0  0  0  0  0  0
    0.8361   -2.8391    7.7901 C   0  0  2  0  0  0  0  0  0  0  0  0
    1.3231   -3.7472    6.6528 C   0  0  0  0  0  0  0  0  0  0  0  0
    0.1362   -4.6548    6.3638 C   0  0  0  0  0  0  0  0  0  0  0  0
   -0.9327   -4.2194    7.3646 C   0  0  0  0  0  0  0  0  0  0  0  0
   -0.5809   -2.8841    7.6851 O   0  0  0  0  0  0  0  0  0  0  0  0
   -1.0812    1.5312    4.5832 N   0  0  0  0  0  0  0  0  0  0  0  0
   -1.2273    2.0757    3.2260 C   0  0  0  0  0  0  0  0  0  0  0  0
   -2.3473    3.1305    3.1407 C   0  0  0  0  0  0  0  0  0  0  0  0
   -2.1145    4.1778    4.0779 O   0  0  0  0  0  0  0  0  0  0  0  0
   -2.0062    3.6951    5.4116 C   0  0  0  0  0  0  0  0  0  0  0  0
   -0.8837    2.6552    5.5128 C   0  0  0  0  0  0  0  0  0  0  0  0
    0.5017   -1.4968    3.8961 H   0  0  0  0  0  0  0  0  0  0  0  0
   -0.0270   -0.3662    2.6815 H   0  0  0  0  0  0  0  0  0  0  0  0
   -1.2106   -1.1068    3.7706 H   0  0  0  0  0  0  0  0  0  0  0  0
    0.9268    0.9296    4.5202 H   0  0  0  0  0  0  0  0  0  0  0  0
    1.9141   -0.7479    5.8087 H   0  0  0  0  0  0  0  0  0  0  0  0
    2.4662   -1.4192    7.9330 H   0  0  0  0  0  0  0  0  0  0  0  0
    0.9724   -0.8048    8.5723 H   0  0  0  0  0  0  0  0  0  0  0  0
    1.1012   -3.2953    8.7452 H   0  0  0  0  0  0  0  0  0  0  0  0
    1.5715   -3.1875    5.7490 H   0  0  0  0  0  0  0  0  0  0  0  0
    2.2143   -4.3039    6.9453 H   0  0  0  0  0  0  0  0  0  0  0  0
   -0.2053   -4.4874    5.3423 H   0  0  0  0  0  0  0  0  0  0  0  0
    0.3823   -5.7121    6.4651 H   0  0  0  0  0  0  0  0  0  0  0  0
   -1.9413   -4.2794    6.9555 H   0  0  0  0  0  0  0  0  0  0  0  0
   -0.8933   -4.8342    8.2658 H   0  0  0  0  0  0  0  0  0  0  0  0
   -0.2851    2.5113    2.8893 H   0  0  0  0  0  0  0  0  0  0  0  0
   -1.4784    1.2902    2.5125 H   0  0  0  0  0  0  0  0  0  0  0  0
   -2.3939    3.5537    2.1371 H   0  0  0  0  0  0  0  0  0  0  0  0
   -3.3143    2.6673    3.3383 H   0  0  0  0  0  0  0  0  0  0  0  0
   -1.7837    4.5246    6.0813 H   0  0  0  0  0  0  0  0  0  0  0  0
   -2.9561    3.2654    5.7295 H   0  0  0  0  0  0  0  0  0  0  0  0
   -0.8568    2.3280    6.5512 H   0  0  0  0  0  0  0  0  0  0  0  0
    0.0757    3.1346    5.3114 H   0  0  0  0  0  0  0  0  0  0  0  0
  1  2  1  0
  1 18  1  0
  1 19  1  0
  1 20  1  0
  2  3  1  0
  2 12  1  0
  2 21  1  6
  3  4  2  0
  3  5  1  0
  5  6  1  0
  5 22  1  0
  6  7  1  0
  6 23  1  0
  6 24  1  0
  7 11  1  0
  7  8  1  0
  7 25  1  1
  8  9  1  0
  8 26  1  0
  8 27  1  0
  9 10  1  0
  9 28  1  0
  9 29  1  0
 10 11  1  0
 10 30  1  0
 10 31  1  0
 12 17  1  0
 12 13  1  0
 13 14  1  0
 13 32  1  0
 13 33  1  0
 14 15  1  0
 14 34  1  0
 14 35  1  0
 15 16  1  0
 16 17  1  0
 16 36  1  0
 16 37  1  0
 17 38  1  0
 17 39  1  0
M  END
>  <i_m_ct_stereo_status>  (316) 
1

>  <s_m_source_file>  (316) 
/var/tmp/pbs.5076255.sched01/tmpimq9cq4v/129n8p27m2m.sdf

>  <i_m_source_file_index>  (316) 
12

>  <i_lp_mmshare_version>  (316) 
48012

>  <i_f3d_flags>  (316) 
0

>  <s_epik_input>  (316) 
W0NIMl0xW0NIMl1PW0NIMl1bQ0gyXU4xW0NASF0oW0NIM10pQyg9TylbTkhdW0NIMl1bQ0BASF0yW0NIMl1bQ0gyXVtDSDJdTzI=

>  <s_epik_cmdline>  (316) 
J2VwaWtfcHl0aG9uJywgJy1waHQnLCAnMi4wJywgJy1waCcsICc3LjAnLCAnLXRuJywgJzgnLCAnLW1hJywgJzIwMCcsICctaW1hZScsICc8aW5maWxlLm1hZT4nLCAnLW9tYWUnLCAnPG91dGZpbGUubWFlPic=

>  <r_epik_Ionization_Penalty>  (316) 
0.00552597

>  <r_epik_Ionization_Penalty_Charging>  (316) 
0

>  <r_epik_Ionization_Penalty_Neutral>  (316) 
0.00552597

>  <r_epik_State_Penalty>  (316) 
0.00404475

>  <r_epik_Charging_Adjusted_Penalty>  (316) 
0.00404475

>  <i_epik_Tot_Q>  (316) 
0

>  <i_epik_Tot_abs_Q>  (316) 
0

>  <s_lp_Force_Field>  (316) 
OPLS3e

>  <r_lp_Energy>  (316) 
9.2392

>  <b_lp_Chiralities_Consistent>  (316) 
1

>  <s_lp_Variant>  (316) 
95:0-1

>  <s_i_glide_gridfile>  (316) 
pfpi4k_grid

>  <i_i_glide_lignum>  (316) 
12

>  <i_i_glide_rotatable_bonds>  (316) 
5

>  <r_i_docking_score>  (316) 
-2.86155

>  <r_i_glide_ligand_efficiency>  (316) 
-0.168326

>  <r_i_glide_ligand_efficiency_sa>  (316) 
-0.432815

>  <r_i_glide_ligand_efficiency_ln>  (316) 
-0.746515

>  <r_i_glide_gscore>  (316) 
-2.86155

>  <r_i_glide_lipo>  (316) 
0

>  <r_i_glide_hbond>  (316) 
-0.276086

>  <r_i_glide_metal>  (316) 
-0

>  <r_i_glide_rewards>  (316) 
-1.75695

>  <r_i_glide_evdw>  (316) 
-11.6541

>  <r_i_glide_ecoul>  (316) 
-7.38883

>  <r_i_glide_erotb>  (316) 
0.886099

>  <r_i_glide_esite>  (316) 
-0.0235874

>  <r_i_glide_emodel>  (316) 
-21.9437

>  <r_i_glide_energy>  (316) 
-19.0429

>  <r_i_glide_einternal>  (316) 
2.64731

>  <r_i_glide_intrahb_reward>  (316) 
-0

>  <i_i_glide_confnum>  (316) 
1

>  <i_i_glide_posenum>  (316) 
34

>  <r_i_glide_eff_state_penalty>  (316) 
0

>  <ligand_id>  (316) 
95

>  <original_smiles>  (316) 
CC(C(=O)NCC1CCCO1)N1CCOCC1

>  <smiles>  (316) 
[H]N(C(=O)C([H])(N1C([H])([H])C([H])([H])OC([H])([H])C1([H])[H])C([H])([H])[H])C([H])([H])C1([H])OC([H])([H])C([H])([H])C1([H])[H]

$$$$
95:0:2
     RDKit          3D

 39 40  0  0  1  0  0  0  0  0999 V2000
    0.2464   -2.8402    4.4243 C   0  0  0  0  0  0  0  0  0  0  0  0
   -0.5932   -2.1205    5.5044 C   0  0  2  0  0  0  0  0  0  0  0  0
   -0.2495   -0.6159    5.5279 C   0  0  0  0  0  0  0  0  0  0  0  0
    0.5179   -0.1448    6.3669 O   0  0  0  0  0  0  0  0  0  0  0  0
   -0.8345    0.1486    4.5819 N   0  0  0  0  0  0  0  0  0  0  0  0
   -0.5242    1.5534    4.3352 C   0  0  0  0  0  0  0  0  0  0  0  0
    0.9642    1.8142    4.0254 C   0  0  2  0  0  0  0  0  0  0  0  0
    1.2790    3.2603    3.6498 C   0  0  0  0  0  0  0  0  0  0  0  0
    2.4036    3.1428    2.6258 C   0  0  0  0  0  0  0  0  0  0  0  0
    2.6321    1.6386    2.4906 C   0  0  0  0  0  0  0  0  0  0  0  0
    1.3939    1.0741    2.8936 O   0  0  0  0  0  0  0  0  0  0  0  0
   -0.5421   -2.7415    6.8575 N   0  0  0  0  0  0  0  0  0  0  0  0
    0.8101   -3.0236    7.3661 C   0  0  0  0  0  0  0  0  0  0  0  0
    0.7937   -3.5706    8.8034 C   0  0  0  0  0  0  0  0  0  0  0  0
   -0.0038   -4.7516    8.8465 O   0  0  0  0  0  0  0  0  0  0  0  0
   -1.3409   -4.5184    8.4199 C   0  0  0  0  0  0  0  0  0  0  0  0
   -1.3703   -3.9508    6.9902 C   0  0  0  0  0  0  0  0  0  0  0  0
    0.1513   -2.3490    3.4570 H   0  0  0  0  0  0  0  0  0  0  0  0
   -0.0992   -3.8543    4.2751 H   0  0  0  0  0  0  0  0  0  0  0  0
    1.2992   -2.9006    4.6987 H   0  0  0  0  0  0  0  0  0  0  0  0
   -1.6346   -2.1285    5.1948 H   0  0  0  0  0  0  0  0  0  0  0  0
   -1.5361   -0.2586    3.9830 H   0  0  0  0  0  0  0  0  0  0  0  0
   -1.1400    1.8904    3.4960 H   0  0  0  0  0  0  0  0  0  0  0  0
   -0.8486    2.1473    5.1914 H   0  0  0  0  0  0  0  0  0  0  0  0
    1.6128    1.5484    4.8623 H   0  0  0  0  0  0  0  0  0  0  0  0
    0.4168    3.7534    3.1933 H   0  0  0  0  0  0  0  0  0  0  0  0
    1.5754    3.8374    4.5289 H   0  0  0  0  0  0  0  0  0  0  0  0
    2.0773    3.5607    1.6762 H   0  0  0  0  0  0  0  0  0  0  0  0
    3.3084    3.6712    2.9314 H   0  0  0  0  0  0  0  0  0  0  0  0
    2.8962    1.3410    1.4771 H   0  0  0  0  0  0  0  0  0  0  0  0
    3.4246    1.3087    3.1650 H   0  0  0  0  0  0  0  0  0  0  0  0
    1.2878   -3.7707    6.7302 H   0  0  0  0  0  0  0  0  0  0  0  0
    1.4332   -2.1294    7.3619 H   0  0  0  0  0  0  0  0  0  0  0  0
    1.8074   -3.8275    9.1011 H   0  0  0  0  0  0  0  0  0  0  0  0
    0.4260   -2.8376    9.5254 H   0  0  0  0  0  0  0  0  0  0  0  0
   -1.8894   -5.4565    8.4545 H   0  0  0  0  0  0  0  0  0  0  0  0
   -1.8229   -3.8479    9.1211 H   0  0  0  0  0  0  0  0  0  0  0  0
   -2.4002   -3.7373    6.7175 H   0  0  0  0  0  0  0  0  0  0  0  0
   -1.0303   -4.7131    6.2973 H   0  0  0  0  0  0  0  0  0  0  0  0
  1  2  1  0
  1 18  1  0
  1 19  1  0
  1 20  1  0
  2  3  1  0
  2 12  1  0
  2 21  1  6
  3  4  2  0
  3  5  1  0
  5  6  1  0
  5 22  1  0
  6  7  1  0
  6 23  1  0
  6 24  1  0
  7 11  1  0
  7  8  1  0
  7 25  1  1
  8  9  1  0
  8 26  1  0
  8 27  1  0
  9 10  1  0
  9 28  1  0
  9 29  1  0
 10 11  1  0
 10 30  1  0
 10 31  1  0
 12 17  1  0
 12 13  1  0
 13 14  1  0
 13 32  1  0
 13 33  1  0
 14 15  1  0
 14 34  1  0
 14 35  1  0
 15 16  1  0
 16 17  1  0
 16 36  1  0
 16 37  1  0
 17 38  1  0
 17 39  1  0
M  END
>  <i_m_ct_stereo_status>  (317) 
1

>  <s_m_source_file>  (317) 
/var/tmp/pbs.5076255.sched01/tmpimq9cq4v/129n8p27m2m.sdf

>  <i_m_source_file_index>  (317) 
12

>  <i_lp_mmshare_version>  (317) 
48012

>  <i_f3d_flags>  (317) 
0

>  <s_epik_input>  (317) 
W0NIMl0xW0NIMl1PW0NIMl1bQ0gyXU4xW0NASF0oW0NIM10pQyg9TylbTkhdW0NIMl1bQ0BASF0yW0NIMl1bQ0gyXVtDSDJdTzI=

>  <s_epik_cmdline>  (317) 
J2VwaWtfcHl0aG9uJywgJy1waHQnLCAnMi4wJywgJy1waCcsICc3LjAnLCAnLXRuJywgJzgnLCAnLW1hJywgJzIwMCcsICctaW1hZScsICc8aW5maWxlLm1hZT4nLCAnLW9tYWUnLCAnPG91dGZpbGUubWFlPic=

>  <r_epik_Ionization_Penalty>  (317) 
0.00552597

>  <r_epik_Ionization_Penalty_Charging>  (317) 
0

>  <r_epik_Ionization_Penalty_Neutral>  (317) 
0.00552597

>  <r_epik_State_Penalty>  (317) 
0.00404475

>  <r_epik_Charging_Adjusted_Penalty>  (317) 
0.00404475

>  <i_epik_Tot_Q>  (317) 
0

>  <i_epik_Tot_abs_Q>  (317) 
0

>  <s_lp_Force_Field>  (317) 
OPLS3e

>  <r_lp_Energy>  (317) 
9.2392

>  <b_lp_Chiralities_Consistent>  (317) 
1

>  <s_lp_Variant>  (317) 
95:0-1

>  <s_i_glide_gridfile>  (317) 
pfpi4k_grid

>  <i_i_glide_lignum>  (317) 
12

>  <i_i_glide_rotatable_bonds>  (317) 
5

>  <r_i_docking_score>  (317) 
-2.06857

>  <r_i_glide_ligand_efficiency>  (317) 
-0.121681

>  <r_i_glide_ligand_efficiency_sa>  (317) 
-0.312876

>  <r_i_glide_ligand_efficiency_ln>  (317) 
-0.539645

>  <r_i_glide_gscore>  (317) 
-2.06857

>  <r_i_glide_lipo>  (317) 
-0.0500586

>  <r_i_glide_hbond>  (317) 
0

>  <r_i_glide_metal>  (317) 
-0

>  <r_i_glide_rewards>  (317) 
-1.75695

>  <r_i_glide_evdw>  (317) 
-14.9327

>  <r_i_glide_ecoul>  (317) 
-2.36227

>  <r_i_glide_erotb>  (317) 
0.886099

>  <r_i_glide_esite>  (317) 
-0.0466922

>  <r_i_glide_emodel>  (317) 
-16.0494

>  <r_i_glide_energy>  (317) 
-17.295

>  <r_i_glide_einternal>  (317) 
8.13186

>  <r_i_glide_intrahb_reward>  (317) 
-0

>  <i_i_glide_confnum>  (317) 
1

>  <i_i_glide_posenum>  (317) 
3

>  <r_i_glide_eff_state_penalty>  (317) 
0

>  <ligand_id>  (317) 
95

>  <original_smiles>  (317) 
CC(C(=O)NCC1CCCO1)N1CCOCC1

>  <smiles>  (317) 
[H]N(C(=O)C([H])(N1C([H])([H])C([H])([H])OC([H])([H])C1([H])[H])C([H])([H])[H])C([H])([H])C1([H])OC([H])([H])C([H])([H])C1([H])[H]

$$$$
96:0:0
     RDKit          3D

 26 27  0  0  1  0  0  0  0  0999 V2000
    3.8136    0.8920   -4.2590 O   0  0  0  0  0  0  0  0  0  0  0  0
    3.2328   -0.2849   -4.7561 C   0  0  0  0  0  0  0  0  0  0  0  0
    3.2965   -1.5128   -3.8019 C   0  0  2  0  0  0  0  0  0  0  0  0
    2.6848   -1.3152   -2.4198 C   0  0  0  0  0  0  0  0  0  0  0  0
    3.7978   -1.3527   -1.3370 C   0  0  1  0  0  0  0  0  0  0  0  0
    3.6708   -2.4458   -0.3874 N   0  0  0  0  0  0  0  0  0  0  0  0
    3.2903   -3.6904   -0.7656 N   0  0  0  0  0  0  0  0  0  0  0  0
    3.5685   -4.3456    0.3276 C   0  0  0  0  0  0  0  0  0  0  0  0
    4.0829   -3.5914    1.3338 N   0  0  0  0  0  0  0  0  0  0  0  0
    4.1363   -2.3675    0.8807 N   0  0  0  0  0  0  0  0  0  0  0  0
    5.0885   -1.3831   -2.1511 C   0  0  1  0  0  0  0  0  0  0  0  0
    6.2425   -1.9275   -1.5376 O   0  0  0  0  0  0  0  0  0  0  0  0
    4.6875   -2.0305   -3.4939 C   0  0  1  0  0  0  0  0  0  0  0  0
    4.6846   -3.4524   -3.4301 O   0  0  0  0  0  0  0  0  0  0  0  0
    3.2731    1.2490   -3.5530 H   0  0  0  0  0  0  0  0  0  0  0  0
    2.2063   -0.0681   -5.0433 H   0  0  0  0  0  0  0  0  0  0  0  0
    3.7512   -0.5040   -5.6839 H   0  0  0  0  0  0  0  0  0  0  0  0
    2.7597   -2.3200   -4.2865 H   0  0  0  0  0  0  0  0  0  0  0  0
    2.2061   -0.3429   -2.3504 H   0  0  0  0  0  0  0  0  0  0  0  0
    1.9282   -2.1012   -2.3413 H   0  0  0  0  0  0  0  0  0  0  0  0
    3.8264   -0.4425   -0.7385 H   0  0  0  0  0  0  0  0  0  0  0  0
    3.4051   -5.4108    0.4066 H   0  0  0  0  0  0  0  0  0  0  0  0
    5.3653   -0.3338   -2.3290 H   0  0  0  0  0  0  0  0  0  0  0  0
    6.1049   -2.8468   -1.3534 H   0  0  0  0  0  0  0  0  0  0  0  0
    5.3006   -1.6852   -4.3048 H   0  0  0  0  0  0  0  0  0  0  0  0
    4.1231   -3.7464   -2.7100 H   0  0  0  0  0  0  0  0  0  0  0  0
  1  2  1  0
  1 15  1  0
  2  3  1  0
  2 16  1  0
  2 17  1  0
  3 13  1  0
  3  4  1  0
  3 18  1  6
  4  5  1  0
  4 19  1  0
  4 20  1  0
  5  6  1  0
  5 11  1  0
  5 21  1  1
  6 10  1  0
  6  7  1  0
  7  8  2  0
  8  9  1  0
  8 22  1  0
  9 10  2  0
 11 12  1  0
 11 13  1  0
 11 23  1  6
 12 24  1  0
 13 14  1  0
 13 25  1  6
 14 26  1  0
M  END
>  <i_m_ct_stereo_status>  (318) 
1

>  <s_m_source_file>  (318) 
/var/tmp/pbs.5076255.sched01/tmpimq9cq4v/129n8p27m2m.sdf

>  <i_m_source_file_index>  (318) 
13

>  <i_lp_mmshare_version>  (318) 
48012

>  <i_f3d_flags>  (318) 
0

>  <s_epik_input>  (318) 
W09IXVtDSDJdW0NAQEhdMVtDSDJdW0NASF0oW0NAQEhdKFtPSF0pW0NASF0xW09IXSluMm5bY0hdbm4y

>  <s_epik_cmdline>  (318) 
J2VwaWtfcHl0aG9uJywgJy1waHQnLCAnMi4wJywgJy1waCcsICc3LjAnLCAnLXRuJywgJzgnLCAnLW1hJywgJzIwMCcsICctaW1hZScsICc8aW5maWxlLm1hZT4nLCAnLW9tYWUnLCAnPG91dGZpbGUubWFlPic=

>  <r_lp_tautomer_probability>  (318) 
1

>  <r_epik_Ionization_Penalty>  (318) 
6.46927e-07

>  <r_epik_Ionization_Penalty_Charging>  (318) 
0

>  <r_epik_Ionization_Penalty_Neutral>  (318) 
6.46927e-07

>  <r_epik_State_Penalty>  (318) 
-0

>  <r_epik_Charging_Adjusted_Penalty>  (318) 
0

>  <i_epik_Tot_Q>  (318) 
0

>  <i_epik_Tot_abs_Q>  (318) 
0

>  <s_lp_Force_Field>  (318) 
OPLS3e

>  <r_lp_Energy>  (318) 
8.16974

>  <b_lp_Chiralities_Consistent>  (318) 
1

>  <s_lp_Variant>  (318) 
96:0-1

>  <s_i_glide_gridfile>  (318) 
pfpi4k_grid

>  <i_i_glide_lignum>  (318) 
13

>  <i_i_glide_rotatable_bonds>  (318) 
5

>  <r_i_docking_score>  (318) 
-4.57317

>  <r_i_glide_ligand_efficiency>  (318) 
-0.326655

>  <r_i_glide_ligand_efficiency_sa>  (318) 
-0.787285

>  <r_i_glide_ligand_efficiency_ln>  (318) 
-1.25669

>  <r_i_glide_gscore>  (318) 
-4.57317

>  <r_i_glide_lipo>  (318) 
-0.495033

>  <r_i_glide_hbond>  (318) 
-0.32

>  <r_i_glide_metal>  (318) 
-0

>  <r_i_glide_rewards>  (318) 
-2.54412

>  <r_i_glide_evdw>  (318) 
-15.2718

>  <r_i_glide_ecoul>  (318) 
-8.12082

>  <r_i_glide_erotb>  (318) 
0.81534

>  <r_i_glide_esite>  (318) 
-0.0476395

>  <r_i_glide_emodel>  (318) 
-34.7612

>  <r_i_glide_energy>  (318) 
-23.3927

>  <r_i_glide_einternal>  (318) 
4.0123

>  <r_i_glide_intrahb_reward>  (318) 
-0.5

>  <i_i_glide_confnum>  (318) 
6

>  <i_i_glide_posenum>  (318) 
25

>  <r_i_glide_eff_state_penalty>  (318) 
0

>  <ligand_id>  (318) 
96

>  <original_smiles>  (318) 
OCC1CC(n2ncnn2)C(O)C1O

>  <smiles>  (318) 
[H]OC([H])([H])C1([H])C([H])([H])C([H])(n2nnc([H])n2)C([H])(O[H])C1([H])O[H]

$$$$
96:0:1
     RDKit          3D

 26 27  0  0  1  0  0  0  0  0999 V2000
    3.7341   -2.2702   -4.3026 O   0  0  0  0  0  0  0  0  0  0  0  0
    4.1267   -3.1114   -3.2364 C   0  0  0  0  0  0  0  0  0  0  0  0
    3.4438   -2.7051   -1.9069 C   0  0  2  0  0  0  0  0  0  0  0  0
    3.9386   -1.3220   -1.4145 C   0  0  0  0  0  0  0  0  0  0  0  0
    4.8289   -1.5470   -0.1777 C   0  0  1  0  0  0  0  0  0  0  0  0
    4.2301   -0.9619    1.0215 N   0  0  0  0  0  0  0  0  0  0  0  0
    4.9447   -0.2506    1.9096 N   0  0  0  0  0  0  0  0  0  0  0  0
    3.9882    0.0348    2.7802 C   0  0  0  0  0  0  0  0  0  0  0  0
    2.7936   -0.5727    2.5162 N   0  0  0  0  0  0  0  0  0  0  0  0
    2.9580   -1.2101    1.4131 N   0  0  0  0  0  0  0  0  0  0  0  0
    5.0140   -3.0846   -0.1074 C   0  0  1  0  0  0  0  0  0  0  0  0
    5.3026   -3.6368    1.1607 O   0  0  0  0  0  0  0  0  0  0  0  0
    3.7817   -3.7061   -0.7760 C   0  0  1  0  0  0  0  0  0  0  0  0
    2.6834   -3.8059    0.1130 O   0  0  0  0  0  0  0  0  0  0  0  0
    2.7871   -2.2852   -4.3605 H   0  0  0  0  0  0  0  0  0  0  0  0
    3.8730   -4.1358   -3.5018 H   0  0  0  0  0  0  0  0  0  0  0  0
    5.2100   -3.0643   -3.1241 H   0  0  0  0  0  0  0  0  0  0  0  0
    2.3603   -2.6689   -2.0376 H   0  0  0  0  0  0  0  0  0  0  0  0
    4.4974   -0.7812   -2.1770 H   0  0  0  0  0  0  0  0  0  0  0  0
    3.0891   -0.6717   -1.1941 H   0  0  0  0  0  0  0  0  0  0  0  0
    5.8104   -1.0831   -0.3203 H   0  0  0  0  0  0  0  0  0  0  0  0
    4.1486    0.6865    3.6302 H   0  0  0  0  0  0  0  0  0  0  0  0
    5.8672   -3.3358   -0.7390 H   0  0  0  0  0  0  0  0  0  0  0  0
    4.5431   -3.5175    1.7073 H   0  0  0  0  0  0  0  0  0  0  0  0
    3.9939   -4.7181   -1.1202 H   0  0  0  0  0  0  0  0  0  0  0  0
    2.4780   -2.9362    0.4323 H   0  0  0  0  0  0  0  0  0  0  0  0
  1  2  1  0
  1 15  1  0
  2  3  1  0
  2 16  1  0
  2 17  1  0
  3 13  1  0
  3  4  1  0
  3 18  1  6
  4  5  1  0
  4 19  1  0
  4 20  1  0
  5  6  1  0
  5 11  1  0
  5 21  1  6
  6 10  1  0
  6  7  1  0
  7  8  2  0
  8  9  1  0
  8 22  1  0
  9 10  2  0
 11 12  1  0
 11 13  1  0
 11 23  1  6
 12 24  1  0
 13 14  1  0
 13 25  1  6
 14 26  1  0
M  END
>  <i_m_ct_stereo_status>  (319) 
1

>  <s_m_source_file>  (319) 
/var/tmp/pbs.5076255.sched01/tmpimq9cq4v/129n8p27m2m.sdf

>  <i_m_source_file_index>  (319) 
13

>  <i_lp_mmshare_version>  (319) 
48012

>  <i_f3d_flags>  (319) 
0

>  <s_epik_input>  (319) 
W09IXVtDSDJdW0NAQEhdMVtDSDJdW0NASF0oW0NAQEhdKFtPSF0pW0NASF0xW09IXSluMm5bY0hdbm4y

>  <s_epik_cmdline>  (319) 
J2VwaWtfcHl0aG9uJywgJy1waHQnLCAnMi4wJywgJy1waCcsICc3LjAnLCAnLXRuJywgJzgnLCAnLW1hJywgJzIwMCcsICctaW1hZScsICc8aW5maWxlLm1hZT4nLCAnLW9tYWUnLCAnPG91dGZpbGUubWFlPic=

>  <r_lp_tautomer_probability>  (319) 
1

>  <r_epik_Ionization_Penalty>  (319) 
6.46927e-07

>  <r_epik_Ionization_Penalty_Charging>  (319) 
0

>  <r_epik_Ionization_Penalty_Neutral>  (319) 
6.46927e-07

>  <r_epik_State_Penalty>  (319) 
-0

>  <r_epik_Charging_Adjusted_Penalty>  (319) 
0

>  <i_epik_Tot_Q>  (319) 
0

>  <i_epik_Tot_abs_Q>  (319) 
0

>  <s_lp_Force_Field>  (319) 
OPLS3e

>  <r_lp_Energy>  (319) 
8.16974

>  <b_lp_Chiralities_Consistent>  (319) 
1

>  <s_lp_Variant>  (319) 
96:0-1

>  <s_i_glide_gridfile>  (319) 
pfpi4k_grid

>  <i_i_glide_lignum>  (319) 
13

>  <i_i_glide_rotatable_bonds>  (319) 
5

>  <r_i_docking_score>  (319) 
-4.06505

>  <r_i_glide_ligand_efficiency>  (319) 
-0.290361

>  <r_i_glide_ligand_efficiency_sa>  (319) 
-0.699811

>  <r_i_glide_ligand_efficiency_ln>  (319) 
-1.11706

>  <r_i_glide_gscore>  (319) 
-4.06505

>  <r_i_glide_lipo>  (319) 
-0.134547

>  <r_i_glide_hbond>  (319) 
-0.404823

>  <r_i_glide_metal>  (319) 
-0

>  <r_i_glide_rewards>  (319) 
-2.60433

>  <r_i_glide_evdw>  (319) 
-16.0222

>  <r_i_glide_ecoul>  (319) 
-5.86755

>  <r_i_glide_erotb>  (319) 
0.81534

>  <r_i_glide_esite>  (319) 
-0.055446

>  <r_i_glide_emodel>  (319) 
-34.1225

>  <r_i_glide_energy>  (319) 
-21.8898

>  <r_i_glide_einternal>  (319) 
0.957203

>  <r_i_glide_intrahb_reward>  (319) 
-0.5

>  <i_i_glide_confnum>  (319) 
1

>  <i_i_glide_posenum>  (319) 
24

>  <r_i_glide_eff_state_penalty>  (319) 
0

>  <ligand_id>  (319) 
96

>  <original_smiles>  (319) 
OCC1CC(n2ncnn2)C(O)C1O

>  <smiles>  (319) 
[H]OC([H])([H])C1([H])C([H])([H])C([H])(n2nnc([H])n2)C([H])(O[H])C1([H])O[H]

$$$$
96:0:2
     RDKit          3D

 26 27  0  0  1  0  0  0  0  0999 V2000
    3.7999   -2.0264   -4.3270 O   0  0  0  0  0  0  0  0  0  0  0  0
    4.2086   -3.0171   -3.4034 C   0  0  0  0  0  0  0  0  0  0  0  0
    3.7009   -2.6610   -1.9938 C   0  0  2  0  0  0  0  0  0  0  0  0
    4.2918   -1.3215   -1.4855 C   0  0  0  0  0  0  0  0  0  0  0  0
    5.3125   -1.6647   -0.3764 C   0  0  1  0  0  0  0  0  0  0  0  0
    4.9008   -1.1961    0.9449 N   0  0  0  0  0  0  0  0  0  0  0  0
    3.6225   -1.2453    1.3740 N   0  0  0  0  0  0  0  0  0  0  0  0
    3.7923   -0.8825    2.6305 C   0  0  0  0  0  0  0  0  0  0  0  0
    5.0975   -0.6708    2.9769 N   0  0  0  0  0  0  0  0  0  0  0  0
    5.7945   -0.8695    1.9082 N   0  0  0  0  0  0  0  0  0  0  0  0
    5.4636   -3.2022   -0.4514 C   0  0  1  0  0  0  0  0  0  0  0  0
    5.8675   -3.8580    0.7322 O   0  0  0  0  0  0  0  0  0  0  0  0
    4.1260   -3.7301   -0.9736 C   0  0  1  0  0  0  0  0  0  0  0  0
    3.1583   -3.8234    0.0576 O   0  0  0  0  0  0  0  0  0  0  0  0
    2.8514   -1.9721   -4.3008 H   0  0  0  0  0  0  0  0  0  0  0  0
    3.8321   -3.9868   -3.7266 H   0  0  0  0  0  0  0  0  0  0  0  0
    5.2968   -3.0693   -3.4243 H   0  0  0  0  0  0  0  0  0  0  0  0
    2.6134   -2.5852   -2.0136 H   0  0  0  0  0  0  0  0  0  0  0  0
    4.7816   -0.7528   -2.2806 H   0  0  0  0  0  0  0  0  0  0  0  0
    3.4874   -0.6679   -1.1461 H   0  0  0  0  0  0  0  0  0  0  0  0
    6.2687   -1.1896   -0.5957 H   0  0  0  0  0  0  0  0  0  0  0  0
    2.9651   -0.7960    3.3235 H   0  0  0  0  0  0  0  0  0  0  0  0
    6.2323   -3.4233   -1.1962 H   0  0  0  0  0  0  0  0  0  0  0  0
    5.1974   -3.7306    1.3891 H   0  0  0  0  0  0  0  0  0  0  0  0
    4.2424   -4.7147   -1.4190 H   0  0  0  0  0  0  0  0  0  0  0  0
    3.0499   -2.9588    0.4438 H   0  0  0  0  0  0  0  0  0  0  0  0
  1  2  1  0
  1 15  1  0
  2  3  1  0
  2 16  1  0
  2 17  1  0
  3 13  1  0
  3  4  1  0
  3 18  1  6
  4  5  1  0
  4 19  1  0
  4 20  1  0
  5  6  1  0
  5 11  1  0
  5 21  1  6
  6 10  1  0
  6  7  1  0
  7  8  2  0
  8  9  1  0
  8 22  1  0
  9 10  2  0
 11 12  1  0
 11 13  1  0
 11 23  1  6
 12 24  1  0
 13 14  1  0
 13 25  1  6
 14 26  1  0
M  END
>  <i_m_ct_stereo_status>  (320) 
1

>  <s_m_source_file>  (320) 
/var/tmp/pbs.5076255.sched01/tmpimq9cq4v/129n8p27m2m.sdf

>  <i_m_source_file_index>  (320) 
13

>  <i_lp_mmshare_version>  (320) 
48012

>  <i_f3d_flags>  (320) 
0

>  <s_epik_input>  (320) 
W09IXVtDSDJdW0NAQEhdMVtDSDJdW0NASF0oW0NAQEhdKFtPSF0pW0NASF0xW09IXSluMm5bY0hdbm4y

>  <s_epik_cmdline>  (320) 
J2VwaWtfcHl0aG9uJywgJy1waHQnLCAnMi4wJywgJy1waCcsICc3LjAnLCAnLXRuJywgJzgnLCAnLW1hJywgJzIwMCcsICctaW1hZScsICc8aW5maWxlLm1hZT4nLCAnLW9tYWUnLCAnPG91dGZpbGUubWFlPic=

>  <r_lp_tautomer_probability>  (320) 
1

>  <r_epik_Ionization_Penalty>  (320) 
6.46927e-07

>  <r_epik_Ionization_Penalty_Charging>  (320) 
0

>  <r_epik_Ionization_Penalty_Neutral>  (320) 
6.46927e-07

>  <r_epik_State_Penalty>  (320) 
-0

>  <r_epik_Charging_Adjusted_Penalty>  (320) 
0

>  <i_epik_Tot_Q>  (320) 
0

>  <i_epik_Tot_abs_Q>  (320) 
0

>  <s_lp_Force_Field>  (320) 
OPLS3e

>  <r_lp_Energy>  (320) 
8.16974

>  <b_lp_Chiralities_Consistent>  (320) 
1

>  <s_lp_Variant>  (320) 
96:0-1

>  <s_i_glide_gridfile>  (320) 
pfpi4k_grid

>  <i_i_glide_lignum>  (320) 
13

>  <i_i_glide_rotatable_bonds>  (320) 
5

>  <r_i_docking_score>  (320) 
-4.00368

>  <r_i_glide_ligand_efficiency>  (320) 
-0.285977

>  <r_i_glide_ligand_efficiency_sa>  (320) 
-0.689245

>  <r_i_glide_ligand_efficiency_ln>  (320) 
-1.1002

>  <r_i_glide_gscore>  (320) 
-4.00368

>  <r_i_glide_lipo>  (320) 
-0.207508

>  <r_i_glide_hbond>  (320) 
-0.32

>  <r_i_glide_metal>  (320) 
-0

>  <r_i_glide_rewards>  (320) 
-2.65835

>  <r_i_glide_evdw>  (320) 
-17.8261

>  <r_i_glide_ecoul>  (320) 
-4.94572

>  <r_i_glide_erotb>  (320) 
0.81534

>  <r_i_glide_esite>  (320) 
0

>  <r_i_glide_emodel>  (320) 
-35.2238

>  <r_i_glide_energy>  (320) 
-22.7718

>  <r_i_glide_einternal>  (320) 
0.210095

>  <r_i_glide_intrahb_reward>  (320) 
-0.5

>  <i_i_glide_confnum>  (320) 
4

>  <i_i_glide_posenum>  (320) 
28

>  <r_i_glide_eff_state_penalty>  (320) 
0

>  <ligand_id>  (320) 
96

>  <original_smiles>  (320) 
OCC1CC(n2ncnn2)C(O)C1O

>  <smiles>  (320) 
[H]OC([H])([H])C1([H])C([H])([H])C([H])(n2nnc([H])n2)C([H])(O[H])C1([H])O[H]

$$$$
97:0:0
     RDKit          3D

 35 38  0  0  1  0  0  0  0  0999 V2000
    5.6573   -0.7310    1.3929 C   0  0  0  0  0  0  0  0  0  0  0  0
    4.3263   -0.9083    1.4665 C   0  0  0  0  0  0  0  0  0  0  0  0
    3.6054   -2.1365    0.9207 C   0  0  0  0  0  0  0  0  0  0  0  0
    3.6468   -2.2973   -0.6212 C   0  0  2  0  0  0  0  0  0  0  0  0
    3.4245   -3.7196   -1.1276 C   0  0  0  0  0  0  0  0  0  0  0  0
    4.2229   -3.8436   -2.3774 N   0  0  1  0  0  0  0  0  0  0  0  0
    3.4800   -3.3952   -3.6016 C   0  0  0  0  0  0  0  0  0  0  0  0
    3.0594   -1.8930   -3.6700 C   0  0  0  0  0  0  0  0  0  0  0  0
    4.1741   -0.8262   -3.5439 C   0  0  0  0  0  0  0  0  0  0  0  0
    4.8023   -0.6338   -2.1355 C   0  0  0  0  0  0  0  0  0  0  0  0
    4.9340   -1.9171   -1.3529 C   0  0  1  0  0  0  0  0  0  0  0  0
    6.1626   -2.1688   -0.5167 C   0  0  0  0  0  0  0  0  0  0  0  0
    6.4980   -1.6635    0.6815 C   0  0  0  0  0  0  0  0  0  0  0  0
    6.5667   -3.4493   -1.2003 C   0  0  0  0  0  0  0  0  0  0  0  0
    5.4634   -3.0532   -2.2129 C   0  0  1  0  0  0  0  0  0  0  0  0
    6.1044    0.1252    1.8658 H   0  0  0  0  0  0  0  0  0  0  0  0
    3.7227   -0.1801    1.9915 H   0  0  0  0  0  0  0  0  0  0  0  0
    4.0302   -3.0084    1.4169 H   0  0  0  0  0  0  0  0  0  0  0  0
    2.5670   -2.0826    1.2459 H   0  0  0  0  0  0  0  0  0  0  0  0
    2.8409   -1.6729   -0.9854 H   0  0  0  0  0  0  0  0  0  0  0  0
    3.8229   -4.4448   -0.4182 H   0  0  0  0  0  0  0  0  0  0  0  0
    2.3688   -3.9463   -1.2800 H   0  0  0  0  0  0  0  0  0  0  0  0
    4.0802   -3.6422   -4.4790 H   0  0  0  0  0  0  0  0  0  0  0  0
    2.5686   -3.9878   -3.6926 H   0  0  0  0  0  0  0  0  0  0  0  0
    2.6264   -1.7447   -4.6568 H   0  0  0  0  0  0  0  0  0  0  0  0
    2.2337   -1.6775   -2.9922 H   0  0  0  0  0  0  0  0  0  0  0  0
    4.9485   -1.0640   -4.2749 H   0  0  0  0  0  0  0  0  0  0  0  0
    3.7762    0.1397   -3.8657 H   0  0  0  0  0  0  0  0  0  0  0  0
    5.7808   -0.1852   -2.2727 H   0  0  0  0  0  0  0  0  0  0  0  0
    4.2185    0.0913   -1.5757 H   0  0  0  0  0  0  0  0  0  0  0  0
    7.3257   -2.1075    1.2126 H   0  0  0  0  0  0  0  0  0  0  0  0
    7.5603   -3.4601   -1.6556 H   0  0  0  0  0  0  0  0  0  0  0  0
    6.3607   -4.3841   -0.6787 H   0  0  0  0  0  0  0  0  0  0  0  0
    5.9339   -2.7552   -3.1538 H   0  0  0  0  0  0  0  0  0  0  0  0
    4.4248   -4.8262   -2.5160 H   0  0  0  0  0  0  0  0  0  0  0  0
  1 13  1  0
  1  2  2  0
  1 16  1  0
  2  3  1  0
  2 17  1  0
  3  4  1  0
  3 18  1  0
  3 19  1  0
  4 11  1  0
  4  5  1  0
  4 20  1  6
  5  6  1  0
  5 21  1  0
  5 22  1  0
  6 15  1  0
  6  7  1  0
  6 35  1  6
  7  8  1  0
  7 23  1  0
  7 24  1  0
  8  9  1  0
  8 25  1  0
  8 26  1  0
  9 10  1  0
  9 27  1  0
  9 28  1  0
 11 10  1  6
 10 29  1  0
 10 30  1  0
 11 15  1  0
 11 12  1  0
 12 13  2  0
 12 14  1  0
 13 31  1  0
 14 15  1  0
 14 32  1  0
 14 33  1  0
 15 34  1  6
M  CHG  1   6   1
M  END
>  <i_m_ct_stereo_status>  (321) 
1

>  <s_m_source_file>  (321) 
/var/tmp/pbs.5076255.sched01/tmpimq9cq4v/129n8p27m2m.sdf

>  <i_m_source_file_index>  (321) 
14

>  <i_lp_mmshare_version>  (321) 
48012

>  <i_f3d_flags>  (321) 
0

>  <s_epik_input>  (321) 
W0NAXTEyM1tDQEBIXTRbQ0gyXVtDSF09W0NIXVtDSF09QzJbQ0gyXVtDQEhdM04oW0NIMl00KVtDSDJdW0NIMl1bQ0gyXVtDSDJdMQ==

>  <s_epik_cmdline>  (321) 
J2VwaWtfcHl0aG9uJywgJy1waHQnLCAnMi4wJywgJy1waCcsICc3LjAnLCAnLXRuJywgJzgnLCAnLW1hJywgJzIwMCcsICctaW1hZScsICc8aW5maWxlLm1hZT4nLCAnLW9tYWUnLCAnPG91dGZpbGUubWFlPic=

>  <r_epik_Ionization_Penalty>  (321) 
0.000825056

>  <r_epik_Ionization_Penalty_Charging>  (321) 
0.000825056

>  <r_epik_Ionization_Penalty_Neutral>  (321) 
0

>  <r_epik_State_Penalty>  (321) 
0.000530905

>  <r_epik_Charging_Adjusted_Penalty>  (321) 
0.00135596

>  <i_epik_Tot_Q>  (321) 
1

>  <i_epik_Tot_abs_Q>  (321) 
1

>  <s_lp_Force_Field>  (321) 
OPLS3e

>  <r_lp_Energy>  (321) 
43.3279

>  <b_lp_Chiralities_Consistent>  (321) 
1

>  <s_lp_Variant>  (321) 
97:0-1

>  <s_i_glide_gridfile>  (321) 
pfpi4k_grid

>  <i_i_glide_lignum>  (321) 
14

>  <i_i_glide_rotatable_bonds>  (321) 
0

>  <r_i_docking_score>  (321) 
-4.90222

>  <r_i_glide_ligand_efficiency>  (321) 
-0.326815

>  <r_i_glide_ligand_efficiency_sa>  (321) 
-0.805994

>  <r_i_glide_ligand_efficiency_ln>  (321) 
-1.32205

>  <r_i_glide_gscore>  (321) 
-4.90222

>  <r_i_glide_lipo>  (321) 
-1.13857

>  <r_i_glide_hbond>  (321) 
0

>  <r_i_glide_metal>  (321) 
-0

>  <r_i_glide_rewards>  (321) 
-2.02967

>  <r_i_glide_evdw>  (321) 
-18.594

>  <r_i_glide_ecoul>  (321) 
-5.07609

>  <r_i_glide_erotb>  (321) 
0

>  <r_i_glide_esite>  (321) 
-0.0428658

>  <r_i_glide_emodel>  (321) 
-30.7419

>  <r_i_glide_energy>  (321) 
-23.6701

>  <r_i_glide_einternal>  (321) 
0

>  <r_i_glide_intrahb_reward>  (321) 
-0

>  <i_i_glide_confnum>  (321) 
1

>  <i_i_glide_posenum>  (321) 
2

>  <r_i_glide_eff_state_penalty>  (321) 
0

>  <ligand_id>  (321) 
97

>  <original_smiles>  (321) 
C1=CCC2CN3CCCCC24C(=C1)CC34

>  <smiles>  (321) 
[H]C1=C([H])C([H])([H])C2([H])C34C(=C1[H])C([H])([H])C3([H])[N+]([H])(C([H])([H])C([H])([H])C([H])([H])C4([H])[H])C2([H])[H]

$$$$
97:0:1
     RDKit          3D

 35 38  0  0  1  0  0  0  0  0999 V2000
    2.8713   -2.2505   -3.4747 C   0  0  0  0  0  0  0  0  0  0  0  0
    4.1938   -2.2498   -3.7071 C   0  0  0  0  0  0  0  0  0  0  0  0
    5.1809   -3.1551   -2.9754 C   0  0  0  0  0  0  0  0  0  0  0  0
    5.3568   -2.8483   -1.4618 C   0  0  2  0  0  0  0  0  0  0  0  0
    5.8783   -4.0221   -0.6230 C   0  0  0  0  0  0  0  0  0  0  0  0
    5.2632   -3.8902    0.7219 N   0  0  1  0  0  0  0  0  0  0  0  0
    6.0479   -3.0062    1.6357 C   0  0  0  0  0  0  0  0  0  0  0  0
    6.1866   -1.4980    1.2243 C   0  0  0  0  0  0  0  0  0  0  0  0
    4.8830   -0.6747    0.9886 C   0  0  0  0  0  0  0  0  0  0  0  0
    4.0670   -0.9835   -0.3037 C   0  0  0  0  0  0  0  0  0  0  0  0
    4.1080   -2.4567   -0.6696 C   0  0  1  0  0  0  0  0  0  0  0  0
    2.8734   -3.1400   -1.2006 C   0  0  0  0  0  0  0  0  0  0  0  0
    2.3133   -3.0545   -2.4154 C   0  0  0  0  0  0  0  0  0  0  0  0
    2.7850   -4.1962   -0.1231 C   0  0  0  0  0  0  0  0  0  0  0  0
    3.8972   -3.3539    0.5436 C   0  0  1  0  0  0  0  0  0  0  0  0
    2.2196   -1.6357   -4.0753 H   0  0  0  0  0  0  0  0  0  0  0  0
    4.5890   -1.6197   -4.4912 H   0  0  0  0  0  0  0  0  0  0  0  0
    4.8602   -4.1861   -3.1341 H   0  0  0  0  0  0  0  0  0  0  0  0
    6.1454   -3.0694   -3.4722 H   0  0  0  0  0  0  0  0  0  0  0  0
    6.0819   -2.0400   -1.4248 H   0  0  0  0  0  0  0  0  0  0  0  0
    5.5231   -4.9647   -1.0428 H   0  0  0  0  0  0  0  0  0  0  0  0
    6.9700   -4.0525   -0.5928 H   0  0  0  0  0  0  0  0  0  0  0  0
    5.6152   -3.0631    2.6374 H   0  0  0  0  0  0  0  0  0  0  0  0
    7.0530   -3.4254    1.7092 H   0  0  0  0  0  0  0  0  0  0  0  0
    6.7019   -1.0202    2.0587 H   0  0  0  0  0  0  0  0  0  0  0  0
    6.8832   -1.3701    0.3952 H   0  0  0  0  0  0  0  0  0  0  0  0
    4.2458   -0.7961    1.8689 H   0  0  0  0  0  0  0  0  0  0  0  0
    5.1385    0.3871    0.9737 H   0  0  0  0  0  0  0  0  0  0  0  0
    3.0376   -0.6690   -0.1337 H   0  0  0  0  0  0  0  0  0  0  0  0
    4.4339   -0.3736   -1.1271 H   0  0  0  0  0  0  0  0  0  0  0  0
    1.5122   -3.7401   -2.6583 H   0  0  0  0  0  0  0  0  0  0  0  0
    1.8700   -4.2079    0.4660 H   0  0  0  0  0  0  0  0  0  0  0  0
    3.0957   -5.2126   -0.3660 H   0  0  0  0  0  0  0  0  0  0  0  0
    3.4909   -2.8665    1.4344 H   0  0  0  0  0  0  0  0  0  0  0  0
    5.2169   -4.8051    1.1510 H   0  0  0  0  0  0  0  0  0  0  0  0
  1 13  1  0
  1  2  2  0
  1 16  1  0
  2  3  1  0
  2 17  1  0
  3  4  1  0
  3 18  1  0
  3 19  1  0
  4 11  1  0
  4  5  1  0
  4 20  1  6
  5  6  1  0
  5 21  1  0
  5 22  1  0
  6 15  1  0
  6  7  1  0
  6 35  1  1
  7  8  1  0
  7 23  1  0
  7 24  1  0
  8  9  1  0
  8 25  1  0
  8 26  1  0
  9 10  1  0
  9 27  1  0
  9 28  1  0
 11 10  1  1
 10 29  1  0
 10 30  1  0
 11 15  1  0
 11 12  1  0
 12 13  2  0
 12 14  1  0
 13 31  1  0
 14 15  1  0
 14 32  1  0
 14 33  1  0
 15 34  1  1
M  CHG  1   6   1
M  END
>  <i_m_ct_stereo_status>  (322) 
1

>  <s_m_source_file>  (322) 
/var/tmp/pbs.5076255.sched01/tmpimq9cq4v/129n8p27m2m.sdf

>  <i_m_source_file_index>  (322) 
14

>  <i_lp_mmshare_version>  (322) 
48012

>  <i_f3d_flags>  (322) 
0

>  <s_epik_input>  (322) 
W0NAXTEyM1tDQEBIXTRbQ0gyXVtDSF09W0NIXVtDSF09QzJbQ0gyXVtDQEhdM04oW0NIMl00KVtDSDJdW0NIMl1bQ0gyXVtDSDJdMQ==

>  <s_epik_cmdline>  (322) 
J2VwaWtfcHl0aG9uJywgJy1waHQnLCAnMi4wJywgJy1waCcsICc3LjAnLCAnLXRuJywgJzgnLCAnLW1hJywgJzIwMCcsICctaW1hZScsICc8aW5maWxlLm1hZT4nLCAnLW9tYWUnLCAnPG91dGZpbGUubWFlPic=

>  <r_epik_Ionization_Penalty>  (322) 
0.000825056

>  <r_epik_Ionization_Penalty_Charging>  (322) 
0.000825056

>  <r_epik_Ionization_Penalty_Neutral>  (322) 
0

>  <r_epik_State_Penalty>  (322) 
0.000530905

>  <r_epik_Charging_Adjusted_Penalty>  (322) 
0.00135596

>  <i_epik_Tot_Q>  (322) 
1

>  <i_epik_Tot_abs_Q>  (322) 
1

>  <s_lp_Force_Field>  (322) 
OPLS3e

>  <r_lp_Energy>  (322) 
43.3279

>  <b_lp_Chiralities_Consistent>  (322) 
1

>  <s_lp_Variant>  (322) 
97:0-1

>  <s_i_glide_gridfile>  (322) 
pfpi4k_grid

>  <i_i_glide_lignum>  (322) 
14

>  <i_i_glide_rotatable_bonds>  (322) 
0

>  <r_i_docking_score>  (322) 
-4.32095

>  <r_i_glide_ligand_efficiency>  (322) 
-0.288063

>  <r_i_glide_ligand_efficiency_sa>  (322) 
-0.710425

>  <r_i_glide_ligand_efficiency_ln>  (322) 
-1.16529

>  <r_i_glide_gscore>  (322) 
-4.32095

>  <r_i_glide_lipo>  (322) 
-1.07041

>  <r_i_glide_hbond>  (322) 
0

>  <r_i_glide_metal>  (322) 
-0

>  <r_i_glide_rewards>  (322) 
-2.02967

>  <r_i_glide_evdw>  (322) 
-21.4953

>  <r_i_glide_ecoul>  (322) 
-0.974017

>  <r_i_glide_erotb>  (322) 
0

>  <r_i_glide_esite>  (322) 
0

>  <r_i_glide_emodel>  (322) 
-28.7122

>  <r_i_glide_energy>  (322) 
-22.4693

>  <r_i_glide_einternal>  (322) 
0

>  <r_i_glide_intrahb_reward>  (322) 
-0

>  <i_i_glide_confnum>  (322) 
1

>  <i_i_glide_posenum>  (322) 
15

>  <r_i_glide_eff_state_penalty>  (322) 
0

>  <ligand_id>  (322) 
97

>  <original_smiles>  (322) 
C1=CCC2CN3CCCCC24C(=C1)CC34

>  <smiles>  (322) 
[H]C1=C([H])C([H])([H])C2([H])C34C(=C1[H])C([H])([H])C3([H])[N+]([H])(C([H])([H])C([H])([H])C([H])([H])C4([H])[H])C2([H])[H]

$$$$
97:0:2
     RDKit          3D

 35 38  0  0  1  0  0  0  0  0999 V2000
    4.6121   -3.4732   -3.4473 C   0  0  0  0  0  0  0  0  0  0  0  0
    3.6110   -2.5891   -3.3069 C   0  0  0  0  0  0  0  0  0  0  0  0
    3.6485   -1.4237   -2.3218 C   0  0  0  0  0  0  0  0  0  0  0  0
    3.6599   -1.8191   -0.8194 C   0  0  2  0  0  0  0  0  0  0  0  0
    4.2070   -0.7535    0.1341 C   0  0  0  0  0  0  0  0  0  0  0  0
    4.8560   -1.4910    1.2543 N   0  0  1  0  0  0  0  0  0  0  0  0
    3.8982   -1.8251    2.3577 C   0  0  0  0  0  0  0  0  0  0  0  0
    2.7219   -2.7941    2.0008 C   0  0  0  0  0  0  0  0  0  0  0  0
    3.0695   -4.2009    1.4154 C   0  0  0  0  0  0  0  0  0  0  0  0
    3.5821   -4.2570   -0.0596 C   0  0  0  0  0  0  0  0  0  0  0  0
    4.4537   -3.0562   -0.4045 C   0  0  1  0  0  0  0  0  0  0  0  0
    5.6798   -3.2287   -1.2624 C   0  0  0  0  0  0  0  0  0  0  0  0
    5.7696   -3.4241   -2.5850 C   0  0  0  0  0  0  0  0  0  0  0  0
    6.6722   -2.6854   -0.2553 C   0  0  0  0  0  0  0  0  0  0  0  0
    5.4534   -2.7301    0.6998 C   0  0  1  0  0  0  0  0  0  0  0  0
    4.5491   -4.2508   -4.1888 H   0  0  0  0  0  0  0  0  0  0  0  0
    2.7396   -2.6658   -3.9435 H   0  0  0  0  0  0  0  0  0  0  0  0
    4.5181   -0.8123   -2.5715 H   0  0  0  0  0  0  0  0  0  0  0  0
    2.7807   -0.7984   -2.5225 H   0  0  0  0  0  0  0  0  0  0  0  0
    2.6203   -1.9892   -0.5730 H   0  0  0  0  0  0  0  0  0  0  0  0
    4.9927   -0.1905   -0.3664 H   0  0  0  0  0  0  0  0  0  0  0  0
    3.4474   -0.0480    0.4757 H   0  0  0  0  0  0  0  0  0  0  0  0
    4.4671   -2.2431    3.1899 H   0  0  0  0  0  0  0  0  0  0  0  0
    3.4685   -0.8920    2.7292 H   0  0  0  0  0  0  0  0  0  0  0  0
    2.2077   -2.9747    2.9429 H   0  0  0  0  0  0  0  0  0  0  0  0
    1.9627   -2.2951    1.3950 H   0  0  0  0  0  0  0  0  0  0  0  0
    3.7980   -4.6692    2.0800 H   0  0  0  0  0  0  0  0  0  0  0  0
    2.1836   -4.8355    1.4888 H   0  0  0  0  0  0  0  0  0  0  0  0
    4.1403   -5.1825   -0.1902 H   0  0  0  0  0  0  0  0  0  0  0  0
    2.7374   -4.3246   -0.7439 H   0  0  0  0  0  0  0  0  0  0  0  0
    6.7425   -3.3624   -3.0455 H   0  0  0  0  0  0  0  0  0  0  0  0
    7.4640   -3.3676    0.0527 H   0  0  0  0  0  0  0  0  0  0  0  0
    7.0660   -1.6830   -0.4164 H   0  0  0  0  0  0  0  0  0  0  0  0
    5.6132   -3.5137    1.4431 H   0  0  0  0  0  0  0  0  0  0  0  0
    5.5834   -0.9092    1.6507 H   0  0  0  0  0  0  0  0  0  0  0  0
  1 13  1  0
  1  2  2  0
  1 16  1  0
  2  3  1  0
  2 17  1  0
  3  4  1  0
  3 18  1  0
  3 19  1  0
  4 11  1  0
  4  5  1  0
  4 20  1  1
  5  6  1  0
  5 21  1  0
  5 22  1  0
  6 15  1  0
  6  7  1  0
  6 35  1  1
  7  8  1  0
  7 23  1  0
  7 24  1  0
  8  9  1  0
  8 25  1  0
  8 26  1  0
  9 10  1  0
  9 27  1  0
  9 28  1  0
 11 10  1  1
 10 29  1  0
 10 30  1  0
 11 15  1  0
 11 12  1  0
 12 13  2  0
 12 14  1  0
 13 31  1  0
 14 15  1  0
 14 32  1  0
 14 33  1  0
 15 34  1  1
M  CHG  1   6   1
M  END
>  <i_m_ct_stereo_status>  (323) 
1

>  <s_m_source_file>  (323) 
/var/tmp/pbs.5076255.sched01/tmpimq9cq4v/129n8p27m2m.sdf

>  <i_m_source_file_index>  (323) 
14

>  <i_lp_mmshare_version>  (323) 
48012

>  <i_f3d_flags>  (323) 
0

>  <s_epik_input>  (323) 
W0NAXTEyM1tDQEBIXTRbQ0gyXVtDSF09W0NIXVtDSF09QzJbQ0gyXVtDQEhdM04oW0NIMl00KVtDSDJdW0NIMl1bQ0gyXVtDSDJdMQ==

>  <s_epik_cmdline>  (323) 
J2VwaWtfcHl0aG9uJywgJy1waHQnLCAnMi4wJywgJy1waCcsICc3LjAnLCAnLXRuJywgJzgnLCAnLW1hJywgJzIwMCcsICctaW1hZScsICc8aW5maWxlLm1hZT4nLCAnLW9tYWUnLCAnPG91dGZpbGUubWFlPic=

>  <r_epik_Ionization_Penalty>  (323) 
0.000825056

>  <r_epik_Ionization_Penalty_Charging>  (323) 
0.000825056

>  <r_epik_Ionization_Penalty_Neutral>  (323) 
0

>  <r_epik_State_Penalty>  (323) 
0.000530905

>  <r_epik_Charging_Adjusted_Penalty>  (323) 
0.00135596

>  <i_epik_Tot_Q>  (323) 
1

>  <i_epik_Tot_abs_Q>  (323) 
1

>  <s_lp_Force_Field>  (323) 
OPLS3e

>  <r_lp_Energy>  (323) 
43.3279

>  <b_lp_Chiralities_Consistent>  (323) 
1

>  <s_lp_Variant>  (323) 
97:0-1

>  <s_i_glide_gridfile>  (323) 
pfpi4k_grid

>  <i_i_glide_lignum>  (323) 
14

>  <i_i_glide_rotatable_bonds>  (323) 
0

>  <r_i_docking_score>  (323) 
-4.29235

>  <r_i_glide_ligand_efficiency>  (323) 
-0.286157

>  <r_i_glide_ligand_efficiency_sa>  (323) 
-0.705723

>  <r_i_glide_ligand_efficiency_ln>  (323) 
-1.15758

>  <r_i_glide_gscore>  (323) 
-4.29235

>  <r_i_glide_lipo>  (323) 
-0.778903

>  <r_i_glide_hbond>  (323) 
0

>  <r_i_glide_metal>  (323) 
-0

>  <r_i_glide_rewards>  (323) 
-2.02967

>  <r_i_glide_evdw>  (323) 
-21.1014

>  <r_i_glide_ecoul>  (323) 
-2.85805

>  <r_i_glide_erotb>  (323) 
0

>  <r_i_glide_esite>  (323) 
0

>  <r_i_glide_emodel>  (323) 
-30.1753

>  <r_i_glide_energy>  (323) 
-23.9594

>  <r_i_glide_einternal>  (323) 
0

>  <r_i_glide_intrahb_reward>  (323) 
-0

>  <i_i_glide_confnum>  (323) 
1

>  <i_i_glide_posenum>  (323) 
37

>  <r_i_glide_eff_state_penalty>  (323) 
0

>  <ligand_id>  (323) 
97

>  <original_smiles>  (323) 
C1=CCC2CN3CCCCC24C(=C1)CC34

>  <smiles>  (323) 
[H]C1=C([H])C([H])([H])C2([H])C34C(=C1[H])C([H])([H])C3([H])[N+]([H])(C([H])([H])C([H])([H])C([H])([H])C4([H])[H])C2([H])[H]

$$$$
99:0:0
     RDKit          3D

 38 40  0  0  1  0  0  0  0  0999 V2000
    4.5610   -7.4319    0.9695 C   0  0  0  0  0  0  0  0  0  0  0  0
    3.9308   -6.0361    0.9728 C   0  0  0  0  0  0  0  0  0  0  0  0
    2.4179   -6.0620    1.2372 C   0  0  0  0  0  0  0  0  0  0  0  0
    4.2210   -5.3368   -0.3165 N   0  0  0  0  0  0  0  0  0  0  0  0
    4.5219   -3.8750   -0.3010 C   0  0  1  0  0  0  0  0  0  0  0  0
    5.8929   -3.6583   -0.9836 C   0  0  0  0  0  0  0  0  0  0  0  0
    6.2385   -2.1602   -1.0323 C   0  0  2  0  0  0  0  0  0  0  0  0
    6.2868   -1.5762    0.3938 C   0  0  0  0  0  0  0  0  0  0  0  0
    4.9063   -1.7501    1.0492 C   0  0  1  0  0  0  0  0  0  0  0  0
    3.8229   -1.0306    0.2237 C   0  0  0  0  0  0  0  0  0  0  0  0
    3.7939   -1.6187   -1.2000 C   0  0  1  0  0  0  0  0  0  0  0  0
    5.1682   -1.4206   -1.8639 C   0  0  0  0  0  0  0  0  0  0  0  0
    3.4582   -3.1257   -1.1461 C   0  0  0  0  0  0  0  0  0  0  0  0
    4.5826   -3.2455    1.1215 C   0  0  0  0  0  0  0  0  0  0  0  0
    4.3998   -7.9118    1.9330 H   0  0  0  0  0  0  0  0  0  0  0  0
    5.6381   -7.3417    0.8497 H   0  0  0  0  0  0  0  0  0  0  0  0
    4.1866   -8.0915    0.1842 H   0  0  0  0  0  0  0  0  0  0  0  0
    4.4198   -5.5449    1.8141 H   0  0  0  0  0  0  0  0  0  0  0  0
    2.2041   -6.5095    2.2053 H   0  0  0  0  0  0  0  0  0  0  0  0
    1.8646   -6.6267    0.4852 H   0  0  0  0  0  0  0  0  0  0  0  0
    2.0099   -5.0532    1.2532 H   0  0  0  0  0  0  0  0  0  0  0  0
    5.0140   -5.8026   -0.7293 H   0  0  0  0  0  0  0  0  0  0  0  0
    6.6813   -4.1912   -0.4473 H   0  0  0  0  0  0  0  0  0  0  0  0
    5.8846   -4.0492   -2.0018 H   0  0  0  0  0  0  0  0  0  0  0  0
    7.2161   -2.0469   -1.5041 H   0  0  0  0  0  0  0  0  0  0  0  0
    7.0347   -2.1066    0.9848 H   0  0  0  0  0  0  0  0  0  0  0  0
    6.5804   -0.5245    0.3910 H   0  0  0  0  0  0  0  0  0  0  0  0
    4.9188   -1.3412    2.0562 H   0  0  0  0  0  0  0  0  0  0  0  0
    2.8438   -1.1530    0.6912 H   0  0  0  0  0  0  0  0  0  0  0  0
    4.0207    0.0430    0.1983 H   0  0  0  0  0  0  0  0  0  0  0  0
    3.0347   -1.0918   -1.7864 H   0  0  0  0  0  0  0  0  0  0  0  0
    5.3964   -0.3560   -1.9274 H   0  0  0  0  0  0  0  0  0  0  0  0
    5.1491   -1.8070   -2.8846 H   0  0  0  0  0  0  0  0  0  0  0  0
    3.4134   -3.5245   -2.1617 H   0  0  0  0  0  0  0  0  0  0  0  0
    2.4607   -3.2609   -0.7229 H   0  0  0  0  0  0  0  0  0  0  0  0
    3.6353   -3.3524    1.6509 H   0  0  0  0  0  0  0  0  0  0  0  0
    5.3469   -3.7329    1.7324 H   0  0  0  0  0  0  0  0  0  0  0  0
    3.4645   -5.5076   -0.9694 H   0  0  0  0  0  0  0  0  0  0  0  0
  1  2  1  0
  1 15  1  0
  1 16  1  0
  1 17  1  0
  2  3  1  0
  2  4  1  0
  2 18  1  0
  3 19  1  0
  3 20  1  0
  3 21  1  0
  5  4  1  1
  4 22  1  0
  4 38  1  0
  5 13  1  0
  5 14  1  0
  5  6  1  0
  6  7  1  0
  6 23  1  0
  6 24  1  0
  7 12  1  0
  7  8  1  0
  7 25  1  6
  8  9  1  0
  8 26  1  0
  8 27  1  0
  9 10  1  0
  9 14  1  0
  9 28  1  1
 10 11  1  0
 10 29  1  0
 10 30  1  0
 11 12  1  0
 11 13  1  0
 11 31  1  6
 12 32  1  0
 12 33  1  0
 13 34  1  0
 13 35  1  0
 14 36  1  0
 14 37  1  0
M  CHG  1   4   1
M  END
>  <i_m_ct_stereo_status>  (324) 
1

>  <s_m_source_file>  (324) 
/var/tmp/pbs.5076255.sched01/tmpimq9cq4v/129n8p27m2m.sdf

>  <i_m_source_file_index>  (324) 
16

>  <i_lp_mmshare_version>  (324) 
48012

>  <i_f3d_flags>  (324) 
0

>  <s_epik_input>  (324) 
W0NIM11bQ0hdKFtDSDNdKVtOSF1DMTJbQ0gyXVtDQEhdM1tDSDJdW0NAQEhdKFtDSDJdMilbQ0gyXVtDQEhdKFtDSDJdMylbQ0gyXTE=

>  <s_epik_cmdline>  (324) 
J2VwaWtfcHl0aG9uJywgJy1waHQnLCAnMi4wJywgJy1waCcsICc3LjAnLCAnLXRuJywgJzgnLCAnLW1hJywgJzIwMCcsICctaW1hZScsICc8aW5maWxlLm1hZT4nLCAnLW9tYWUnLCAnPG91dGZpbGUubWFlPic=

>  <r_lp_tautomer_probability>  (324) 
1

>  <r_epik_Ionization_Penalty>  (324) 
5.08465e-05

>  <r_epik_Ionization_Penalty_Charging>  (324) 
5.08465e-05

>  <r_epik_Ionization_Penalty_Neutral>  (324) 
0

>  <r_epik_State_Penalty>  (324) 
-0

>  <r_epik_Charging_Adjusted_Penalty>  (324) 
5.08465e-05

>  <i_epik_Tot_Q>  (324) 
1

>  <i_epik_Tot_abs_Q>  (324) 
1

>  <s_lp_Force_Field>  (324) 
OPLS3e

>  <r_lp_Energy>  (324) 
10.8557

>  <b_lp_Chiralities_Consistent>  (324) 
1

>  <s_lp_Variant>  (324) 
99:0-1

>  <s_i_glide_gridfile>  (324) 
pfpi4k_grid

>  <i_i_glide_lignum>  (324) 
16

>  <i_i_glide_rotatable_bonds>  (324) 
2

>  <r_i_docking_score>  (324) 
-4.08859

>  <r_i_glide_ligand_efficiency>  (324) 
-0.292042

>  <r_i_glide_ligand_efficiency_sa>  (324) 
-0.703863

>  <r_i_glide_ligand_efficiency_ln>  (324) 
-1.12353

>  <r_i_glide_gscore>  (324) 
-4.08859

>  <r_i_glide_lipo>  (324) 
-0.380166

>  <r_i_glide_hbond>  (324) 
0

>  <r_i_glide_metal>  (324) 
-0

>  <r_i_glide_rewards>  (324) 
-2.08407

>  <r_i_glide_evdw>  (324) 
-18.6549

>  <r_i_glide_ecoul>  (324) 
-4.35884

>  <r_i_glide_erotb>  (324) 
0

>  <r_i_glide_esite>  (324) 
-0.0377823

>  <r_i_glide_emodel>  (324) 
-21.9536

>  <r_i_glide_energy>  (324) 
-23.0137

>  <r_i_glide_einternal>  (324) 
13.1617

>  <r_i_glide_intrahb_reward>  (324) 
-0

>  <i_i_glide_confnum>  (324) 
1

>  <i_i_glide_posenum>  (324) 
34

>  <r_i_glide_eff_state_penalty>  (324) 
0

>  <ligand_id>  (324) 
99

>  <original_smiles>  (324) 
CC(C)NC12CC3CC(CC(C3)C1)C2

>  <smiles>  (324) 
[H]C([H])([H])C([H])(C([H])([H])[H])[N+]([H])([H])C12C([H])([H])C3([H])C([H])([H])C([H])(C([H])([H])C([H])(C3([H])[H])C1([H])[H])C2([H])[H]

$$$$
99:0:1
     RDKit          3D

 38 40  0  0  1  0  0  0  0  0999 V2000
    4.1344    0.3037   -3.6910 C   0  0  0  0  0  0  0  0  0  0  0  0
    3.1929   -0.6569   -4.3688 C   0  0  0  0  0  0  0  0  0  0  0  0
    2.0679    0.1482   -4.9915 C   0  0  0  0  0  0  0  0  0  0  0  0
    2.6480   -1.7162   -3.4344 N   0  0  0  0  0  0  0  0  0  0  0  0
    3.5188   -2.2460   -2.3580 C   0  0  1  0  0  0  0  0  0  0  0  0
    3.8525   -1.1901   -1.2670 C   0  0  0  0  0  0  0  0  0  0  0  0
    4.7878   -1.7026   -0.2135 C   0  0  2  0  0  0  0  0  0  0  0  0
    6.0702   -2.2645   -0.8837 C   0  0  0  0  0  0  0  0  0  0  0  0
    5.6918   -3.4175   -1.8343 C   0  0  1  0  0  0  0  0  0  0  0  0
    4.9331   -4.4998   -1.0439 C   0  0  0  0  0  0  0  0  0  0  0  0
    3.6394   -3.9039   -0.4452 C   0  0  1  0  0  0  0  0  0  0  0  0
    4.0017   -2.7749    0.5367 C   0  0  0  0  0  0  0  0  0  0  0  0
    2.7473   -3.3549   -1.5832 C   0  0  0  0  0  0  0  0  0  0  0  0
    4.7936   -2.8907   -2.9621 C   0  0  0  0  0  0  0  0  0  0  0  0
    4.5869    1.1032   -4.2976 H   0  0  0  0  0  0  0  0  0  0  0  0
    5.0362   -0.2476   -3.3531 H   0  0  0  0  0  0  0  0  0  0  0  0
    3.6656    0.8102   -2.8767 H   0  0  0  0  0  0  0  0  0  0  0  0
    3.7540   -1.1552   -5.1520 H   0  0  0  0  0  0  0  0  0  0  0  0
    2.4092    0.9237   -5.6682 H   0  0  0  0  0  0  0  0  0  0  0  0
    1.4784    0.6580   -4.2292 H   0  0  0  0  0  0  0  0  0  0  0  0
    1.3596   -0.4840   -5.5118 H   0  0  0  0  0  0  0  0  0  0  0  0
    1.8243   -1.3489   -2.9843 H   0  0  0  0  0  0  0  0  0  0  0  0
    4.4843   -0.3592   -1.5143 H   0  0  0  0  0  0  0  0  0  0  0  0
    2.9651   -0.6833   -0.9090 H   0  0  0  0  0  0  0  0  0  0  0  0
    5.0593   -0.8671    0.4344 H   0  0  0  0  0  0  0  0  0  0  0  0
    6.5911   -1.4829   -1.4447 H   0  0  0  0  0  0  0  0  0  0  0  0
    6.7726   -2.6011   -0.1270 H   0  0  0  0  0  0  0  0  0  0  0  0
    6.5967   -3.8401   -2.2726 H   0  0  0  0  0  0  0  0  0  0  0  0
    4.6850   -5.3285   -1.7012 H   0  0  0  0  0  0  0  0  0  0  0  0
    5.5621   -4.9211   -0.2645 H   0  0  0  0  0  0  0  0  0  0  0  0
    3.0905   -4.6741    0.0903 H   0  0  0  0  0  0  0  0  0  0  0  0
    4.5993   -3.1305    1.3737 H   0  0  0  0  0  0  0  0  0  0  0  0
    3.0985   -2.3243    0.9530 H   0  0  0  0  0  0  0  0  0  0  0  0
    1.8234   -2.9587   -1.1696 H   0  0  0  0  0  0  0  0  0  0  0  0
    2.4414   -4.1492   -2.2557 H   0  0  0  0  0  0  0  0  0  0  0  0
    4.5325   -3.6835   -3.6645 H   0  0  0  0  0  0  0  0  0  0  0  0
    5.3591   -2.1887   -3.5595 H   0  0  0  0  0  0  0  0  0  0  0  0
    2.3558   -2.5011   -4.0109 H   0  0  0  0  0  0  0  0  0  0  0  0
  1  2  1  0
  1 15  1  0
  1 16  1  0
  1 17  1  0
  2  3  1  0
  2  4  1  0
  2 18  1  0
  3 19  1  0
  3 20  1  0
  3 21  1  0
  5  4  1  6
  4 22  1  0
  4 38  1  0
  5 13  1  0
  5 14  1  0
  5  6  1  0
  6  7  1  0
  6 23  1  0
  6 24  1  0
  7 12  1  0
  7  8  1  0
  7 25  1  1
  8  9  1  0
  8 26  1  0
  8 27  1  0
  9 10  1  0
  9 14  1  0
  9 28  1  6
 10 11  1  0
 10 29  1  0
 10 30  1  0
 11 12  1  0
 11 13  1  0
 11 31  1  1
 12 32  1  0
 12 33  1  0
 13 34  1  0
 13 35  1  0
 14 36  1  0
 14 37  1  0
M  CHG  1   4   1
M  END
>  <i_m_ct_stereo_status>  (325) 
1

>  <s_m_source_file>  (325) 
/var/tmp/pbs.5076255.sched01/tmpimq9cq4v/129n8p27m2m.sdf

>  <i_m_source_file_index>  (325) 
16

>  <i_lp_mmshare_version>  (325) 
48012

>  <i_f3d_flags>  (325) 
0

>  <s_epik_input>  (325) 
W0NIM11bQ0hdKFtDSDNdKVtOSF1DMTJbQ0gyXVtDQEhdM1tDSDJdW0NAQEhdKFtDSDJdMilbQ0gyXVtDQEhdKFtDSDJdMylbQ0gyXTE=

>  <s_epik_cmdline>  (325) 
J2VwaWtfcHl0aG9uJywgJy1waHQnLCAnMi4wJywgJy1waCcsICc3LjAnLCAnLXRuJywgJzgnLCAnLW1hJywgJzIwMCcsICctaW1hZScsICc8aW5maWxlLm1hZT4nLCAnLW9tYWUnLCAnPG91dGZpbGUubWFlPic=

>  <r_lp_tautomer_probability>  (325) 
1

>  <r_epik_Ionization_Penalty>  (325) 
5.08465e-05

>  <r_epik_Ionization_Penalty_Charging>  (325) 
5.08465e-05

>  <r_epik_Ionization_Penalty_Neutral>  (325) 
0

>  <r_epik_State_Penalty>  (325) 
-0

>  <r_epik_Charging_Adjusted_Penalty>  (325) 
5.08465e-05

>  <i_epik_Tot_Q>  (325) 
1

>  <i_epik_Tot_abs_Q>  (325) 
1

>  <s_lp_Force_Field>  (325) 
OPLS3e

>  <r_lp_Energy>  (325) 
10.8557

>  <b_lp_Chiralities_Consistent>  (325) 
1

>  <s_lp_Variant>  (325) 
99:0-1

>  <s_i_glide_gridfile>  (325) 
pfpi4k_grid

>  <i_i_glide_lignum>  (325) 
16

>  <i_i_glide_rotatable_bonds>  (325) 
2

>  <r_i_docking_score>  (325) 
-3.20964

>  <r_i_glide_ligand_efficiency>  (325) 
-0.22926

>  <r_i_glide_ligand_efficiency_sa>  (325) 
-0.55255

>  <r_i_glide_ligand_efficiency_ln>  (325) 
-0.881999

>  <r_i_glide_gscore>  (325) 
-3.20964

>  <r_i_glide_lipo>  (325) 
-0.653889

>  <r_i_glide_hbond>  (325) 
-0.00898677

>  <r_i_glide_metal>  (325) 
-0

>  <r_i_glide_rewards>  (325) 
-2.08407

>  <r_i_glide_evdw>  (325) 
-3.73934

>  <r_i_glide_ecoul>  (325) 
-2.30723

>  <r_i_glide_erotb>  (325) 
0

>  <r_i_glide_esite>  (325) 
0

>  <r_i_glide_emodel>  (325) 
-5.64853

>  <r_i_glide_energy>  (325) 
-6.04657

>  <r_i_glide_einternal>  (325) 
1.80747

>  <r_i_glide_intrahb_reward>  (325) 
-0

>  <i_i_glide_confnum>  (325) 
2

>  <i_i_glide_posenum>  (325) 
11

>  <r_i_glide_eff_state_penalty>  (325) 
0

>  <ligand_id>  (325) 
99

>  <original_smiles>  (325) 
CC(C)NC12CC3CC(CC(C3)C1)C2

>  <smiles>  (325) 
[H]C([H])([H])C([H])(C([H])([H])[H])[N+]([H])([H])C12C([H])([H])C3([H])C([H])([H])C([H])(C([H])([H])C([H])(C3([H])[H])C1([H])[H])C2([H])[H]

$$$$
100:0:0
     RDKit          3D

 47 51  0  0  1  0  0  0  0  0999 V2000
    6.3528   -3.4920   -0.3550 C   0  0  0  0  0  0  0  0  0  0  0  0
    4.8893   -3.2549    0.0609 C   0  0  1  0  0  0  0  0  0  0  0  0
    3.9927   -4.4974   -0.1070 C   0  0  0  0  0  0  0  0  0  0  0  0
    4.3001   -5.5916    0.9270 C   0  0  0  0  0  0  0  0  0  0  0  0
    4.1882   -5.0940    2.3900 C   0  0  2  0  0  0  0  0  0  0  0  0
    2.7195   -4.8962    2.8814 C   0  0  1  0  0  0  0  0  0  0  0  0
    1.9119   -6.2175    2.7798 C   0  0  0  0  0  0  0  0  0  0  0  0
    0.6472   -6.2443    3.6505 C   0  0  0  0  0  0  0  0  0  0  0  0
    0.9593   -5.8582    5.0905 C   0  0  0  0  0  0  0  0  0  0  0  0
    0.3689   -6.4190    6.0088 O   0  0  0  0  0  0  0  0  0  0  0  0
    1.9129   -4.7665    5.3005 C   0  0  0  0  0  0  0  0  0  0  0  0
    2.6828   -4.2995    4.2991 C   0  0  0  0  0  0  0  0  0  0  0  0
    3.5646   -3.0849    4.5131 C   0  0  0  0  0  0  0  0  0  0  0  0
    5.0010   -3.3447    4.0558 C   0  0  0  0  0  0  0  0  0  0  0  0
    5.0773   -3.8342    2.5948 C   0  0  2  0  0  0  0  0  0  0  0  0
    4.8091   -2.7908    1.5102 C   0  0  0  0  0  0  0  0  0  0  0  0
    4.4203   -1.5091    1.6178 C   0  0  0  0  0  0  0  0  0  0  0  0
    4.1432   -1.0016    0.2948 C   0  0  0  0  0  0  0  0  0  0  0  0
    4.3602   -1.9887   -0.5927 C   0  0  0  0  0  0  0  0  0  0  0  0
    4.1723   -1.8733   -1.9948 N   0  0  0  0  0  0  0  0  0  0  0  0
    4.2087   -2.7769   -2.9818 C   0  0  0  0  0  0  0  0  0  0  0  0
    3.9778   -2.2752   -4.1876 N   0  0  0  0  0  0  0  0  0  0  0  0
    3.7939   -0.9665   -3.8579 C   0  0  0  0  0  0  0  0  0  0  0  0
    3.9261   -0.6659   -2.5676 N   0  0  0  0  0  0  0  0  0  0  0  0
    6.9432   -2.5904   -0.2064 H   0  0  0  0  0  0  0  0  0  0  0  0
    6.4287   -3.7624   -1.4054 H   0  0  0  0  0  0  0  0  0  0  0  0
    6.8278   -4.2818    0.2215 H   0  0  0  0  0  0  0  0  0  0  0  0
    2.9429   -4.2125   -0.0339 H   0  0  0  0  0  0  0  0  0  0  0  0
    4.1287   -4.9423   -1.0866 H   0  0  0  0  0  0  0  0  0  0  0  0
    3.6697   -6.4622    0.7488 H   0  0  0  0  0  0  0  0  0  0  0  0
    5.3172   -5.9480    0.7569 H   0  0  0  0  0  0  0  0  0  0  0  0
    4.6170   -5.8827    3.0151 H   0  0  0  0  0  0  0  0  0  0  0  0
    2.2378   -4.1564    2.2456 H   0  0  0  0  0  0  0  0  0  0  0  0
    1.6224   -6.4028    1.7447 H   0  0  0  0  0  0  0  0  0  0  0  0
    2.5377   -7.0650    3.0695 H   0  0  0  0  0  0  0  0  0  0  0  0
   -0.0926   -5.5410    3.2714 H   0  0  0  0  0  0  0  0  0  0  0  0
    0.1959   -7.2362    3.6367 H   0  0  0  0  0  0  0  0  0  0  0  0
    1.9403   -4.3047    6.2783 H   0  0  0  0  0  0  0  0  0  0  0  0
    3.1315   -2.2507    3.9675 H   0  0  0  0  0  0  0  0  0  0  0  0
    3.5697   -2.8089    5.5658 H   0  0  0  0  0  0  0  0  0  0  0  0
    5.6241   -2.4622    4.2019 H   0  0  0  0  0  0  0  0  0  0  0  0
    5.4295   -4.1278    4.6893 H   0  0  0  0  0  0  0  0  0  0  0  0
    6.1125   -4.1411    2.4354 H   0  0  0  0  0  0  0  0  0  0  0  0
    4.2555   -0.9648    2.5376 H   0  0  0  0  0  0  0  0  0  0  0  0
    3.7779   -0.0134    0.0795 H   0  0  0  0  0  0  0  0  0  0  0  0
    4.4143   -3.8261   -2.8426 H   0  0  0  0  0  0  0  0  0  0  0  0
    3.5875   -0.2194   -4.6101 H   0  0  0  0  0  0  0  0  0  0  0  0
  2  1  1  6
  1 25  1  0
  1 26  1  0
  1 27  1  0
  2 16  1  0
  2 19  1  0
  2  3  1  0
  3  4  1  0
  3 28  1  0
  3 29  1  0
  4  5  1  0
  4 30  1  0
  4 31  1  0
  5 15  1  0
  5  6  1  0
  5 32  1  1
  6 12  1  0
  6  7  1  0
  6 33  1  6
  7  8  1  0
  7 34  1  0
  7 35  1  0
  8  9  1  0
  8 36  1  0
  8 37  1  0
  9 10  2  0
  9 11  1  0
 11 12  2  0
 11 38  1  0
 12 13  1  0
 13 14  1  0
 13 39  1  0
 13 40  1  0
 14 15  1  0
 14 41  1  0
 14 42  1  0
 15 16  1  0
 15 43  1  6
 16 17  2  0
 17 18  1  0
 17 44  1  0
 18 19  2  0
 18 45  1  0
 19 20  1  0
 20 24  1  0
 20 21  1  0
 21 22  2  0
 21 46  1  0
 22 23  1  0
 23 24  2  0
 23 47  1  0
M  END
>  <i_m_ct_stereo_status>  (326) 
1

>  <s_m_source_file>  (326) 
/var/tmp/pbs.5076255.sched01/tmpimq9cq4v/129n8p27m2m.sdf

>  <i_m_source_file_index>  (326) 
17

>  <i_lp_mmshare_version>  (326) 
48012

>  <i_f3d_flags>  (326) 
0

>  <s_epik_input>  (326) 
bjFbY0hdbltjSF1uMUMyPVtDSF1bQ0hdPUMoW0NAXTIzW0NIM10pW0NAQEhdNFtDQEhdKFtDSDJdW0NIMl0zKVtDQEBIXTVDKFtDSDJdW0NIMl00KT1bQ0hdQyg9TylbQ0gyXVtDSDJdNQ==

>  <s_epik_cmdline>  (326) 
J2VwaWtfcHl0aG9uJywgJy1waHQnLCAnMi4wJywgJy1waCcsICc3LjAnLCAnLXRuJywgJzgnLCAnLW1hJywgJzIwMCcsICctaW1hZScsICc8aW5maWxlLm1hZT4nLCAnLW9tYWUnLCAnPG91dGZpbGUubWFlPic=

>  <r_lp_tautomer_probability>  (326) 
1

>  <r_epik_Ionization_Penalty>  (326) 
5.8275e-05

>  <r_epik_Ionization_Penalty_Charging>  (326) 
0

>  <r_epik_Ionization_Penalty_Neutral>  (326) 
5.8275e-05

>  <r_epik_State_Penalty>  (326) 
-0

>  <r_epik_Charging_Adjusted_Penalty>  (326) 
0

>  <i_epik_Tot_Q>  (326) 
0

>  <i_epik_Tot_abs_Q>  (326) 
0

>  <s_lp_Force_Field>  (326) 
OPLS3e

>  <r_lp_Energy>  (326) 
20.4379

>  <b_lp_Chiralities_Consistent>  (326) 
1

>  <s_lp_Variant>  (326) 
100:0-1

>  <s_i_glide_gridfile>  (326) 
pfpi4k_grid

>  <i_i_glide_lignum>  (326) 
17

>  <i_i_glide_rotatable_bonds>  (326) 
1

>  <r_i_docking_score>  (326) 
-3.89976

>  <r_i_glide_ligand_efficiency>  (326) 
-0.16249

>  <r_i_glide_ligand_efficiency_sa>  (326) 
-0.468702

>  <r_i_glide_ligand_efficiency_ln>  (326) 
-0.933391

>  <r_i_glide_gscore>  (326) 
-3.89976

>  <r_i_glide_lipo>  (326) 
-0.302919

>  <r_i_glide_hbond>  (326) 
-0.32

>  <r_i_glide_metal>  (326) 
-0

>  <r_i_glide_rewards>  (326) 
-1.59171

>  <r_i_glide_evdw>  (326) 
-27.053

>  <r_i_glide_ecoul>  (326) 
-3.24355

>  <r_i_glide_erotb>  (326) 
0.180879

>  <r_i_glide_esite>  (326) 
-0.0268214

>  <r_i_glide_emodel>  (326) 
-37.3917

>  <r_i_glide_energy>  (326) 
-30.2966

>  <r_i_glide_einternal>  (326) 
0.462294

>  <r_i_glide_intrahb_reward>  (326) 
-0

>  <i_i_glide_confnum>  (326) 
2

>  <i_i_glide_posenum>  (326) 
3

>  <r_i_glide_eff_state_penalty>  (326) 
0

>  <ligand_id>  (326) 
100

>  <original_smiles>  (326) 
CC12CCC3C4CCC(=O)C=C4CCC3C1=CC=C2n1cncn1

>  <smiles>  (326) 
[H]C1=C2C([H])([H])C([H])([H])C3([H])C4=C([H])C([H])=C(n5nc([H])nc5[H])C4(C([H])([H])[H])C([H])([H])C([H])([H])C3([H])C2([H])C([H])([H])C([H])([H])C1=O

$$$$
100:0:1
     RDKit          3D

 47 51  0  0  1  0  0  0  0  0999 V2000
    5.1684   -4.3644    0.4025 C   0  0  0  0  0  0  0  0  0  0  0  0
    4.3122   -3.1540    0.8286 C   0  0  1  0  0  0  0  0  0  0  0  0
    2.8088   -3.4737    0.9450 C   0  0  0  0  0  0  0  0  0  0  0  0
    2.5018   -4.3661    2.1640 C   0  0  0  0  0  0  0  0  0  0  0  0
    2.9917   -3.7614    3.5073 C   0  0  2  0  0  0  0  0  0  0  0  0
    2.1240   -2.5751    4.0341 C   0  0  1  0  0  0  0  0  0  0  0  0
    0.6548   -3.0049    4.2469 C   0  0  0  0  0  0  0  0  0  0  0  0
   -0.1546   -2.0690    5.1534 C   0  0  0  0  0  0  0  0  0  0  0  0
    0.5702   -1.8417    6.4729 C   0  0  0  0  0  0  0  0  0  0  0  0
   -0.0852   -1.7834    7.5131 O   0  0  0  0  0  0  0  0  0  0  0  0
    2.0244   -1.6597    6.4188 C   0  0  0  0  0  0  0  0  0  0  0  0
    2.7276   -1.9518    5.3043 C   0  0  0  0  0  0  0  0  0  0  0  0
    4.2080   -1.6395    5.2268 C   0  0  0  0  0  0  0  0  0  0  0  0
    5.0054   -2.8586    4.7598 C   0  0  0  0  0  0  0  0  0  0  0  0
    4.5026   -3.4186    3.4154 C   0  0  2  0  0  0  0  0  0  0  0  0
    4.8015   -2.5916    2.1605 C   0  0  0  0  0  0  0  0  0  0  0  0
    5.3627   -1.3777    2.0300 C   0  0  0  0  0  0  0  0  0  0  0  0
    5.2521   -0.9643    0.6525 C   0  0  0  0  0  0  0  0  0  0  0  0
    4.6268   -1.9403   -0.0335 C   0  0  0  0  0  0  0  0  0  0  0  0
    4.3218   -1.8950   -1.4183 N   0  0  0  0  0  0  0  0  0  0  0  0
    3.7582   -2.7940   -2.2363 C   0  0  0  0  0  0  0  0  0  0  0  0
    3.6609   -2.4011   -3.4980 N   0  0  0  0  0  0  0  0  0  0  0  0
    4.1713   -1.1450   -3.3764 C   0  0  0  0  0  0  0  0  0  0  0  0
    4.6137   -0.7989   -2.1669 N   0  0  0  0  0  0  0  0  0  0  0  0
    6.2171   -4.0805    0.3325 H   0  0  0  0  0  0  0  0  0  0  0  0
    4.8754   -4.7567   -0.5679 H   0  0  0  0  0  0  0  0  0  0  0  0
    5.1027   -5.1872    1.1082 H   0  0  0  0  0  0  0  0  0  0  0  0
    2.2391   -2.5471    1.0276 H   0  0  0  0  0  0  0  0  0  0  0  0
    2.4454   -3.9638    0.0458 H   0  0  0  0  0  0  0  0  0  0  0  0
    1.4382   -4.5981    2.2062 H   0  0  0  0  0  0  0  0  0  0  0  0
    2.9878   -5.3321    2.0164 H   0  0  0  0  0  0  0  0  0  0  0  0
    2.8988   -4.5564    4.2505 H   0  0  0  0  0  0  0  0  0  0  0  0
    2.1361   -1.7825    3.2876 H   0  0  0  0  0  0  0  0  0  0  0  0
    0.1652   -3.0482    3.2761 H   0  0  0  0  0  0  0  0  0  0  0  0
    0.6048   -4.0144    4.6591 H   0  0  0  0  0  0  0  0  0  0  0  0
   -0.3139   -1.1012    4.6754 H   0  0  0  0  0  0  0  0  0  0  0  0
   -1.1375   -2.4933    5.3601 H   0  0  0  0  0  0  0  0  0  0  0  0
    2.5137   -1.2316    7.2830 H   0  0  0  0  0  0  0  0  0  0  0  0
    4.3425   -0.7996    4.5488 H   0  0  0  0  0  0  0  0  0  0  0  0
    4.5722   -1.3205    6.2017 H   0  0  0  0  0  0  0  0  0  0  0  0
    6.0677   -2.6472    4.7163 H   0  0  0  0  0  0  0  0  0  0  0  0
    4.9053   -3.6445    5.5139 H   0  0  0  0  0  0  0  0  0  0  0  0
    5.0405   -4.3565    3.2662 H   0  0  0  0  0  0  0  0  0  0  0  0
    5.7598   -0.7685    2.8307 H   0  0  0  0  0  0  0  0  0  0  0  0
    5.5806   -0.0154    0.2559 H   0  0  0  0  0  0  0  0  0  0  0  0
    3.4222   -3.7721   -1.9256 H   0  0  0  0  0  0  0  0  0  0  0  0
    4.2473   -0.4834   -4.2270 H   0  0  0  0  0  0  0  0  0  0  0  0
  2  1  1  6
  1 25  1  0
  1 26  1  0
  1 27  1  0
  2 16  1  0
  2 19  1  0
  2  3  1  0
  3  4  1  0
  3 28  1  0
  3 29  1  0
  4  5  1  0
  4 30  1  0
  4 31  1  0
  5 15  1  0
  5  6  1  0
  5 32  1  1
  6 12  1  0
  6  7  1  0
  6 33  1  6
  7  8  1  0
  7 34  1  0
  7 35  1  0
  8  9  1  0
  8 36  1  0
  8 37  1  0
  9 10  2  0
  9 11  1  0
 11 12  2  0
 11 38  1  0
 12 13  1  0
 13 14  1  0
 13 39  1  0
 13 40  1  0
 14 15  1  0
 14 41  1  0
 14 42  1  0
 15 16  1  0
 15 43  1  6
 16 17  2  0
 17 18  1  0
 17 44  1  0
 18 19  2  0
 18 45  1  0
 19 20  1  0
 20 24  1  0
 20 21  1  0
 21 22  2  0
 21 46  1  0
 22 23  1  0
 23 24  2  0
 23 47  1  0
M  END
>  <i_m_ct_stereo_status>  (327) 
1

>  <s_m_source_file>  (327) 
/var/tmp/pbs.5076255.sched01/tmpimq9cq4v/129n8p27m2m.sdf

>  <i_m_source_file_index>  (327) 
17

>  <i_lp_mmshare_version>  (327) 
48012

>  <i_f3d_flags>  (327) 
0

>  <s_epik_input>  (327) 
bjFbY0hdbltjSF1uMUMyPVtDSF1bQ0hdPUMoW0NAXTIzW0NIM10pW0NAQEhdNFtDQEhdKFtDSDJdW0NIMl0zKVtDQEBIXTVDKFtDSDJdW0NIMl00KT1bQ0hdQyg9TylbQ0gyXVtDSDJdNQ==

>  <s_epik_cmdline>  (327) 
J2VwaWtfcHl0aG9uJywgJy1waHQnLCAnMi4wJywgJy1waCcsICc3LjAnLCAnLXRuJywgJzgnLCAnLW1hJywgJzIwMCcsICctaW1hZScsICc8aW5maWxlLm1hZT4nLCAnLW9tYWUnLCAnPG91dGZpbGUubWFlPic=

>  <r_lp_tautomer_probability>  (327) 
1

>  <r_epik_Ionization_Penalty>  (327) 
5.8275e-05

>  <r_epik_Ionization_Penalty_Charging>  (327) 
0

>  <r_epik_Ionization_Penalty_Neutral>  (327) 
5.8275e-05

>  <r_epik_State_Penalty>  (327) 
-0

>  <r_epik_Charging_Adjusted_Penalty>  (327) 
0

>  <i_epik_Tot_Q>  (327) 
0

>  <i_epik_Tot_abs_Q>  (327) 
0

>  <s_lp_Force_Field>  (327) 
OPLS3e

>  <r_lp_Energy>  (327) 
20.4379

>  <b_lp_Chiralities_Consistent>  (327) 
1

>  <s_lp_Variant>  (327) 
100:0-1

>  <s_i_glide_gridfile>  (327) 
pfpi4k_grid

>  <i_i_glide_lignum>  (327) 
17

>  <i_i_glide_rotatable_bonds>  (327) 
1

>  <r_i_docking_score>  (327) 
-3.5886

>  <r_i_glide_ligand_efficiency>  (327) 
-0.149525

>  <r_i_glide_ligand_efficiency_sa>  (327) 
-0.431305

>  <r_i_glide_ligand_efficiency_ln>  (327) 
-0.858916

>  <r_i_glide_gscore>  (327) 
-3.5886

>  <r_i_glide_lipo>  (327) 
-0.422435

>  <r_i_glide_hbond>  (327) 
-0.0327666

>  <r_i_glide_metal>  (327) 
-0

>  <r_i_glide_rewards>  (327) 
-1.43057

>  <r_i_glide_evdw>  (327) 
-25.1189

>  <r_i_glide_ecoul>  (327) 
-3.74114

>  <r_i_glide_erotb>  (327) 
0.180879

>  <r_i_glide_esite>  (327) 
-0.0665843

>  <r_i_glide_emodel>  (327) 
-35.5816

>  <r_i_glide_energy>  (327) 
-28.8601

>  <r_i_glide_einternal>  (327) 
0.0889422

>  <r_i_glide_intrahb_reward>  (327) 
-0

>  <i_i_glide_confnum>  (327) 
4

>  <i_i_glide_posenum>  (327) 
11

>  <r_i_glide_eff_state_penalty>  (327) 
0

>  <ligand_id>  (327) 
100

>  <original_smiles>  (327) 
CC12CCC3C4CCC(=O)C=C4CCC3C1=CC=C2n1cncn1

>  <smiles>  (327) 
[H]C1=C2C([H])([H])C([H])([H])C3([H])C4=C([H])C([H])=C(n5nc([H])nc5[H])C4(C([H])([H])[H])C([H])([H])C([H])([H])C3([H])C2([H])C([H])([H])C([H])([H])C1=O

$$$$
100:0:2
     RDKit          3D

 47 51  0  0  1  0  0  0  0  0999 V2000
    3.3984   -6.5874    4.5138 C   0  0  0  0  0  0  0  0  0  0  0  0
    3.3220   -6.7771    2.9854 C   0  0  1  0  0  0  0  0  0  0  0  0
    2.1959   -5.9551    2.3260 C   0  0  0  0  0  0  0  0  0  0  0  0
    2.5219   -4.4474    2.3204 C   0  0  0  0  0  0  0  0  0  0  0  0
    3.8637   -4.1057    1.6238 C   0  0  2  0  0  0  0  0  0  0  0  0
    3.8293   -4.2143    0.0657 C   0  0  1  0  0  0  0  0  0  0  0  0
    2.7622   -3.2773   -0.5482 C   0  0  0  0  0  0  0  0  0  0  0  0
    2.9554   -2.9754   -2.0410 C   0  0  0  0  0  0  0  0  0  0  0  0
    4.3730   -2.4996   -2.3218 C   0  0  0  0  0  0  0  0  0  0  0  0
    4.5697   -1.6164   -3.1539 O   0  0  0  0  0  0  0  0  0  0  0  0
    5.4599   -3.1674   -1.6020 C   0  0  0  0  0  0  0  0  0  0  0  0
    5.2174   -3.9677   -0.5436 C   0  0  0  0  0  0  0  0  0  0  0  0
    6.3429   -4.7435    0.1008 C   0  0  0  0  0  0  0  0  0  0  0  0
    6.3642   -4.5704    1.6164 C   0  0  0  0  0  0  0  0  0  0  0  0
    5.0147   -4.9252    2.2675 C   0  0  2  0  0  0  0  0  0  0  0  0
    4.6505   -6.4112    2.3321 C   0  0  0  0  0  0  0  0  0  0  0  0
    5.2843   -7.4823    1.8223 C   0  0  0  0  0  0  0  0  0  0  0  0
    4.4489   -8.6441    2.0071 C   0  0  0  0  0  0  0  0  0  0  0  0
    3.3261   -8.2620    2.6259 C   0  0  0  0  0  0  0  0  0  0  0  0
    2.2915   -9.1695    2.9592 N   0  0  0  0  0  0  0  0  0  0  0  0
    2.2095  -10.5041    2.8772 C   0  0  0  0  0  0  0  0  0  0  0  0
    1.0482  -11.0039    3.2796 N   0  0  0  0  0  0  0  0  0  0  0  0
    0.4197   -9.8508    3.6407 C   0  0  0  0  0  0  0  0  0  0  0  0
    1.1146   -8.7251    3.4659 N   0  0  0  0  0  0  0  0  0  0  0  0
    4.2080   -7.1833    4.9324 H   0  0  0  0  0  0  0  0  0  0  0  0
    2.4774   -6.8996    5.0036 H   0  0  0  0  0  0  0  0  0  0  0  0
    3.5867   -5.5536    4.7980 H   0  0  0  0  0  0  0  0  0  0  0  0
    2.0444   -6.2955    1.3023 H   0  0  0  0  0  0  0  0  0  0  0  0
    1.2518   -6.1220    2.8436 H   0  0  0  0  0  0  0  0  0  0  0  0
    1.7111   -3.8830    1.8730 H   0  0  0  0  0  0  0  0  0  0  0  0
    2.5621   -4.0932    3.3515 H   0  0  0  0  0  0  0  0  0  0  0  0
    4.0667   -3.0558    1.8472 H   0  0  0  0  0  0  0  0  0  0  0  0
    3.5690   -5.2359   -0.2061 H   0  0  0  0  0  0  0  0  0  0  0  0
    1.7803   -3.7228   -0.4252 H   0  0  0  0  0  0  0  0  0  0  0  0
    2.7352   -2.3262   -0.0092 H   0  0  0  0  0  0  0  0  0  0  0  0
    2.7676   -3.8545   -2.6460 H   0  0  0  0  0  0  0  0  0  0  0  0
    2.2426   -2.2183   -2.3680 H   0  0  0  0  0  0  0  0  0  0  0  0
    6.4638   -3.0425   -1.9832 H   0  0  0  0  0  0  0  0  0  0  0  0
    6.2124   -5.7913   -0.1580 H   0  0  0  0  0  0  0  0  0  0  0  0
    7.2971   -4.4224   -0.3136 H   0  0  0  0  0  0  0  0  0  0  0  0
    7.1784   -5.1410    2.0634 H   0  0  0  0  0  0  0  0  0  0  0  0
    6.5792   -3.5206    1.8294 H   0  0  0  0  0  0  0  0  0  0  0  0
    5.0976   -4.6097    3.3070 H   0  0  0  0  0  0  0  0  0  0  0  0
    6.2253   -7.4746    1.2936 H   0  0  0  0  0  0  0  0  0  0  0  0
    4.6868   -9.6448    1.6725 H   0  0  0  0  0  0  0  0  0  0  0  0
    3.0031  -11.1314    2.4923 H   0  0  0  0  0  0  0  0  0  0  0  0
   -0.5808   -9.8418    4.0379 H   0  0  0  0  0  0  0  0  0  0  0  0
  2  1  1  1
  1 25  1  0
  1 26  1  0
  1 27  1  0
  2 16  1  0
  2 19  1  0
  2  3  1  0
  3  4  1  0
  3 28  1  0
  3 29  1  0
  4  5  1  0
  4 30  1  0
  4 31  1  0
  5 15  1  0
  5  6  1  0
  5 32  1  6
  6 12  1  0
  6  7  1  0
  6 33  1  1
  7  8  1  0
  7 34  1  0
  7 35  1  0
  8  9  1  0
  8 36  1  0
  8 37  1  0
  9 10  2  0
  9 11  1  0
 11 12  2  0
 11 38  1  0
 12 13  1  0
 13 14  1  0
 13 39  1  0
 13 40  1  0
 14 15  1  0
 14 41  1  0
 14 42  1  0
 15 16  1  0
 15 43  1  1
 16 17  2  0
 17 18  1  0
 17 44  1  0
 18 19  2  0
 18 45  1  0
 19 20  1  0
 20 24  1  0
 20 21  1  0
 21 22  2  0
 21 46  1  0
 22 23  1  0
 23 24  2  0
 23 47  1  0
M  END
>  <i_m_ct_stereo_status>  (328) 
1

>  <s_m_source_file>  (328) 
/var/tmp/pbs.5076255.sched01/tmpimq9cq4v/129n8p27m2m.sdf

>  <i_m_source_file_index>  (328) 
17

>  <i_lp_mmshare_version>  (328) 
48012

>  <i_f3d_flags>  (328) 
0

>  <s_epik_input>  (328) 
bjFbY0hdbltjSF1uMUMyPVtDSF1bQ0hdPUMoW0NAXTIzW0NIM10pW0NAQEhdNFtDQEhdKFtDSDJdW0NIMl0zKVtDQEBIXTVDKFtDSDJdW0NIMl00KT1bQ0hdQyg9TylbQ0gyXVtDSDJdNQ==

>  <s_epik_cmdline>  (328) 
J2VwaWtfcHl0aG9uJywgJy1waHQnLCAnMi4wJywgJy1waCcsICc3LjAnLCAnLXRuJywgJzgnLCAnLW1hJywgJzIwMCcsICctaW1hZScsICc8aW5maWxlLm1hZT4nLCAnLW9tYWUnLCAnPG91dGZpbGUubWFlPic=

>  <r_lp_tautomer_probability>  (328) 
1

>  <r_epik_Ionization_Penalty>  (328) 
5.8275e-05

>  <r_epik_Ionization_Penalty_Charging>  (328) 
0

>  <r_epik_Ionization_Penalty_Neutral>  (328) 
5.8275e-05

>  <r_epik_State_Penalty>  (328) 
-0

>  <r_epik_Charging_Adjusted_Penalty>  (328) 
0

>  <i_epik_Tot_Q>  (328) 
0

>  <i_epik_Tot_abs_Q>  (328) 
0

>  <s_lp_Force_Field>  (328) 
OPLS3e

>  <r_lp_Energy>  (328) 
20.4379

>  <b_lp_Chiralities_Consistent>  (328) 
1

>  <s_lp_Variant>  (328) 
100:0-1

>  <s_i_glide_gridfile>  (328) 
pfpi4k_grid

>  <i_i_glide_lignum>  (328) 
17

>  <i_i_glide_rotatable_bonds>  (328) 
1

>  <r_i_docking_score>  (328) 
-3.31228

>  <r_i_glide_ligand_efficiency>  (328) 
-0.138012

>  <r_i_glide_ligand_efficiency_sa>  (328) 
-0.398094

>  <r_i_glide_ligand_efficiency_ln>  (328) 
-0.79278

>  <r_i_glide_gscore>  (328) 
-3.31228

>  <r_i_glide_lipo>  (328) 
-0.380249

>  <r_i_glide_hbond>  (328) 
0

>  <r_i_glide_metal>  (328) 
-0

>  <r_i_glide_rewards>  (328) 
-1.35124

>  <r_i_glide_evdw>  (328) 
-27.6209

>  <r_i_glide_ecoul>  (328) 
-2.31131

>  <r_i_glide_erotb>  (328) 
0.180879

>  <r_i_glide_esite>  (328) 
-0.0339259

>  <r_i_glide_emodel>  (328) 
-36.1188

>  <r_i_glide_energy>  (328) 
-29.9322

>  <r_i_glide_einternal>  (328) 
0.226235

>  <r_i_glide_intrahb_reward>  (328) 
-0

>  <i_i_glide_confnum>  (328) 
1

>  <i_i_glide_posenum>  (328) 
1

>  <r_i_glide_eff_state_penalty>  (328) 
0

>  <ligand_id>  (328) 
100

>  <original_smiles>  (328) 
CC12CCC3C4CCC(=O)C=C4CCC3C1=CC=C2n1cncn1

>  <smiles>  (328) 
[H]C1=C2C([H])([H])C([H])([H])C3([H])C4=C([H])C([H])=C(n5nc([H])nc5[H])C4(C([H])([H])[H])C([H])([H])C([H])([H])C3([H])C2([H])C([H])([H])C([H])([H])C1=O

$$$$
101:0:0
     RDKit          3D

 19 20  0  0  1  0  0  0  0  0999 V2000
    6.2865   -2.6765   -0.6019 O   0  0  0  0  0  0  0  0  0  0  0  0
    5.3135   -3.1245   -1.2080 C   0  0  0  0  0  0  0  0  0  0  0  0
    4.7172   -4.3072   -0.9930 N   0  0  0  0  0  0  0  0  0  0  0  0
    5.1297   -5.2025    0.0052 N   0  0  0  0  0  0  0  0  0  0  0  0
    6.2685   -5.2726    0.7115 C   0  0  0  0  0  0  0  0  0  0  0  0
    6.2801   -6.3194    1.5537 N   0  0  0  0  0  0  0  0  0  0  0  0
    5.0602   -6.9625    1.3627 N   0  0  0  0  0  0  0  0  0  0  0  0
    4.4210   -6.2486    0.4256 C   0  0  0  0  0  0  0  0  0  0  0  0
    4.6476   -2.2504   -2.1834 C   0  0  0  0  0  0  0  0  0  0  0  0
    4.5566   -0.8922   -2.2026 C   0  0  0  0  0  0  0  0  0  0  0  0
    3.8420   -0.4012   -3.3402 C   0  0  0  0  0  0  0  0  0  0  0  0
    3.4435   -1.4000   -4.1759 C   0  0  0  0  0  0  0  0  0  0  0  0
    3.8994   -2.9722   -3.5860 S   0  0  0  0  0  0  0  0  0  0  0  0
    3.8815   -4.6217   -1.4735 H   0  0  0  0  0  0  0  0  0  0  0  0
    7.1220   -4.6216    0.6214 H   0  0  0  0  0  0  0  0  0  0  0  0
    3.4383   -6.5213    0.0738 H   0  0  0  0  0  0  0  0  0  0  0  0
    4.9559   -0.2555   -1.4236 H   0  0  0  0  0  0  0  0  0  0  0  0
    3.6642    0.6531   -3.4953 H   0  0  0  0  0  0  0  0  0  0  0  0
    2.8927   -1.3028   -5.0948 H   0  0  0  0  0  0  0  0  0  0  0  0
  1  2  2  0
  2  3  1  0
  2  9  1  0
  3  4  1  0
  3 14  1  0
  4  8  1  0
  4  5  1  0
  5  6  2  0
  5 15  1  0
  6  7  1  0
  7  8  2  0
  8 16  1  0
  9 13  1  0
  9 10  2  0
 10 11  1  0
 10 17  1  0
 11 12  2  0
 11 18  1  0
 12 13  1  0
 12 19  1  0
M  END
>  <i_m_ct_stereo_status>  (329) 
1

>  <s_m_source_file>  (329) 
/var/tmp/pbs.5076255.sched01/tmpimq9cq4v/129n8p27m2m.sdf

>  <i_m_source_file_index>  (329) 
18

>  <i_lp_mmshare_version>  (329) 
48012

>  <i_f3d_flags>  (329) 
0

>  <s_epik_input>  (329) 
czFbY0hdW2NIXVtjSF1jMUMoPU8pW05IXW4yW2NIXW5uW2NIXTI=

>  <s_epik_cmdline>  (329) 
J2VwaWtfcHl0aG9uJywgJy1waHQnLCAnMi4wJywgJy1waCcsICc3LjAnLCAnLXRuJywgJzgnLCAnLW1hJywgJzIwMCcsICctaW1hZScsICc8aW5maWxlLm1hZT4nLCAnLW9tYWUnLCAnPG91dGZpbGUubWFlPic=

>  <r_lp_tautomer_probability>  (329) 
1

>  <r_epik_Ionization_Penalty>  (329) 
6.63122e-05

>  <r_epik_Ionization_Penalty_Charging>  (329) 
0

>  <r_epik_Ionization_Penalty_Neutral>  (329) 
6.63122e-05

>  <r_epik_State_Penalty>  (329) 
-0

>  <r_epik_Charging_Adjusted_Penalty>  (329) 
0

>  <i_epik_Tot_Q>  (329) 
0

>  <i_epik_Tot_abs_Q>  (329) 
0

>  <s_lp_Force_Field>  (329) 
OPLS3e

>  <r_lp_Energy>  (329) 
2.50141

>  <b_lp_Chiralities_Consistent>  (329) 
1

>  <s_lp_Variant>  (329) 
101:0-1

>  <s_i_glide_gridfile>  (329) 
pfpi4k_grid

>  <i_i_glide_lignum>  (329) 
18

>  <i_i_glide_rotatable_bonds>  (329) 
3

>  <r_i_docking_score>  (329) 
-3.93425

>  <r_i_glide_ligand_efficiency>  (329) 
-0.302634

>  <r_i_glide_ligand_efficiency_sa>  (329) 
-0.711595

>  <r_i_glide_ligand_efficiency_ln>  (329) 
-1.10359

>  <r_i_glide_gscore>  (329) 
-3.93425

>  <r_i_glide_lipo>  (329) 
-0.458866

>  <r_i_glide_hbond>  (329) 
-0.262278

>  <r_i_glide_metal>  (329) 
-0

>  <r_i_glide_rewards>  (329) 
-2.547

>  <r_i_glide_evdw>  (329) 
-22.8149

>  <r_i_glide_ecoul>  (329) 
-5.29947

>  <r_i_glide_erotb>  (329) 
1.2863

>  <r_i_glide_esite>  (329) 
-0.0167311

>  <r_i_glide_emodel>  (329) 
-33.548

>  <r_i_glide_energy>  (329) 
-28.1144

>  <r_i_glide_einternal>  (329) 
3.43779

>  <r_i_glide_intrahb_reward>  (329) 
-0

>  <i_i_glide_confnum>  (329) 
4

>  <i_i_glide_posenum>  (329) 
36

>  <r_i_glide_eff_state_penalty>  (329) 
0

>  <ligand_id>  (329) 
101

>  <original_smiles>  (329) 
O=C(Nn1cnnc1)c1cccs1

>  <smiles>  (329) 
[H]c1sc(C(=O)N([H])n2c([H])nnc2[H])c([H])c1[H]

$$$$
101:0:1
     RDKit          3D

 19 20  0  0  1  0  0  0  0  0999 V2000
    6.3232   -1.4592   -0.7742 O   0  0  0  0  0  0  0  0  0  0  0  0
    5.6931   -2.4271   -1.1923 C   0  0  0  0  0  0  0  0  0  0  0  0
    5.8496   -3.6809   -0.7345 N   0  0  0  0  0  0  0  0  0  0  0  0
    6.9372   -4.0190    0.0622 N   0  0  0  0  0  0  0  0  0  0  0  0
    7.0100   -5.0815    0.8678 C   0  0  0  0  0  0  0  0  0  0  0  0
    8.2241   -5.2379    1.4024 N   0  0  0  0  0  0  0  0  0  0  0  0
    9.0014   -4.2037    0.8756 N   0  0  0  0  0  0  0  0  0  0  0  0
    8.1822   -3.5158    0.0779 C   0  0  0  0  0  0  0  0  0  0  0  0
    4.6835   -2.2765   -2.2456 C   0  0  0  0  0  0  0  0  0  0  0  0
    4.0507   -3.2230   -3.0016 C   0  0  0  0  0  0  0  0  0  0  0  0
    3.1280   -2.6763   -3.9272 C   0  0  0  0  0  0  0  0  0  0  0  0
    3.1159   -1.3072   -3.9208 C   0  0  0  0  0  0  0  0  0  0  0  0
    4.2099   -0.6608   -2.7258 S   0  0  0  0  0  0  0  0  0  0  0  0
    5.2475   -4.4650   -0.9593 H   0  0  0  0  0  0  0  0  0  0  0  0
    6.1899   -5.7624    1.0476 H   0  0  0  0  0  0  0  0  0  0  0  0
    8.5426   -2.6959   -0.5351 H   0  0  0  0  0  0  0  0  0  0  0  0
    4.2134   -4.2853   -2.9054 H   0  0  0  0  0  0  0  0  0  0  0  0
    2.5303   -3.3074   -4.5682 H   0  0  0  0  0  0  0  0  0  0  0  0
    2.5162   -0.6426   -4.5264 H   0  0  0  0  0  0  0  0  0  0  0  0
  1  2  2  0
  2  3  1  0
  2  9  1  0
  3  4  1  0
  3 14  1  0
  4  8  1  0
  4  5  1  0
  5  6  2  0
  5 15  1  0
  6  7  1  0
  7  8  2  0
  8 16  1  0
  9 13  1  0
  9 10  2  0
 10 11  1  0
 10 17  1  0
 11 12  2  0
 11 18  1  0
 12 13  1  0
 12 19  1  0
M  END
>  <i_m_ct_stereo_status>  (330) 
1

>  <s_m_source_file>  (330) 
/var/tmp/pbs.5076255.sched01/tmpimq9cq4v/129n8p27m2m.sdf

>  <i_m_source_file_index>  (330) 
18

>  <i_lp_mmshare_version>  (330) 
48012

>  <i_f3d_flags>  (330) 
0

>  <s_epik_input>  (330) 
czFbY0hdW2NIXVtjSF1jMUMoPU8pW05IXW4yW2NIXW5uW2NIXTI=

>  <s_epik_cmdline>  (330) 
J2VwaWtfcHl0aG9uJywgJy1waHQnLCAnMi4wJywgJy1waCcsICc3LjAnLCAnLXRuJywgJzgnLCAnLW1hJywgJzIwMCcsICctaW1hZScsICc8aW5maWxlLm1hZT4nLCAnLW9tYWUnLCAnPG91dGZpbGUubWFlPic=

>  <r_lp_tautomer_probability>  (330) 
1

>  <r_epik_Ionization_Penalty>  (330) 
6.63122e-05

>  <r_epik_Ionization_Penalty_Charging>  (330) 
0

>  <r_epik_Ionization_Penalty_Neutral>  (330) 
6.63122e-05

>  <r_epik_State_Penalty>  (330) 
-0

>  <r_epik_Charging_Adjusted_Penalty>  (330) 
0

>  <i_epik_Tot_Q>  (330) 
0

>  <i_epik_Tot_abs_Q>  (330) 
0

>  <s_lp_Force_Field>  (330) 
OPLS3e

>  <r_lp_Energy>  (330) 
2.50141

>  <b_lp_Chiralities_Consistent>  (330) 
1

>  <s_lp_Variant>  (330) 
101:0-1

>  <s_i_glide_gridfile>  (330) 
pfpi4k_grid

>  <i_i_glide_lignum>  (330) 
18

>  <i_i_glide_rotatable_bonds>  (330) 
3

>  <r_i_docking_score>  (330) 
-3.77789

>  <r_i_glide_ligand_efficiency>  (330) 
-0.290607

>  <r_i_glide_ligand_efficiency_sa>  (330) 
-0.683314

>  <r_i_glide_ligand_efficiency_ln>  (330) 
-1.05973

>  <r_i_glide_gscore>  (330) 
-3.77789

>  <r_i_glide_lipo>  (330) 
-0.392109

>  <r_i_glide_hbond>  (330) 
-0.11875

>  <r_i_glide_metal>  (330) 
-0

>  <r_i_glide_rewards>  (330) 
-2.66883

>  <r_i_glide_evdw>  (330) 
-23.5573

>  <r_i_glide_ecoul>  (330) 
-4.32751

>  <r_i_glide_erotb>  (330) 
1.2863

>  <r_i_glide_esite>  (330) 
-0.0575018

>  <r_i_glide_emodel>  (330) 
-33.6667

>  <r_i_glide_energy>  (330) 
-27.8848

>  <r_i_glide_einternal>  (330) 
1.87485

>  <r_i_glide_intrahb_reward>  (330) 
-0

>  <i_i_glide_confnum>  (330) 
3

>  <i_i_glide_posenum>  (330) 
35

>  <r_i_glide_eff_state_penalty>  (330) 
0

>  <ligand_id>  (330) 
101

>  <original_smiles>  (330) 
O=C(Nn1cnnc1)c1cccs1

>  <smiles>  (330) 
[H]c1sc(C(=O)N([H])n2c([H])nnc2[H])c([H])c1[H]

$$$$
101:0:2
     RDKit          3D

 19 20  0  0  1  0  0  0  0  0999 V2000
    5.7949   -3.0837   -0.9605 O   0  0  0  0  0  0  0  0  0  0  0  0
    4.6033   -3.0736   -1.2691 C   0  0  0  0  0  0  0  0  0  0  0  0
    3.6484   -3.8479   -0.7264 N   0  0  0  0  0  0  0  0  0  0  0  0
    3.9144   -4.8032    0.2573 N   0  0  0  0  0  0  0  0  0  0  0  0
    3.1072   -5.8143    0.5889 C   0  0  0  0  0  0  0  0  0  0  0  0
    3.5963   -6.5584    1.5822 N   0  0  0  0  0  0  0  0  0  0  0  0
    4.8147   -5.9671    1.9245 N   0  0  0  0  0  0  0  0  0  0  0  0
    4.9502   -4.9178    1.1077 C   0  0  0  0  0  0  0  0  0  0  0  0
    4.1378   -2.1118   -2.2677 C   0  0  0  0  0  0  0  0  0  0  0  0
    4.4532   -0.7904   -2.4205 C   0  0  0  0  0  0  0  0  0  0  0  0
    3.8130   -0.1962   -3.5472 C   0  0  0  0  0  0  0  0  0  0  0  0
    3.0499   -1.0851   -4.2457 C   0  0  0  0  0  0  0  0  0  0  0  0
    3.0737   -2.6740   -3.5329 S   0  0  0  0  0  0  0  0  0  0  0  0
    2.6955   -3.8575   -1.0583 H   0  0  0  0  0  0  0  0  0  0  0  0
    2.1635   -6.0302    0.1041 H   0  0  0  0  0  0  0  0  0  0  0  0
    5.7942   -4.2403    1.1650 H   0  0  0  0  0  0  0  0  0  0  0  0
    5.0998   -0.2459   -1.7465 H   0  0  0  0  0  0  0  0  0  0  0  0
    3.9271    0.8510   -3.7894 H   0  0  0  0  0  0  0  0  0  0  0  0
    2.4472   -0.8939   -5.1204 H   0  0  0  0  0  0  0  0  0  0  0  0
  1  2  2  0
  2  3  1  0
  2  9  1  0
  3  4  1  0
  3 14  1  0
  4  8  1  0
  4  5  1  0
  5  6  2  0
  5 15  1  0
  6  7  1  0
  7  8  2  0
  8 16  1  0
  9 13  1  0
  9 10  2  0
 10 11  1  0
 10 17  1  0
 11 12  2  0
 11 18  1  0
 12 13  1  0
 12 19  1  0
M  END
>  <i_m_ct_stereo_status>  (331) 
1

>  <s_m_source_file>  (331) 
/var/tmp/pbs.5076255.sched01/tmpimq9cq4v/129n8p27m2m.sdf

>  <i_m_source_file_index>  (331) 
18

>  <i_lp_mmshare_version>  (331) 
48012

>  <i_f3d_flags>  (331) 
0

>  <s_epik_input>  (331) 
czFbY0hdW2NIXVtjSF1jMUMoPU8pW05IXW4yW2NIXW5uW2NIXTI=

>  <s_epik_cmdline>  (331) 
J2VwaWtfcHl0aG9uJywgJy1waHQnLCAnMi4wJywgJy1waCcsICc3LjAnLCAnLXRuJywgJzgnLCAnLW1hJywgJzIwMCcsICctaW1hZScsICc8aW5maWxlLm1hZT4nLCAnLW9tYWUnLCAnPG91dGZpbGUubWFlPic=

>  <r_lp_tautomer_probability>  (331) 
1

>  <r_epik_Ionization_Penalty>  (331) 
6.63122e-05

>  <r_epik_Ionization_Penalty_Charging>  (331) 
0

>  <r_epik_Ionization_Penalty_Neutral>  (331) 
6.63122e-05

>  <r_epik_State_Penalty>  (331) 
-0

>  <r_epik_Charging_Adjusted_Penalty>  (331) 
0

>  <i_epik_Tot_Q>  (331) 
0

>  <i_epik_Tot_abs_Q>  (331) 
0

>  <s_lp_Force_Field>  (331) 
OPLS3e

>  <r_lp_Energy>  (331) 
2.50141

>  <b_lp_Chiralities_Consistent>  (331) 
1

>  <s_lp_Variant>  (331) 
101:0-1

>  <s_i_glide_gridfile>  (331) 
pfpi4k_grid

>  <i_i_glide_lignum>  (331) 
18

>  <i_i_glide_rotatable_bonds>  (331) 
3

>  <r_i_docking_score>  (331) 
-2.95939

>  <r_i_glide_ligand_efficiency>  (331) 
-0.227645

>  <r_i_glide_ligand_efficiency_sa>  (331) 
-0.53527

>  <r_i_glide_ligand_efficiency_ln>  (331) 
-0.830134

>  <r_i_glide_gscore>  (331) 
-2.95939

>  <r_i_glide_lipo>  (331) 
-0.451489

>  <r_i_glide_hbond>  (331) 
0

>  <r_i_glide_metal>  (331) 
-0

>  <r_i_glide_rewards>  (331) 
-2.14925

>  <r_i_glide_evdw>  (331) 
-21.9903

>  <r_i_glide_ecoul>  (331) 
-3.43504

>  <r_i_glide_erotb>  (331) 
1.2863

>  <r_i_glide_esite>  (331) 
-0.0301735

>  <r_i_glide_emodel>  (331) 
-28.7876

>  <r_i_glide_energy>  (331) 
-25.4254

>  <r_i_glide_einternal>  (331) 
3.69579

>  <r_i_glide_intrahb_reward>  (331) 
-0

>  <i_i_glide_confnum>  (331) 
5

>  <i_i_glide_posenum>  (331) 
7

>  <r_i_glide_eff_state_penalty>  (331) 
0

>  <ligand_id>  (331) 
101

>  <original_smiles>  (331) 
O=C(Nn1cnnc1)c1cccs1

>  <smiles>  (331) 
[H]c1sc(C(=O)N([H])n2c([H])nnc2[H])c([H])c1[H]

$$$$
104:0:0
     RDKit          3D

 58 65  0  0  1  0  0  0  0  0999 V2000
   -1.8050   10.0734    7.0976 C   0  0  0  0  0  0  0  0  0  0  0  0
   -0.8843    9.0913    6.6452 O   0  0  0  0  0  0  0  0  0  0  0  0
   -0.8707    7.9176    7.4000 C   0  0  2  0  0  0  0  0  0  0  0  0
    0.1444    8.0588    8.5550 C   0  0  0  0  0  0  0  0  0  0  0  0
    1.3478    7.1942    8.1730 C   0  0  2  0  0  0  0  0  0  0  0  0
    2.6606    7.9475    7.7609 C   0  0  1  0  0  0  0  0  0  0  0  0
    3.7130    6.8440    7.5522 C   0  0  0  0  0  0  0  0  0  0  0  0
    3.2792    5.9500    6.3579 C   0  0  1  0  0  0  0  0  0  0  0  0
    3.2332    4.5702    6.7152 O   0  0  0  0  0  0  0  0  0  0  0  0
    2.4469    3.8065    5.8034 C   0  0  0  0  0  0  0  0  0  0  0  0
    1.0245    3.6647    6.4190 C   0  0  1  0  0  0  0  0  0  0  0  0
    1.1028    2.3871    7.3293 C   0  0  0  0  0  0  0  0  0  0  0  0
   -0.2072    2.1234    8.1058 C   0  0  0  0  0  0  0  0  0  0  0  0
   -1.2487    3.1777    7.7108 C   0  0  1  0  0  0  0  0  0  0  0  0
   -0.7146    4.5654    8.0973 C   0  0  0  0  0  0  0  0  0  0  0  0
    0.6564    4.8583    7.3869 C   0  0  2  0  0  0  0  0  0  0  0  0
    0.8742    6.3683    6.9022 C   0  0  1  0  0  0  0  0  0  0  0  0
   -0.4733    6.8287    6.6024 O   0  0  0  0  0  0  0  0  0  0  0  0
    1.9575    6.4996    5.6621 C   0  0  2  0  0  0  0  0  0  0  0  0
    2.6933    7.3956    4.6519 C   0  0  0  0  0  0  0  0  0  0  0  0
    3.1733    8.5269    5.1838 C   0  0  0  0  0  0  0  0  0  0  0  0
    2.3795    8.7049    6.4213 C   0  0  1  0  0  0  0  0  0  0  0  0
    1.4260    7.8187    5.9297 O   0  0  0  0  0  0  0  0  0  0  0  0
   -1.3780    3.1647    6.2031 C   0  0  0  0  0  0  0  0  0  0  0  0
   -2.5937    2.9481    5.5510 C   0  0  0  0  0  0  0  0  0  0  0  0
   -2.6385    2.9456    4.1458 C   0  0  0  0  0  0  0  0  0  0  0  0
   -1.4551    3.1670    3.4109 C   0  0  0  0  0  0  0  0  0  0  0  0
   -0.2340    3.4050    4.0685 C   0  0  0  0  0  0  0  0  0  0  0  0
    0.8576    3.6278    3.2786 O   0  0  0  0  0  0  0  0  0  0  0  0
   -0.1803    3.4102    5.4864 C   0  0  0  0  0  0  0  0  0  0  0  0
   -1.6953   10.9756    6.4981 H   0  0  0  0  0  0  0  0  0  0  0  0
   -1.6443   10.3426    8.1431 H   0  0  0  0  0  0  0  0  0  0  0  0
   -2.8297    9.7211    6.9780 H   0  0  0  0  0  0  0  0  0  0  0  0
   -1.8776    7.6998    7.7630 H   0  0  0  0  0  0  0  0  0  0  0  0
    0.3940    9.1007    8.7606 H   0  0  0  0  0  0  0  0  0  0  0  0
   -0.3230    7.6412    9.4463 H   0  0  0  0  0  0  0  0  0  0  0  0
    1.5817    6.5772    9.0431 H   0  0  0  0  0  0  0  0  0  0  0  0
    2.9899    8.6352    8.5396 H   0  0  0  0  0  0  0  0  0  0  0  0
    4.6778    7.3073    7.3389 H   0  0  0  0  0  0  0  0  0  0  0  0
    3.8456    6.2479    8.4571 H   0  0  0  0  0  0  0  0  0  0  0  0
    4.1262    5.9540    5.6613 H   0  0  0  0  0  0  0  0  0  0  0  0
    2.4969    4.2593    4.8182 H   0  0  0  0  0  0  0  0  0  0  0  0
    2.9119    2.8287    5.6747 H   0  0  0  0  0  0  0  0  0  0  0  0
    1.3101    1.5131    6.7078 H   0  0  0  0  0  0  0  0  0  0  0  0
    1.9366    2.4517    8.0315 H   0  0  0  0  0  0  0  0  0  0  0  0
   -0.5825    1.1288    7.8662 H   0  0  0  0  0  0  0  0  0  0  0  0
   -0.0314    2.1323    9.1813 H   0  0  0  0  0  0  0  0  0  0  0  0
   -2.2071    2.9785    8.1893 H   0  0  0  0  0  0  0  0  0  0  0  0
   -1.5011    5.2697    7.8471 H   0  0  0  0  0  0  0  0  0  0  0  0
   -0.5989    4.6458    9.1782 H   0  0  0  0  0  0  0  0  0  0  0  0
    1.3851    4.7122    8.1851 H   0  0  0  0  0  0  0  0  0  0  0  0
    2.9103    7.0483    3.6592 H   0  0  0  0  0  0  0  0  0  0  0  0
    3.7571    9.2854    4.6885 H   0  0  0  0  0  0  0  0  0  0  0  0
    1.9272    9.6847    6.5410 H   0  0  0  0  0  0  0  0  0  0  0  0
   -3.4953    2.7883    6.1267 H   0  0  0  0  0  0  0  0  0  0  0  0
   -3.5698    2.7654    3.6285 H   0  0  0  0  0  0  0  0  0  0  0  0
   -1.4976    3.1591    2.3288 H   0  0  0  0  0  0  0  0  0  0  0  0
    0.6220    3.7553    2.3623 H   0  0  0  0  0  0  0  0  0  0  0  0
  1  2  1  0
  1 31  1  0
  1 32  1  0
  1 33  1  0
  2  3  1  0
  3 18  1  0
  3  4  1  0
  3 34  1  1
  4  5  1  0
  4 35  1  0
  4 36  1  0
  5 17  1  0
  5  6  1  0
  5 37  1  1
  6 22  1  0
  6  7  1  0
  6 38  1  1
  7  8  1  0
  7 39  1  0
  7 40  1  0
  8 19  1  0
  8  9  1  0
  8 41  1  6
  9 10  1  0
 11 10  1  6
 10 42  1  0
 10 43  1  0
 11 16  1  0
 11 30  1  0
 11 12  1  0
 12 13  1  0
 12 44  1  0
 12 45  1  0
 13 14  1  0
 13 46  1  0
 13 47  1  0
 14 15  1  0
 14 24  1  0
 14 48  1  1
 15 16  1  0
 15 49  1  0
 15 50  1  0
 16 17  1  0
 16 51  1  1
 17 18  1  6
 17 19  1  0
 19 23  1  0
 19 20  1  6
 20 21  2  0
 20 52  1  0
 21 22  1  0
 21 53  1  0
 22 23  1  0
 22 54  1  1
 24 30  2  0
 24 25  1  0
 25 26  2  0
 25 55  1  0
 26 27  1  0
 26 56  1  0
 27 28  2  0
 27 57  1  0
 28 29  1  0
 28 30  1  0
 29 58  1  0
M  END
>  <i_m_ct_stereo_status>  (332) 
1

>  <s_m_source_file>  (332) 
/var/tmp/pbs.5076255.sched01/tmpimq9cq4v/129n8p27m2m.sdf

>  <i_m_source_file_index>  (332) 
21

>  <i_lp_mmshare_version>  (332) 
48012

>  <i_f3d_flags>  (332) 
0

>  <s_epik_input>  (332) 
W0NIM11PW0NAQEhdKE8xKVtDSDJdW0NAQEhdMltDQEhdKFtDQEhdKE8zKVtDSF09W0NIXTQpW0NIMl1bQ0BASF0oT1tDSDJdNSlbQ0BAXTM0W0NAXTEyW0NASF0oW0NAQF01NjcpW0NIMl1bQ0BIXShbQ0gyXVtDSDJdNiljOGM3YyhbT0hdKVtjSF1bY0hdW2NIXTg=

>  <s_epik_cmdline>  (332) 
J2VwaWtfcHl0aG9uJywgJy1waHQnLCAnMi4wJywgJy1waCcsICc3LjAnLCAnLXRuJywgJzgnLCAnLW1hJywgJzIwMCcsICctaW1hZScsICc8aW5maWxlLm1hZT4nLCAnLW9tYWUnLCAnPG91dGZpbGUubWFlPic=

>  <r_lp_tautomer_probability>  (332) 
1

>  <r_epik_Ionization_Penalty>  (332) 
9.80851e-05

>  <r_epik_Ionization_Penalty_Charging>  (332) 
0

>  <r_epik_Ionization_Penalty_Neutral>  (332) 
9.80851e-05

>  <r_epik_State_Penalty>  (332) 
-0

>  <r_epik_Charging_Adjusted_Penalty>  (332) 
0

>  <i_epik_Tot_Q>  (332) 
0

>  <i_epik_Tot_abs_Q>  (332) 
0

>  <s_epik_Chemistry_Notes>  (332) 
This compound contains an acetal/aminal-like group ( X-CH(R)-Y where X, Y are N, S, or O) that may be acid/base labile, releasing an aldehyde.

>  <s_lp_Force_Field>  (332) 
OPLS3e

>  <r_lp_Energy>  (332) 
210.41

>  <b_lp_Chiralities_Consistent>  (332) 
1

>  <s_lp_Variant>  (332) 
104:0-1

>  <s_i_glide_gridfile>  (332) 
pfpi4k_grid

>  <i_i_glide_lignum>  (332) 
21

>  <i_i_glide_rotatable_bonds>  (332) 
2

>  <r_i_docking_score>  (332) 
-2.72383

>  <r_i_glide_ligand_efficiency>  (332) 
-0.0907945

>  <r_i_glide_ligand_efficiency_sa>  (332) 
-0.28212

>  <r_i_glide_ligand_efficiency_ln>  (332) 
-0.618885

>  <r_i_glide_gscore>  (332) 
-2.72383

>  <r_i_glide_lipo>  (332) 
-0.100957

>  <r_i_glide_hbond>  (332) 
-0.16

>  <r_i_glide_metal>  (332) 
-0

>  <r_i_glide_rewards>  (332) 
-0.623953

>  <r_i_glide_evdw>  (332) 
-18.0455

>  <r_i_glide_ecoul>  (332) 
-6.07481

>  <r_i_glide_erotb>  (332) 
0

>  <r_i_glide_esite>  (332) 
-0.0254283

>  <r_i_glide_emodel>  (332) 
-27.0614

>  <r_i_glide_energy>  (332) 
-24.1203

>  <r_i_glide_einternal>  (332) 
3.22865

>  <r_i_glide_intrahb_reward>  (332) 
-0

>  <i_i_glide_confnum>  (332) 
1

>  <i_i_glide_posenum>  (332) 
40

>  <r_i_glide_eff_state_penalty>  (332) 
0

>  <ligand_id>  (332) 
104

>  <original_smiles>  (332) 
COC1CC2C3CC4OCC56CCC(CC5C2(O1)C41C=CC3O1)c1cccc(O)c16

>  <smiles>  (332) 
[H]Oc1c([H])c([H])c([H])c2c1C13C([H])([H])OC4([H])C([H])([H])C5([H])C6([H])OC4(C([H])=C6[H])C4(OC([H])(OC([H])([H])[H])C([H])([H])C54[H])C1([H])C([H])([H])C2([H])C([H])([H])C3([H])[H]

$$$$
104:0:1
     RDKit          3D

 58 65  0  0  1  0  0  0  0  0999 V2000
    3.6235    4.4432    6.0027 C   0  0  0  0  0  0  0  0  0  0  0  0
    3.9910    3.4194    6.9122 O   0  0  0  0  0  0  0  0  0  0  0  0
    2.9722    2.5041    7.1690 C   0  0  2  0  0  0  0  0  0  0  0  0
    3.5081    1.5045    8.2121 C   0  0  0  0  0  0  0  0  0  0  0  0
    3.7712    0.1945    7.4648 C   0  0  2  0  0  0  0  0  0  0  0  0
    5.2723   -0.1947    7.2193 C   0  0  1  0  0  0  0  0  0  0  0  0
    5.2194   -1.5850    6.5558 C   0  0  0  0  0  0  0  0  0  0  0  0
    4.5263   -1.4629    5.1727 C   0  0  1  0  0  0  0  0  0  0  0  0
    3.4282   -2.3627    5.0461 O   0  0  0  0  0  0  0  0  0  0  0  0
    2.5384   -1.9793    3.9984 C   0  0  0  0  0  0  0  0  0  0  0  0
    1.3680   -1.1923    4.6509 C   0  0  1  0  0  0  0  0  0  0  0  0
    0.3171   -2.2864    5.0536 C   0  0  0  0  0  0  0  0  0  0  0  0
   -0.8968   -1.7000    5.8079 C   0  0  0  0  0  0  0  0  0  0  0  0
   -0.7518   -0.1750    5.8875 C   0  0  1  0  0  0  0  0  0  0  0  0
    0.5235    0.1550    6.6768 C   0  0  0  0  0  0  0  0  0  0  0  0
    1.7908   -0.4844    5.9970 C   0  0  2  0  0  0  0  0  0  0  0  0
    3.1171    0.4078    6.0356 C   0  0  1  0  0  0  0  0  0  0  0  0
    2.6076    1.7698    6.0233 O   0  0  0  0  0  0  0  0  0  0  0  0
    4.1797    0.0508    4.8274 C   0  0  2  0  0  0  0  0  0  0  0  0
    5.5219    0.3293    4.1358 C   0  0  0  0  0  0  0  0  0  0  0  0
    6.5485    0.5373    4.9737 C   0  0  0  0  0  0  0  0  0  0  0  0
    5.9005    0.8710    6.2563 C   0  0  1  0  0  0  0  0  0  0  0  0
    4.7187    1.1699    5.5788 O   0  0  0  0  0  0  0  0  0  0  0  0
   -0.5420    0.3582    4.4899 C   0  0  0  0  0  0  0  0  0  0  0  0
   -1.3813    1.3151    3.9170 C   0  0  0  0  0  0  0  0  0  0  0  0
   -1.1249    1.7543    2.6091 C   0  0  0  0  0  0  0  0  0  0  0  0
   -0.0285    1.2236    1.8940 C   0  0  0  0  0  0  0  0  0  0  0  0
    0.8085    0.2480    2.4660 C   0  0  0  0  0  0  0  0  0  0  0  0
    1.7936   -0.2780    1.6719 O   0  0  0  0  0  0  0  0  0  0  0  0
    0.5764   -0.1775    3.7970 C   0  0  0  0  0  0  0  0  0  0  0  0
    4.4569    5.1357    5.8787 H   0  0  0  0  0  0  0  0  0  0  0  0
    2.7679    5.0119    6.3698 H   0  0  0  0  0  0  0  0  0  0  0  0
    3.3821    4.0326    5.0215 H   0  0  0  0  0  0  0  0  0  0  0  0
    2.1017    3.0469    7.5431 H   0  0  0  0  0  0  0  0  0  0  0  0
    4.3790    1.9020    8.7387 H   0  0  0  0  0  0  0  0  0  0  0  0
    2.7189    1.3417    8.9433 H   0  0  0  0  0  0  0  0  0  0  0  0
    3.3127   -0.6033    8.0509 H   0  0  0  0  0  0  0  0  0  0  0  0
    5.8255   -0.2549    8.1546 H   0  0  0  0  0  0  0  0  0  0  0  0
    6.2359   -1.9586    6.4336 H   0  0  0  0  0  0  0  0  0  0  0  0
    4.6974   -2.3068    7.1908 H   0  0  0  0  0  0  0  0  0  0  0  0
    5.2349   -1.8854    4.4488 H   0  0  0  0  0  0  0  0  0  0  0  0
    3.0933   -1.4539    3.2244 H   0  0  0  0  0  0  0  0  0  0  0  0
    2.1702   -2.8794    3.5036 H   0  0  0  0  0  0  0  0  0  0  0  0
   -0.0516   -2.7873    4.1560 H   0  0  0  0  0  0  0  0  0  0  0  0
    0.7776   -3.0698    5.6601 H   0  0  0  0  0  0  0  0  0  0  0  0
   -1.8167   -1.9524    5.2817 H   0  0  0  0  0  0  0  0  0  0  0  0
   -0.9732   -2.1461    6.7999 H   0  0  0  0  0  0  0  0  0  0  0  0
   -1.6259    0.2807    6.3427 H   0  0  0  0  0  0  0  0  0  0  0  0
    0.5585    1.2384    6.7509 H   0  0  0  0  0  0  0  0  0  0  0  0
    0.4434   -0.1902    7.7049 H   0  0  0  0  0  0  0  0  0  0  0  0
    2.0087   -1.3460    6.6319 H   0  0  0  0  0  0  0  0  0  0  0  0
    5.6206    0.2156    3.0752 H   0  0  0  0  0  0  0  0  0  0  0  0
    7.5768    0.7260    4.7152 H   0  0  0  0  0  0  0  0  0  0  0  0
    6.3030    1.7616    6.7369 H   0  0  0  0  0  0  0  0  0  0  0  0
   -2.2332    1.7144    4.4614 H   0  0  0  0  0  0  0  0  0  0  0  0
   -1.7667    2.4849    2.1371 H   0  0  0  0  0  0  0  0  0  0  0  0
    0.1371    1.5657    0.8796 H   0  0  0  0  0  0  0  0  0  0  0  0
    1.5475   -0.2619    0.7497 H   0  0  0  0  0  0  0  0  0  0  0  0
  1  2  1  0
  1 31  1  0
  1 32  1  0
  1 33  1  0
  2  3  1  0
  3 18  1  0
  3  4  1  0
  3 34  1  1
  4  5  1  0
  4 35  1  0
  4 36  1  0
  5 17  1  0
  5  6  1  0
  5 37  1  1
  6 22  1  0
  6  7  1  0
  6 38  1  1
  7  8  1  0
  7 39  1  0
  7 40  1  0
  8 19  1  0
  8  9  1  0
  8 41  1  6
  9 10  1  0
 11 10  1  6
 10 42  1  0
 10 43  1  0
 11 16  1  0
 11 30  1  0
 11 12  1  0
 12 13  1  0
 12 44  1  0
 12 45  1  0
 13 14  1  0
 13 46  1  0
 13 47  1  0
 14 15  1  0
 14 24  1  0
 14 48  1  1
 15 16  1  0
 15 49  1  0
 15 50  1  0
 16 17  1  0
 16 51  1  1
 17 18  1  6
 17 19  1  0
 19 23  1  0
 19 20  1  6
 20 21  2  0
 20 52  1  0
 21 22  1  0
 21 53  1  0
 22 23  1  0
 22 54  1  1
 24 30  2  0
 24 25  1  0
 25 26  2  0
 25 55  1  0
 26 27  1  0
 26 56  1  0
 27 28  2  0
 27 57  1  0
 28 29  1  0
 28 30  1  0
 29 58  1  0
M  END
>  <i_m_ct_stereo_status>  (333) 
1

>  <s_m_source_file>  (333) 
/var/tmp/pbs.5076255.sched01/tmpimq9cq4v/129n8p27m2m.sdf

>  <i_m_source_file_index>  (333) 
21

>  <i_lp_mmshare_version>  (333) 
48012

>  <i_f3d_flags>  (333) 
0

>  <s_epik_input>  (333) 
W0NIM11PW0NAQEhdKE8xKVtDSDJdW0NAQEhdMltDQEhdKFtDQEhdKE8zKVtDSF09W0NIXTQpW0NIMl1bQ0BASF0oT1tDSDJdNSlbQ0BAXTM0W0NAXTEyW0NASF0oW0NAQF01NjcpW0NIMl1bQ0BIXShbQ0gyXVtDSDJdNiljOGM3YyhbT0hdKVtjSF1bY0hdW2NIXTg=

>  <s_epik_cmdline>  (333) 
J2VwaWtfcHl0aG9uJywgJy1waHQnLCAnMi4wJywgJy1waCcsICc3LjAnLCAnLXRuJywgJzgnLCAnLW1hJywgJzIwMCcsICctaW1hZScsICc8aW5maWxlLm1hZT4nLCAnLW9tYWUnLCAnPG91dGZpbGUubWFlPic=

>  <r_lp_tautomer_probability>  (333) 
1

>  <r_epik_Ionization_Penalty>  (333) 
9.80851e-05

>  <r_epik_Ionization_Penalty_Charging>  (333) 
0

>  <r_epik_Ionization_Penalty_Neutral>  (333) 
9.80851e-05

>  <r_epik_State_Penalty>  (333) 
-0

>  <r_epik_Charging_Adjusted_Penalty>  (333) 
0

>  <i_epik_Tot_Q>  (333) 
0

>  <i_epik_Tot_abs_Q>  (333) 
0

>  <s_epik_Chemistry_Notes>  (333) 
This compound contains an acetal/aminal-like group ( X-CH(R)-Y where X, Y are N, S, or O) that may be acid/base labile, releasing an aldehyde.

>  <s_lp_Force_Field>  (333) 
OPLS3e

>  <r_lp_Energy>  (333) 
210.41

>  <b_lp_Chiralities_Consistent>  (333) 
1

>  <s_lp_Variant>  (333) 
104:0-1

>  <s_i_glide_gridfile>  (333) 
pfpi4k_grid

>  <i_i_glide_lignum>  (333) 
21

>  <i_i_glide_rotatable_bonds>  (333) 
2

>  <r_i_docking_score>  (333) 
-2.28996

>  <r_i_glide_ligand_efficiency>  (333) 
-0.076332

>  <r_i_glide_ligand_efficiency_sa>  (333) 
-0.237181

>  <r_i_glide_ligand_efficiency_ln>  (333) 
-0.520304

>  <r_i_glide_gscore>  (333) 
-2.28996

>  <r_i_glide_lipo>  (333) 
-0.377555

>  <r_i_glide_hbond>  (333) 
-0.16

>  <r_i_glide_metal>  (333) 
-0

>  <r_i_glide_rewards>  (333) 
-0.623953

>  <r_i_glide_evdw>  (333) 
-17.7935

>  <r_i_glide_ecoul>  (333) 
-1.59185

>  <r_i_glide_erotb>  (333) 
0

>  <r_i_glide_esite>  (333) 
0

>  <r_i_glide_emodel>  (333) 
-22.3757

>  <r_i_glide_energy>  (333) 
-19.3853

>  <r_i_glide_einternal>  (333) 
1.07642

>  <r_i_glide_intrahb_reward>  (333) 
-0

>  <i_i_glide_confnum>  (333) 
1

>  <i_i_glide_posenum>  (333) 
25

>  <r_i_glide_eff_state_penalty>  (333) 
0

>  <ligand_id>  (333) 
104

>  <original_smiles>  (333) 
COC1CC2C3CC4OCC56CCC(CC5C2(O1)C41C=CC3O1)c1cccc(O)c16

>  <smiles>  (333) 
[H]Oc1c([H])c([H])c([H])c2c1C13C([H])([H])OC4([H])C([H])([H])C5([H])C6([H])OC4(C([H])=C6[H])C4(OC([H])(OC([H])([H])[H])C([H])([H])C54[H])C1([H])C([H])([H])C2([H])C([H])([H])C3([H])[H]

$$$$
104:0:2
     RDKit          3D

 58 65  0  0  1  0  0  0  0  0999 V2000
    4.0464    5.5005    4.8591 C   0  0  0  0  0  0  0  0  0  0  0  0
    4.3234    4.7579    6.0348 O   0  0  0  0  0  0  0  0  0  0  0  0
    3.1818    4.3554    6.7261 C   0  0  2  0  0  0  0  0  0  0  0  0
    3.6470    3.7253    8.0523 C   0  0  0  0  0  0  0  0  0  0  0  0
    3.4392    2.2174    7.9078 C   0  0  2  0  0  0  0  0  0  0  0  0
    4.7230    1.3271    7.7505 C   0  0  1  0  0  0  0  0  0  0  0  0
    4.2079   -0.1245    7.7458 C   0  0  0  0  0  0  0  0  0  0  0  0
    3.3142   -0.3429    6.4943 C   0  0  1  0  0  0  0  0  0  0  0  0
    2.0254   -0.8514    6.8362 O   0  0  0  0  0  0  0  0  0  0  0  0
    1.0734   -0.6509    5.7933 C   0  0  0  0  0  0  0  0  0  0  0  0
    0.2763    0.6412    6.1327 C   0  0  1  0  0  0  0  0  0  0  0  0
   -0.9090    0.1602    7.0392 C   0  0  0  0  0  0  0  0  0  0  0  0
   -1.7815    1.3269    7.5612 C   0  0  0  0  0  0  0  0  0  0  0  0
   -1.2598    2.6443    6.9793 C   0  0  1  0  0  0  0  0  0  0  0  0
    0.1879    2.8530    7.4536 C   0  0  0  0  0  0  0  0  0  0  0  0
    1.1063    1.6559    7.0130 C   0  0  2  0  0  0  0  0  0  0  0  0
    2.5961    2.0479    6.5734 C   0  0  1  0  0  0  0  0  0  0  0  0
    2.4445    3.3832    6.0204 O   0  0  0  0  0  0  0  0  0  0  0  0
    3.2915    0.9455    5.5601 C   0  0  2  0  0  0  0  0  0  0  0  0
    4.5009    0.5234    4.7081 C   0  0  0  0  0  0  0  0  0  0  0  0
    5.6833    0.6931    5.3194 C   0  0  0  0  0  0  0  0  0  0  0  0
    5.3943    1.6815    6.3806 C   0  0  1  0  0  0  0  0  0  0  0  0
    4.2237    2.0441    5.7176 O   0  0  0  0  0  0  0  0  0  0  0  0
   -1.2124    2.4949    5.4727 C   0  0  0  0  0  0  0  0  0  0  0  0
   -1.9021    3.3525    4.6105 C   0  0  0  0  0  0  0  0  0  0  0  0
   -1.7967    3.1565    3.2246 C   0  0  0  0  0  0  0  0  0  0  0  0
   -1.0158    2.0917    2.7306 C   0  0  0  0  0  0  0  0  0  0  0  0
   -0.3269    1.2224    3.5911 C   0  0  0  0  0  0  0  0  0  0  0  0
    0.3926    0.2130    3.0106 O   0  0  0  0  0  0  0  0  0  0  0  0
   -0.4078    1.4273    4.9933 C   0  0  0  0  0  0  0  0  0  0  0  0
    4.9870    5.8042    4.4007 H   0  0  0  0  0  0  0  0  0  0  0  0
    3.4846    6.4077    5.0851 H   0  0  0  0  0  0  0  0  0  0  0  0
    3.4881    4.9072    4.1336 H   0  0  0  0  0  0  0  0  0  0  0  0
    2.5528    5.2309    6.9041 H   0  0  0  0  0  0  0  0  0  0  0  0
    4.6718    4.0118    8.2920 H   0  0  0  0  0  0  0  0  0  0  0  0
    2.9960    4.1045    8.8384 H   0  0  0  0  0  0  0  0  0  0  0  0
    2.9178    1.8864    8.8084 H   0  0  0  0  0  0  0  0  0  0  0  0
    5.4139    1.4746    8.5795 H   0  0  0  0  0  0  0  0  0  0  0  0
    5.0607   -0.8054    7.7196 H   0  0  0  0  0  0  0  0  0  0  0  0
    3.6585   -0.3525    8.6620 H   0  0  0  0  0  0  0  0  0  0  0  0
    3.7428   -1.2055    5.9706 H   0  0  0  0  0  0  0  0  0  0  0  0
    1.5803   -0.6577    4.8327 H   0  0  0  0  0  0  0  0  0  0  0  0
    0.4116   -1.5167    5.7557 H   0  0  0  0  0  0  0  0  0  0  0  0
   -1.5418   -0.5127    6.4583 H   0  0  0  0  0  0  0  0  0  0  0  0
   -0.5335   -0.4210    7.8833 H   0  0  0  0  0  0  0  0  0  0  0  0
   -2.8193    1.1881    7.2556 H   0  0  0  0  0  0  0  0  0  0  0  0
   -1.7807    1.3602    8.6513 H   0  0  0  0  0  0  0  0  0  0  0  0
   -1.8952    3.4787    7.2704 H   0  0  0  0  0  0  0  0  0  0  0  0
    0.4950    3.8148    7.0544 H   0  0  0  0  0  0  0  0  0  0  0  0
    0.2240    2.9718    8.5368 H   0  0  0  0  0  0  0  0  0  0  0  0
    1.2276    1.0852    7.9351 H   0  0  0  0  0  0  0  0  0  0  0  0
    4.3631    0.0133    3.7735 H   0  0  0  0  0  0  0  0  0  0  0  0
    6.6593    0.4404    4.9427 H   0  0  0  0  0  0  0  0  0  0  0  0
    6.0848    2.5210    6.4017 H   0  0  0  0  0  0  0  0  0  0  0  0
   -2.4988    4.1632    5.0041 H   0  0  0  0  0  0  0  0  0  0  0  0
   -2.2974    3.8145    2.5294 H   0  0  0  0  0  0  0  0  0  0  0  0
   -0.9415    1.9515    1.6625 H   0  0  0  0  0  0  0  0  0  0  0  0
    0.4358    0.2989    2.0663 H   0  0  0  0  0  0  0  0  0  0  0  0
  1  2  1  0
  1 31  1  0
  1 32  1  0
  1 33  1  0
  2  3  1  0
  3 18  1  0
  3  4  1  0
  3 34  1  1
  4  5  1  0
  4 35  1  0
  4 36  1  0
  5 17  1  0
  5  6  1  0
  5 37  1  1
  6 22  1  0
  6  7  1  0
  6 38  1  1
  7  8  1  0
  7 39  1  0
  7 40  1  0
  8 19  1  0
  8  9  1  0
  8 41  1  6
  9 10  1  0
 11 10  1  6
 10 42  1  0
 10 43  1  0
 11 16  1  0
 11 30  1  0
 11 12  1  0
 12 13  1  0
 12 44  1  0
 12 45  1  0
 13 14  1  0
 13 46  1  0
 13 47  1  0
 14 15  1  0
 14 24  1  0
 14 48  1  6
 15 16  1  0
 15 49  1  0
 15 50  1  0
 16 17  1  0
 16 51  1  1
 17 18  1  6
 17 19  1  0
 19 23  1  0
 19 20  1  6
 20 21  2  0
 20 52  1  0
 21 22  1  0
 21 53  1  0
 22 23  1  0
 22 54  1  1
 24 30  2  0
 24 25  1  0
 25 26  2  0
 25 55  1  0
 26 27  1  0
 26 56  1  0
 27 28  2  0
 27 57  1  0
 28 29  1  0
 28 30  1  0
 29 58  1  0
M  END
>  <i_m_ct_stereo_status>  (334) 
1

>  <s_m_source_file>  (334) 
/var/tmp/pbs.5076255.sched01/tmpimq9cq4v/129n8p27m2m.sdf

>  <i_m_source_file_index>  (334) 
21

>  <i_lp_mmshare_version>  (334) 
48012

>  <i_f3d_flags>  (334) 
0

>  <s_epik_input>  (334) 
W0NIM11PW0NAQEhdKE8xKVtDSDJdW0NAQEhdMltDQEhdKFtDQEhdKE8zKVtDSF09W0NIXTQpW0NIMl1bQ0BASF0oT1tDSDJdNSlbQ0BAXTM0W0NAXTEyW0NASF0oW0NAQF01NjcpW0NIMl1bQ0BIXShbQ0gyXVtDSDJdNiljOGM3YyhbT0hdKVtjSF1bY0hdW2NIXTg=

>  <s_epik_cmdline>  (334) 
J2VwaWtfcHl0aG9uJywgJy1waHQnLCAnMi4wJywgJy1waCcsICc3LjAnLCAnLXRuJywgJzgnLCAnLW1hJywgJzIwMCcsICctaW1hZScsICc8aW5maWxlLm1hZT4nLCAnLW9tYWUnLCAnPG91dGZpbGUubWFlPic=

>  <r_lp_tautomer_probability>  (334) 
1

>  <r_epik_Ionization_Penalty>  (334) 
9.80851e-05

>  <r_epik_Ionization_Penalty_Charging>  (334) 
0

>  <r_epik_Ionization_Penalty_Neutral>  (334) 
9.80851e-05

>  <r_epik_State_Penalty>  (334) 
-0

>  <r_epik_Charging_Adjusted_Penalty>  (334) 
0

>  <i_epik_Tot_Q>  (334) 
0

>  <i_epik_Tot_abs_Q>  (334) 
0

>  <s_epik_Chemistry_Notes>  (334) 
This compound contains an acetal/aminal-like group ( X-CH(R)-Y where X, Y are N, S, or O) that may be acid/base labile, releasing an aldehyde.

>  <s_lp_Force_Field>  (334) 
OPLS3e

>  <r_lp_Energy>  (334) 
210.41

>  <b_lp_Chiralities_Consistent>  (334) 
1

>  <s_lp_Variant>  (334) 
104:0-1

>  <s_i_glide_gridfile>  (334) 
pfpi4k_grid

>  <i_i_glide_lignum>  (334) 
21

>  <i_i_glide_rotatable_bonds>  (334) 
2

>  <r_i_docking_score>  (334) 
-1.57112

>  <r_i_glide_ligand_efficiency>  (334) 
-0.0523706

>  <r_i_glide_ligand_efficiency_sa>  (334) 
-0.162728

>  <r_i_glide_ligand_efficiency_ln>  (334) 
-0.356975

>  <r_i_glide_gscore>  (334) 
-1.57112

>  <r_i_glide_lipo>  (334) 
-0.186759

>  <r_i_glide_hbond>  (334) 
0

>  <r_i_glide_metal>  (334) 
-0

>  <r_i_glide_rewards>  (334) 
-0.623953

>  <r_i_glide_evdw>  (334) 
-17.9141

>  <r_i_glide_ecoul>  (334) 
0.901998

>  <r_i_glide_erotb>  (334) 
0

>  <r_i_glide_esite>  (334) 
0

>  <r_i_glide_emodel>  (334) 
-19.4905

>  <r_i_glide_energy>  (334) 
-17.0121

>  <r_i_glide_einternal>  (334) 
0.0902453

>  <r_i_glide_intrahb_reward>  (334) 
-0

>  <i_i_glide_confnum>  (334) 
1

>  <i_i_glide_posenum>  (334) 
10

>  <r_i_glide_eff_state_penalty>  (334) 
0

>  <ligand_id>  (334) 
104

>  <original_smiles>  (334) 
COC1CC2C3CC4OCC56CCC(CC5C2(O1)C41C=CC3O1)c1cccc(O)c16

>  <smiles>  (334) 
[H]Oc1c([H])c([H])c([H])c2c1C13C([H])([H])OC4([H])C([H])([H])C5([H])C6([H])OC4(C([H])=C6[H])C4(OC([H])(OC([H])([H])[H])C([H])([H])C54[H])C1([H])C([H])([H])C2([H])C([H])([H])C3([H])[H]

$$$$
105:0:0
     RDKit          3D

 16 16  0  0  1  0  0  0  0  0999 V2000
    1.8030   -3.6867   -1.8046 N   0  0  0  0  0  0  0  0  0  0  0  0
    2.7897   -2.7542   -2.1193 C   0  0  0  0  0  0  0  0  0  0  0  0
    3.9173   -2.6116   -1.2802 C   0  0  0  0  0  0  0  0  0  0  0  0
    4.8276   -1.5592   -1.4978 C   0  0  0  0  0  0  0  0  0  0  0  0
    4.6131   -0.6609   -2.5674 C   0  0  0  0  0  0  0  0  0  0  0  0
    3.5200   -0.8227   -3.4531 C   0  0  0  0  0  0  0  0  0  0  0  0
    3.2943    0.1338   -4.5543 N   0  0  0  0  0  0  0  0  0  0  0  0
    4.2030    0.8852   -4.8646 O   0  0  0  0  0  0  0  0  0  0  0  0
    2.2142    0.1428   -5.1225 O   0  0  0  0  0  0  0  0  0  0  0  0
    2.6403   -1.9078   -3.2418 C   0  0  0  0  0  0  0  0  0  0  0  0
    2.0706   -4.4781   -1.2404 H   0  0  0  0  0  0  0  0  0  0  0  0
    1.1527   -3.9686   -2.5400 H   0  0  0  0  0  0  0  0  0  0  0  0
    4.0660   -3.2697   -0.4385 H   0  0  0  0  0  0  0  0  0  0  0  0
    5.6644   -1.4054   -0.8309 H   0  0  0  0  0  0  0  0  0  0  0  0
    5.2779    0.1687   -2.6932 H   0  0  0  0  0  0  0  0  0  0  0  0
    1.8153   -2.0472   -3.9117 H   0  0  0  0  0  0  0  0  0  0  0  0
  1  2  1  0
  1 11  1  0
  1 12  1  0
  2 10  2  0
  2  3  1  0
  3  4  2  0
  3 13  1  0
  4  5  1  0
  4 14  1  0
  5  6  2  0
  5 15  1  0
  6  7  1  0
  6 10  1  0
  7  8  2  0
  7  9  1  0
 10 16  1  0
M  CHG  2   7   1   9  -1
M  END
>  <i_m_ct_stereo_status>  (335) 
1

>  <s_m_source_file>  (335) 
/var/tmp/pbs.5076255.sched01/tmpimq9cq4v/129n8p27m2m.sdf

>  <i_m_source_file_index>  (335) 
22

>  <i_lp_mmshare_version>  (335) 
48012

>  <i_f3d_flags>  (335) 
0

>  <s_epik_input>  (335) 
W05IMl1jMVtjSF1bY0hdW2NIXWMoW04rXSg9TylbTy1dKVtjSF0x

>  <s_epik_cmdline>  (335) 
J2VwaWtfcHl0aG9uJywgJy1waHQnLCAnMi4wJywgJy1waCcsICc3LjAnLCAnLXRuJywgJzgnLCAnLW1hJywgJzIwMCcsICctaW1hZScsICc8aW5maWxlLm1hZT4nLCAnLW9tYWUnLCAnPG91dGZpbGUubWFlPic=

>  <r_lp_tautomer_probability>  (335) 
1

>  <r_epik_Ionization_Penalty>  (335) 
1.19737e-05

>  <r_epik_Ionization_Penalty_Charging>  (335) 
0

>  <r_epik_Ionization_Penalty_Neutral>  (335) 
1.19737e-05

>  <r_epik_State_Penalty>  (335) 
-0

>  <r_epik_Charging_Adjusted_Penalty>  (335) 
0

>  <i_epik_Tot_Q>  (335) 
0

>  <i_epik_Tot_abs_Q>  (335) 
2

>  <s_lp_Force_Field>  (335) 
OPLS3e

>  <r_lp_Energy>  (335) 
12.9688

>  <b_lp_Chiralities_Consistent>  (335) 
1

>  <s_lp_Variant>  (335) 
105:0-1

>  <s_i_glide_gridfile>  (335) 
pfpi4k_grid

>  <i_i_glide_lignum>  (335) 
22

>  <i_i_glide_rotatable_bonds>  (335) 
1

>  <r_i_docking_score>  (335) 
-4.12852

>  <r_i_glide_ligand_efficiency>  (335) 
-0.412852

>  <r_i_glide_ligand_efficiency_sa>  (335) 
-0.889462

>  <r_i_glide_ligand_efficiency_ln>  (335) 
-1.25009

>  <r_i_glide_gscore>  (335) 
-4.12852

>  <r_i_glide_lipo>  (335) 
-0.239965

>  <r_i_glide_hbond>  (335) 
-0.33998

>  <r_i_glide_metal>  (335) 
-0

>  <r_i_glide_rewards>  (335) 
-2.40906

>  <r_i_glide_evdw>  (335) 
-14.581

>  <r_i_glide_ecoul>  (335) 
-2.55572

>  <r_i_glide_erotb>  (335) 
0

>  <r_i_glide_esite>  (335) 
-0.0271102

>  <r_i_glide_emodel>  (335) 
-21.3366

>  <r_i_glide_energy>  (335) 
-17.1367

>  <r_i_glide_einternal>  (335) 
0.171362

>  <r_i_glide_intrahb_reward>  (335) 
-0

>  <i_i_glide_confnum>  (335) 
1

>  <i_i_glide_posenum>  (335) 
4

>  <r_i_glide_eff_state_penalty>  (335) 
0

>  <ligand_id>  (335) 
105

>  <original_smiles>  (335) 
Nc1cccc([N+](=O)[O-])c1

>  <smiles>  (335) 
[H]c1c([H])c(N([H])[H])c([H])c([N+](=O)[O-])c1[H]

$$$$
105:0:1
     RDKit          3D

 16 16  0  0  1  0  0  0  0  0999 V2000
    2.9418    0.9202    2.1073 N   0  0  0  0  0  0  0  0  0  0  0  0
    1.6744    1.3717    2.4809 C   0  0  0  0  0  0  0  0  0  0  0  0
    0.5235    0.6667    2.0806 C   0  0  0  0  0  0  0  0  0  0  0  0
   -0.7543    1.1065    2.4815 C   0  0  0  0  0  0  0  0  0  0  0  0
   -0.8850    2.2567    3.2819 C   0  0  0  0  0  0  0  0  0  0  0  0
    0.2637    2.9828    3.6813 C   0  0  0  0  0  0  0  0  0  0  0  0
    0.1313    4.1921    4.5138 N   0  0  0  0  0  0  0  0  0  0  0  0
   -0.9976    4.5606    4.8323 O   0  0  0  0  0  0  0  0  0  0  0  0
    1.1520    4.7724    4.8707 O   0  0  0  0  0  0  0  0  0  0  0  0
    1.5409    2.5289    3.2712 C   0  0  0  0  0  0  0  0  0  0  0  0
    3.0541    0.1325    1.4811 H   0  0  0  0  0  0  0  0  0  0  0  0
    3.7753    1.4679    2.2954 H   0  0  0  0  0  0  0  0  0  0  0  0
    0.6140   -0.2093    1.4572 H   0  0  0  0  0  0  0  0  0  0  0  0
   -1.6410    0.5669    2.1686 H   0  0  0  0  0  0  0  0  0  0  0  0
   -1.8705    2.5800    3.5772 H   0  0  0  0  0  0  0  0  0  0  0  0
    2.4249    3.0725    3.5628 H   0  0  0  0  0  0  0  0  0  0  0  0
  1  2  1  0
  1 11  1  0
  1 12  1  0
  2 10  2  0
  2  3  1  0
  3  4  2  0
  3 13  1  0
  4  5  1  0
  4 14  1  0
  5  6  2  0
  5 15  1  0
  6  7  1  0
  6 10  1  0
  7  8  2  0
  7  9  1  0
 10 16  1  0
M  CHG  2   7   1   9  -1
M  END
>  <i_m_ct_stereo_status>  (336) 
1

>  <s_m_source_file>  (336) 
/var/tmp/pbs.5076255.sched01/tmpimq9cq4v/129n8p27m2m.sdf

>  <i_m_source_file_index>  (336) 
22

>  <i_lp_mmshare_version>  (336) 
48012

>  <i_f3d_flags>  (336) 
0

>  <s_epik_input>  (336) 
W05IMl1jMVtjSF1bY0hdW2NIXWMoW04rXSg9TylbTy1dKVtjSF0x

>  <s_epik_cmdline>  (336) 
J2VwaWtfcHl0aG9uJywgJy1waHQnLCAnMi4wJywgJy1waCcsICc3LjAnLCAnLXRuJywgJzgnLCAnLW1hJywgJzIwMCcsICctaW1hZScsICc8aW5maWxlLm1hZT4nLCAnLW9tYWUnLCAnPG91dGZpbGUubWFlPic=

>  <r_lp_tautomer_probability>  (336) 
1

>  <r_epik_Ionization_Penalty>  (336) 
1.19737e-05

>  <r_epik_Ionization_Penalty_Charging>  (336) 
0

>  <r_epik_Ionization_Penalty_Neutral>  (336) 
1.19737e-05

>  <r_epik_State_Penalty>  (336) 
-0

>  <r_epik_Charging_Adjusted_Penalty>  (336) 
0

>  <i_epik_Tot_Q>  (336) 
0

>  <i_epik_Tot_abs_Q>  (336) 
2

>  <s_lp_Force_Field>  (336) 
OPLS3e

>  <r_lp_Energy>  (336) 
12.9688

>  <b_lp_Chiralities_Consistent>  (336) 
1

>  <s_lp_Variant>  (336) 
105:0-1

>  <s_i_glide_gridfile>  (336) 
pfpi4k_grid

>  <i_i_glide_lignum>  (336) 
22

>  <i_i_glide_rotatable_bonds>  (336) 
1

>  <r_i_docking_score>  (336) 
-3.77511

>  <r_i_glide_ligand_efficiency>  (336) 
-0.377511

>  <r_i_glide_ligand_efficiency_sa>  (336) 
-0.813323

>  <r_i_glide_ligand_efficiency_ln>  (336) 
-1.14308

>  <r_i_glide_gscore>  (336) 
-3.77511

>  <r_i_glide_lipo>  (336) 
0

>  <r_i_glide_hbond>  (336) 
-0.276969

>  <r_i_glide_metal>  (336) 
-0

>  <r_i_glide_rewards>  (336) 
-2.25

>  <r_i_glide_evdw>  (336) 
-12.1575

>  <r_i_glide_ecoul>  (336) 
-3.50448

>  <r_i_glide_erotb>  (336) 
0

>  <r_i_glide_esite>  (336) 
-0.114596

>  <r_i_glide_emodel>  (336) 
-20.2624

>  <r_i_glide_energy>  (336) 
-15.662

>  <r_i_glide_einternal>  (336) 
0.00104343

>  <r_i_glide_intrahb_reward>  (336) 
-0

>  <i_i_glide_confnum>  (336) 
1

>  <i_i_glide_posenum>  (336) 
30

>  <r_i_glide_eff_state_penalty>  (336) 
0

>  <ligand_id>  (336) 
105

>  <original_smiles>  (336) 
Nc1cccc([N+](=O)[O-])c1

>  <smiles>  (336) 
[H]c1c([H])c(N([H])[H])c([H])c([N+](=O)[O-])c1[H]

$$$$
105:0:2
     RDKit          3D

 16 16  0  0  1  0  0  0  0  0999 V2000
    0.6091    1.7447    1.7195 N   0  0  0  0  0  0  0  0  0  0  0  0
   -0.1681    1.5190    2.8466 C   0  0  0  0  0  0  0  0  0  0  0  0
   -0.8385    2.5956    3.4763 C   0  0  0  0  0  0  0  0  0  0  0  0
   -1.5972    2.3754    4.6503 C   0  0  0  0  0  0  0  0  0  0  0  0
   -1.6915    1.0713    5.1855 C   0  0  0  0  0  0  0  0  0  0  0  0
   -1.0309   -0.0073    4.5510 C   0  0  0  0  0  0  0  0  0  0  0  0
   -1.1400   -1.3604    5.0942 N   0  0  0  0  0  0  0  0  0  0  0  0
   -2.1716   -1.6506    5.6800 O   0  0  0  0  0  0  0  0  0  0  0  0
   -0.2075   -2.1359    4.9237 O   0  0  0  0  0  0  0  0  0  0  0  0
   -0.2708    0.2235    3.3841 C   0  0  0  0  0  0  0  0  0  0  0  0
    0.5912    2.6758    1.2693 H   0  0  0  0  0  0  0  0  0  0  0  0
    0.9789    0.9993    1.1435 H   0  0  0  0  0  0  0  0  0  0  0  0
   -0.7571    3.5855    3.0631 H   0  0  0  0  0  0  0  0  0  0  0  0
   -2.0899    3.2009    5.1427 H   0  0  0  0  0  0  0  0  0  0  0  0
   -2.2683    0.9052    6.0831 H   0  0  0  0  0  0  0  0  0  0  0  0
    0.2214   -0.6032    2.8935 H   0  0  0  0  0  0  0  0  0  0  0  0
  1  2  1  0
  1 11  1  0
  1 12  1  0
  2 10  2  0
  2  3  1  0
  3  4  2  0
  3 13  1  0
  4  5  1  0
  4 14  1  0
  5  6  2  0
  5 15  1  0
  6  7  1  0
  6 10  1  0
  7  8  2  0
  7  9  1  0
 10 16  1  0
M  CHG  2   7   1   9  -1
M  END
>  <i_m_ct_stereo_status>  (337) 
1

>  <s_m_source_file>  (337) 
/var/tmp/pbs.5076255.sched01/tmpimq9cq4v/129n8p27m2m.sdf

>  <i_m_source_file_index>  (337) 
22

>  <i_lp_mmshare_version>  (337) 
48012

>  <i_f3d_flags>  (337) 
0

>  <s_epik_input>  (337) 
W05IMl1jMVtjSF1bY0hdW2NIXWMoW04rXSg9TylbTy1dKVtjSF0x

>  <s_epik_cmdline>  (337) 
J2VwaWtfcHl0aG9uJywgJy1waHQnLCAnMi4wJywgJy1waCcsICc3LjAnLCAnLXRuJywgJzgnLCAnLW1hJywgJzIwMCcsICctaW1hZScsICc8aW5maWxlLm1hZT4nLCAnLW9tYWUnLCAnPG91dGZpbGUubWFlPic=

>  <r_lp_tautomer_probability>  (337) 
1

>  <r_epik_Ionization_Penalty>  (337) 
1.19737e-05

>  <r_epik_Ionization_Penalty_Charging>  (337) 
0

>  <r_epik_Ionization_Penalty_Neutral>  (337) 
1.19737e-05

>  <r_epik_State_Penalty>  (337) 
-0

>  <r_epik_Charging_Adjusted_Penalty>  (337) 
0

>  <i_epik_Tot_Q>  (337) 
0

>  <i_epik_Tot_abs_Q>  (337) 
2

>  <s_lp_Force_Field>  (337) 
OPLS3e

>  <r_lp_Energy>  (337) 
12.9688

>  <b_lp_Chiralities_Consistent>  (337) 
1

>  <s_lp_Variant>  (337) 
105:0-1

>  <s_i_glide_gridfile>  (337) 
pfpi4k_grid

>  <i_i_glide_lignum>  (337) 
22

>  <i_i_glide_rotatable_bonds>  (337) 
1

>  <r_i_docking_score>  (337) 
-3.68832

>  <r_i_glide_ligand_efficiency>  (337) 
-0.368832

>  <r_i_glide_ligand_efficiency_sa>  (337) 
-0.794625

>  <r_i_glide_ligand_efficiency_ln>  (337) 
-1.1168

>  <r_i_glide_gscore>  (337) 
-3.68832

>  <r_i_glide_lipo>  (337) 
0

>  <r_i_glide_hbond>  (337) 
-0.16

>  <r_i_glide_metal>  (337) 
-0

>  <r_i_glide_rewards>  (337) 
-2.25

>  <r_i_glide_evdw>  (337) 
-12.5092

>  <r_i_glide_ecoul>  (337) 
-3.22143

>  <r_i_glide_erotb>  (337) 
0

>  <r_i_glide_esite>  (337) 
-0.16965

>  <r_i_glide_emodel>  (337) 
-19.6387

>  <r_i_glide_energy>  (337) 
-15.7306

>  <r_i_glide_einternal>  (337) 
0.901936

>  <r_i_glide_intrahb_reward>  (337) 
-0

>  <i_i_glide_confnum>  (337) 
1

>  <i_i_glide_posenum>  (337) 
2

>  <r_i_glide_eff_state_penalty>  (337) 
0

>  <ligand_id>  (337) 
105

>  <original_smiles>  (337) 
Nc1cccc([N+](=O)[O-])c1

>  <smiles>  (337) 
[H]c1c([H])c(N([H])[H])c([H])c([N+](=O)[O-])c1[H]

$$$$
107:0:0
     RDKit          3D

 22 22  0  0  1  0  0  0  0  0999 V2000
    2.0224    0.7319   -5.0964 C   0  0  0  0  0  0  0  0  0  0  0  0
    3.8004    0.5644   -4.8428 S   0  0  0  0  0  0  0  0  0  0  0  0
    3.9162   -0.6794   -3.6131 C   0  0  0  0  0  0  0  0  0  0  0  0
    3.4362   -1.9137   -3.7372 C   0  0  0  0  0  0  0  0  0  0  0  0
    3.6312   -2.9079   -2.6268 C   0  0  0  0  0  0  0  0  0  0  0  0
    2.2707   -3.4965   -2.2555 C   0  0  0  0  0  0  0  0  0  0  0  0
    4.6529   -3.9612   -3.0722 C   0  0  0  0  0  0  0  0  0  0  0  0
    4.1749   -2.3248   -1.4319 O   0  0  0  0  0  0  0  0  0  0  0  0
    4.7295   -1.0778   -1.3235 C   0  0  0  0  0  0  0  0  0  0  0  0
    5.2956   -0.7109   -0.2932 O   0  0  0  0  0  0  0  0  0  0  0  0
    4.6018   -0.3028   -2.4693 N   0  0  0  0  0  0  0  0  0  0  0  0
    1.8454    1.5845   -5.7449 H   0  0  0  0  0  0  0  0  0  0  0  0
    1.4983    0.9291   -4.1680 H   0  0  0  0  0  0  0  0  0  0  0  0
    1.5899   -0.1779   -5.5158 H   0  0  0  0  0  0  0  0  0  0  0  0
    2.9153   -2.2431   -4.6245 H   0  0  0  0  0  0  0  0  0  0  0  0
    1.8156   -3.9918   -3.1103 H   0  0  0  0  0  0  0  0  0  0  0  0
    1.5802   -2.7231   -1.9237 H   0  0  0  0  0  0  0  0  0  0  0  0
    2.3705   -4.2286   -1.4547 H   0  0  0  0  0  0  0  0  0  0  0  0
    4.3204   -4.5009   -3.9605 H   0  0  0  0  0  0  0  0  0  0  0  0
    4.8220   -4.6855   -2.2747 H   0  0  0  0  0  0  0  0  0  0  0  0
    5.6206   -3.5080   -3.2976 H   0  0  0  0  0  0  0  0  0  0  0  0
    4.9623    0.6461   -2.4009 H   0  0  0  0  0  0  0  0  0  0  0  0
  1  2  1  0
  1 12  1  0
  1 13  1  0
  1 14  1  0
  2  3  1  0
  3 11  1  0
  3  4  2  0
  4  5  1  0
  4 15  1  0
  5  6  1  0
  5  7  1  0
  5  8  1  0
  6 16  1  0
  6 17  1  0
  6 18  1  0
  7 19  1  0
  7 20  1  0
  7 21  1  0
  8  9  1  0
  9 10  2  0
  9 11  1  0
 11 22  1  0
M  END
>  <i_m_ct_stereo_status>  (338) 
1

>  <s_m_source_file>  (338) 
/var/tmp/pbs.5076255.sched01/tmpimq9cq4v/129n8p27m2m.sdf

>  <i_m_source_file_index>  (338) 
24

>  <i_lp_mmshare_version>  (338) 
48012

>  <i_f3d_flags>  (338) 
0

>  <s_epik_input>  (338) 
TzFDKD1PKVtOSF1DKFNbQ0gzXSk9W0NIXUMxKFtDSDNdKVtDSDNd

>  <s_epik_cmdline>  (338) 
J2VwaWtfcHl0aG9uJywgJy1waHQnLCAnMi4wJywgJy1waCcsICc3LjAnLCAnLXRuJywgJzgnLCAnLW1hJywgJzIwMCcsICctaW1hZScsICc8aW5maWxlLm1hZT4nLCAnLW9tYWUnLCAnPG91dGZpbGUubWFlPic=

>  <r_lp_tautomer_probability>  (338) 
1

>  <r_epik_Ionization_Penalty>  (338) 
6.84806e-05

>  <r_epik_Ionization_Penalty_Charging>  (338) 
0

>  <r_epik_Ionization_Penalty_Neutral>  (338) 
6.84806e-05

>  <r_epik_State_Penalty>  (338) 
-0

>  <r_epik_Charging_Adjusted_Penalty>  (338) 
0

>  <i_epik_Tot_Q>  (338) 
0

>  <i_epik_Tot_abs_Q>  (338) 
0

>  <s_epik_Chemistry_Notes>  (338) 
This compound has an ester and may undergo hydrolysis at high or low pH.

>  <s_lp_Force_Field>  (338) 
OPLS3e

>  <r_lp_Energy>  (338) 
5.47463

>  <b_lp_Chiralities_Consistent>  (338) 
1

>  <s_lp_Variant>  (338) 
107:0-1

>  <s_i_glide_gridfile>  (338) 
pfpi4k_grid

>  <i_i_glide_lignum>  (338) 
24

>  <i_i_glide_rotatable_bonds>  (338) 
1

>  <r_i_docking_score>  (338) 
-4.57453

>  <r_i_glide_ligand_efficiency>  (338) 
-0.415867

>  <r_i_glide_ligand_efficiency_sa>  (338) 
-0.924879

>  <r_i_glide_ligand_efficiency_ln>  (338) 
-1.34628

>  <r_i_glide_gscore>  (338) 
-4.57453

>  <r_i_glide_lipo>  (338) 
-0.734717

>  <r_i_glide_hbond>  (338) 
-0.281162

>  <r_i_glide_metal>  (338) 
-0

>  <r_i_glide_rewards>  (338) 
-2.22795

>  <r_i_glide_evdw>  (338) 
-18.9583

>  <r_i_glide_ecoul>  (338) 
-2.25086

>  <r_i_glide_erotb>  (338) 
0

>  <r_i_glide_esite>  (338) 
-0.0451585

>  <r_i_glide_emodel>  (338) 
-25.9626

>  <r_i_glide_energy>  (338) 
-21.2092

>  <r_i_glide_einternal>  (338) 
1.91905

>  <r_i_glide_intrahb_reward>  (338) 
-0

>  <i_i_glide_confnum>  (338) 
1

>  <i_i_glide_posenum>  (338) 
5

>  <r_i_glide_eff_state_penalty>  (338) 
0

>  <ligand_id>  (338) 
107

>  <original_smiles>  (338) 
CSC1=CC(C)(C)OC(=O)N1

>  <smiles>  (338) 
[H]C1=C(SC([H])([H])[H])N([H])C(=O)OC1(C([H])([H])[H])C([H])([H])[H]

$$$$
107:0:1
     RDKit          3D

 22 22  0  0  1  0  0  0  0  0999 V2000
   -1.6291   -9.1318    2.2371 C   0  0  0  0  0  0  0  0  0  0  0  0
   -1.7889   -7.9621    3.6162 S   0  0  0  0  0  0  0  0  0  0  0  0
   -0.3100   -6.9924    3.5270 C   0  0  0  0  0  0  0  0  0  0  0  0
    0.1787   -6.2626    4.5344 C   0  0  0  0  0  0  0  0  0  0  0  0
    1.4533   -5.4735    4.3601 C   0  0  0  0  0  0  0  0  0  0  0  0
    1.2247   -4.0137    4.7785 C   0  0  0  0  0  0  0  0  0  0  0  0
    2.5775   -6.1271    5.1771 C   0  0  0  0  0  0  0  0  0  0  0  0
    1.9108   -5.4552    2.9982 O   0  0  0  0  0  0  0  0  0  0  0  0
    1.4523   -6.2463    1.9734 C   0  0  0  0  0  0  0  0  0  0  0  0
    1.9681   -6.2318    0.8613 O   0  0  0  0  0  0  0  0  0  0  0  0
    0.3348   -7.0055    2.2956 N   0  0  0  0  0  0  0  0  0  0  0  0
   -2.4460   -9.8493    2.2697 H   0  0  0  0  0  0  0  0  0  0  0  0
   -0.6850   -9.6753    2.2982 H   0  0  0  0  0  0  0  0  0  0  0  0
   -1.6708   -8.6164    1.2798 H   0  0  0  0  0  0  0  0  0  0  0  0
   -0.3055   -6.2286    5.4996 H   0  0  0  0  0  0  0  0  0  0  0  0
    0.9174   -3.9410    5.8221 H   0  0  0  0  0  0  0  0  0  0  0  0
    0.4485   -3.5471    4.1706 H   0  0  0  0  0  0  0  0  0  0  0  0
    2.1332   -3.4212    4.6610 H   0  0  0  0  0  0  0  0  0  0  0  0
    2.3345   -6.1692    6.2399 H   0  0  0  0  0  0  0  0  0  0  0  0
    3.5181   -5.5834    5.0649 H   0  0  0  0  0  0  0  0  0  0  0  0
    2.7511   -7.1502    4.8359 H   0  0  0  0  0  0  0  0  0  0  0  0
    0.0001   -7.6316    1.5771 H   0  0  0  0  0  0  0  0  0  0  0  0
  1  2  1  0
  1 12  1  0
  1 13  1  0
  1 14  1  0
  2  3  1  0
  3 11  1  0
  3  4  2  0
  4  5  1  0
  4 15  1  0
  5  6  1  0
  5  7  1  0
  5  8  1  0
  6 16  1  0
  6 17  1  0
  6 18  1  0
  7 19  1  0
  7 20  1  0
  7 21  1  0
  8  9  1  0
  9 10  2  0
  9 11  1  0
 11 22  1  0
M  END
>  <i_m_ct_stereo_status>  (339) 
1

>  <s_m_source_file>  (339) 
/var/tmp/pbs.5076255.sched01/tmpimq9cq4v/129n8p27m2m.sdf

>  <i_m_source_file_index>  (339) 
24

>  <i_lp_mmshare_version>  (339) 
48012

>  <i_f3d_flags>  (339) 
0

>  <s_epik_input>  (339) 
TzFDKD1PKVtOSF1DKFNbQ0gzXSk9W0NIXUMxKFtDSDNdKVtDSDNd

>  <s_epik_cmdline>  (339) 
J2VwaWtfcHl0aG9uJywgJy1waHQnLCAnMi4wJywgJy1waCcsICc3LjAnLCAnLXRuJywgJzgnLCAnLW1hJywgJzIwMCcsICctaW1hZScsICc8aW5maWxlLm1hZT4nLCAnLW9tYWUnLCAnPG91dGZpbGUubWFlPic=

>  <r_lp_tautomer_probability>  (339) 
1

>  <r_epik_Ionization_Penalty>  (339) 
6.84806e-05

>  <r_epik_Ionization_Penalty_Charging>  (339) 
0

>  <r_epik_Ionization_Penalty_Neutral>  (339) 
6.84806e-05

>  <r_epik_State_Penalty>  (339) 
-0

>  <r_epik_Charging_Adjusted_Penalty>  (339) 
0

>  <i_epik_Tot_Q>  (339) 
0

>  <i_epik_Tot_abs_Q>  (339) 
0

>  <s_epik_Chemistry_Notes>  (339) 
This compound has an ester and may undergo hydrolysis at high or low pH.

>  <s_lp_Force_Field>  (339) 
OPLS3e

>  <r_lp_Energy>  (339) 
5.47463

>  <b_lp_Chiralities_Consistent>  (339) 
1

>  <s_lp_Variant>  (339) 
107:0-1

>  <s_i_glide_gridfile>  (339) 
pfpi4k_grid

>  <i_i_glide_lignum>  (339) 
24

>  <i_i_glide_rotatable_bonds>  (339) 
1

>  <r_i_docking_score>  (339) 
-3.57988

>  <r_i_glide_ligand_efficiency>  (339) 
-0.325443

>  <r_i_glide_ligand_efficiency_sa>  (339) 
-0.723779

>  <r_i_glide_ligand_efficiency_ln>  (339) 
-1.05356

>  <r_i_glide_gscore>  (339) 
-3.57988

>  <r_i_glide_lipo>  (339) 
-0.247007

>  <r_i_glide_hbond>  (339) 
0

>  <r_i_glide_metal>  (339) 
-0

>  <r_i_glide_rewards>  (339) 
-2.22795

>  <r_i_glide_evdw>  (339) 
-15.6385

>  <r_i_glide_ecoul>  (339) 
-1.33246

>  <r_i_glide_erotb>  (339) 
0

>  <r_i_glide_esite>  (339) 
-0.123126

>  <r_i_glide_emodel>  (339) 
-21.2824

>  <r_i_glide_energy>  (339) 
-16.9709

>  <r_i_glide_einternal>  (339) 
0.385345

>  <r_i_glide_intrahb_reward>  (339) 
-0

>  <i_i_glide_confnum>  (339) 
1

>  <i_i_glide_posenum>  (339) 
2

>  <r_i_glide_eff_state_penalty>  (339) 
0

>  <ligand_id>  (339) 
107

>  <original_smiles>  (339) 
CSC1=CC(C)(C)OC(=O)N1

>  <smiles>  (339) 
[H]C1=C(SC([H])([H])[H])N([H])C(=O)OC1(C([H])([H])[H])C([H])([H])[H]

$$$$
107:0:2
     RDKit          3D

 22 22  0  0  1  0  0  0  0  0999 V2000
    5.4961   -1.4869    2.0633 C   0  0  0  0  0  0  0  0  0  0  0  0
    6.1826   -1.4537    0.3802 S   0  0  0  0  0  0  0  0  0  0  0  0
    4.9232   -2.2068   -0.6149 C   0  0  0  0  0  0  0  0  0  0  0  0
    4.7750   -1.9981   -1.9259 C   0  0  0  0  0  0  0  0  0  0  0  0
    3.6863   -2.7170   -2.6901 C   0  0  0  0  0  0  0  0  0  0  0  0
    2.8488   -1.6993   -3.4664 C   0  0  0  0  0  0  0  0  0  0  0  0
    4.3204   -3.7518   -3.6265 C   0  0  0  0  0  0  0  0  0  0  0  0
    2.7836   -3.4302   -1.8344 O   0  0  0  0  0  0  0  0  0  0  0  0
    2.9847   -3.7307   -0.5103 C   0  0  0  0  0  0  0  0  0  0  0  0
    2.2346   -4.4888    0.1012 O   0  0  0  0  0  0  0  0  0  0  0  0
    4.0871   -3.0947    0.0517 N   0  0  0  0  0  0  0  0  0  0  0  0
    6.2280   -1.1113    2.7753 H   0  0  0  0  0  0  0  0  0  0  0  0
    5.2253   -2.5013    2.3659 H   0  0  0  0  0  0  0  0  0  0  0  0
    4.6059   -0.8558    2.1051 H   0  0  0  0  0  0  0  0  0  0  0  0
    5.4122   -1.3218   -2.4773 H   0  0  0  0  0  0  0  0  0  0  0  0
    3.4476   -1.1299   -4.1737 H   0  0  0  0  0  0  0  0  0  0  0  0
    2.3895   -0.9934   -2.7720 H   0  0  0  0  0  0  0  0  0  0  0  0
    2.0498   -2.1956   -4.0211 H   0  0  0  0  0  0  0  0  0  0  0  0
    5.0091   -3.2926   -4.3226 H   0  0  0  0  0  0  0  0  0  0  0  0
    3.5561   -4.2778   -4.2012 H   0  0  0  0  0  0  0  0  0  0  0  0
    4.8820   -4.4938   -3.0561 H   0  0  0  0  0  0  0  0  0  0  0  0
    4.2682   -3.2949    1.0239 H   0  0  0  0  0  0  0  0  0  0  0  0
  1  2  1  0
  1 12  1  0
  1 13  1  0
  1 14  1  0
  2  3  1  0
  3 11  1  0
  3  4  2  0
  4  5  1  0
  4 15  1  0
  5  6  1  0
  5  7  1  0
  5  8  1  0
  6 16  1  0
  6 17  1  0
  6 18  1  0
  7 19  1  0
  7 20  1  0
  7 21  1  0
  8  9  1  0
  9 10  2  0
  9 11  1  0
 11 22  1  0
M  END
>  <i_m_ct_stereo_status>  (340) 
1

>  <s_m_source_file>  (340) 
/var/tmp/pbs.5076255.sched01/tmpimq9cq4v/129n8p27m2m.sdf

>  <i_m_source_file_index>  (340) 
24

>  <i_lp_mmshare_version>  (340) 
48012

>  <i_f3d_flags>  (340) 
0

>  <s_epik_input>  (340) 
TzFDKD1PKVtOSF1DKFNbQ0gzXSk9W0NIXUMxKFtDSDNdKVtDSDNd

>  <s_epik_cmdline>  (340) 
J2VwaWtfcHl0aG9uJywgJy1waHQnLCAnMi4wJywgJy1waCcsICc3LjAnLCAnLXRuJywgJzgnLCAnLW1hJywgJzIwMCcsICctaW1hZScsICc8aW5maWxlLm1hZT4nLCAnLW9tYWUnLCAnPG91dGZpbGUubWFlPic=

>  <r_lp_tautomer_probability>  (340) 
1

>  <r_epik_Ionization_Penalty>  (340) 
6.84806e-05

>  <r_epik_Ionization_Penalty_Charging>  (340) 
0

>  <r_epik_Ionization_Penalty_Neutral>  (340) 
6.84806e-05

>  <r_epik_State_Penalty>  (340) 
-0

>  <r_epik_Charging_Adjusted_Penalty>  (340) 
0

>  <i_epik_Tot_Q>  (340) 
0

>  <i_epik_Tot_abs_Q>  (340) 
0

>  <s_epik_Chemistry_Notes>  (340) 
This compound has an ester and may undergo hydrolysis at high or low pH.

>  <s_lp_Force_Field>  (340) 
OPLS3e

>  <r_lp_Energy>  (340) 
5.47463

>  <b_lp_Chiralities_Consistent>  (340) 
1

>  <s_lp_Variant>  (340) 
107:0-1

>  <s_i_glide_gridfile>  (340) 
pfpi4k_grid

>  <i_i_glide_lignum>  (340) 
24

>  <i_i_glide_rotatable_bonds>  (340) 
1

>  <r_i_docking_score>  (340) 
-3.47721

>  <r_i_glide_ligand_efficiency>  (340) 
-0.31611

>  <r_i_glide_ligand_efficiency_sa>  (340) 
-0.703022

>  <r_i_glide_ligand_efficiency_ln>  (340) 
-1.02334

>  <r_i_glide_gscore>  (340) 
-3.47721

>  <r_i_glide_lipo>  (340) 
-0.384779

>  <r_i_glide_hbond>  (340) 
-0.00385078

>  <r_i_glide_metal>  (340) 
-0

>  <r_i_glide_rewards>  (340) 
-2.22795

>  <r_i_glide_evdw>  (340) 
-17.7334

>  <r_i_glide_ecoul>  (340) 
0.259055

>  <r_i_glide_erotb>  (340) 
0

>  <r_i_glide_esite>  (340) 
-0.0128142

>  <r_i_glide_emodel>  (340) 
-21.3993

>  <r_i_glide_energy>  (340) 
-17.4743

>  <r_i_glide_einternal>  (340) 
0.742332

>  <r_i_glide_intrahb_reward>  (340) 
-0

>  <i_i_glide_confnum>  (340) 
2

>  <i_i_glide_posenum>  (340) 
18

>  <r_i_glide_eff_state_penalty>  (340) 
0

>  <ligand_id>  (340) 
107

>  <original_smiles>  (340) 
CSC1=CC(C)(C)OC(=O)N1

>  <smiles>  (340) 
[H]C1=C(SC([H])([H])[H])N([H])C(=O)OC1(C([H])([H])[H])C([H])([H])[H]

$$$$
108:0:0
     RDKit          3D

 28 29  0  0  1  0  0  0  0  0999 V2000
    1.4706  -10.2603    5.2258 C   0  0  0  0  0  0  0  0  0  0  0  0
    1.1605  -10.4777    3.7687 C   0  0  0  0  0  0  0  0  0  0  0  0
    0.6452   -9.2823    3.0880 N   0  0  0  0  0  0  0  0  0  0  0  0
   -0.7191   -9.0466    3.0307 C   0  0  0  0  0  0  0  0  0  0  0  0
   -0.9840   -7.8938    2.3605 C   0  0  0  0  0  0  0  0  0  0  0  0
    0.2746   -7.3789    1.9164 C   0  0  0  0  0  0  0  0  0  0  0  0
    0.5292   -6.2664    1.1936 N   0  0  0  0  0  0  0  0  0  0  0  0
    1.8305   -6.0697    0.9750 C   0  0  0  0  0  0  0  0  0  0  0  0
    2.8731   -6.7747    1.4043 N   0  0  0  0  0  0  0  0  0  0  0  0
    2.6515   -7.8813    2.1274 C   0  0  0  0  0  0  0  0  0  0  0  0
    3.7583   -8.6441    2.5646 N   0  0  0  0  0  0  0  0  0  0  0  0
    3.9196   -9.9164    1.8701 C   0  0  0  0  0  0  0  0  0  0  0  0
    5.0223   -7.9266    2.6869 C   0  0  0  0  0  0  0  0  0  0  0  0
    1.2904   -8.2473    2.4165 C   0  0  0  0  0  0  0  0  0  0  0  0
    1.9633  -11.1647    5.6058 H   0  0  0  0  0  0  0  0  0  0  0  0
    0.5532  -10.0763    5.7895 H   0  0  0  0  0  0  0  0  0  0  0  0
    2.1812   -9.4313    5.3567 H   0  0  0  0  0  0  0  0  0  0  0  0
    2.1437  -10.7872    3.4109 H   0  0  0  0  0  0  0  0  0  0  0  0
    0.5150  -11.3218    3.5354 H   0  0  0  0  0  0  0  0  0  0  0  0
   -1.4035   -9.7616    3.4915 H   0  0  0  0  0  0  0  0  0  0  0  0
   -1.9665   -7.4780    2.1636 H   0  0  0  0  0  0  0  0  0  0  0  0
    2.0630   -5.1951    0.3848 H   0  0  0  0  0  0  0  0  0  0  0  0
    4.6825  -10.5194    2.3705 H   0  0  0  0  0  0  0  0  0  0  0  0
    4.1240   -9.7669    0.8246 H   0  0  0  0  0  0  0  0  0  0  0  0
    3.0082  -10.5277    1.7746 H   0  0  0  0  0  0  0  0  0  0  0  0
    5.7928   -8.5929    3.0832 H   0  0  0  0  0  0  0  0  0  0  0  0
    4.9571   -7.0545    3.3485 H   0  0  0  0  0  0  0  0  0  0  0  0
    5.3582   -7.5944    1.6989 H   0  0  0  0  0  0  0  0  0  0  0  0
  1  2  1  0
  1 15  1  0
  1 16  1  0
  1 17  1  0
  2  3  1  0
  2 18  1  0
  2 19  1  0
  3 14  1  0
  3  4  1  0
  4  5  2  0
  4 20  1  0
  5  6  1  0
  5 21  1  0
  6 14  2  0
  6  7  1  0
  7  8  2  0
  8  9  1  0
  8 22  1  0
  9 10  2  0
 10 11  1  0
 10 14  1  0
 11 12  1  0
 11 13  1  0
 12 23  1  0
 12 24  1  0
 12 25  1  0
 13 26  1  0
 13 27  1  0
 13 28  1  0
M  END
>  <i_m_ct_stereo_status>  (341) 
1

>  <s_m_source_file>  (341) 
/var/tmp/pbs.5076255.sched01/tmpimq9cq4v/129n8p27m2m.sdf

>  <i_m_source_file_index>  (341) 
25

>  <i_lp_mmshare_version>  (341) 
48012

>  <i_f3d_flags>  (341) 
0

>  <s_epik_input>  (341) 
W0NIM11bQ0gyXW4oW2NIXVtjSF0xKWMoYzEyKWMobltjSF1uMilOKFtDSDNdKVtDSDNd

>  <s_epik_cmdline>  (341) 
J2VwaWtfcHl0aG9uJywgJy1waHQnLCAnMi4wJywgJy1waCcsICc3LjAnLCAnLXRuJywgJzgnLCAnLW1hJywgJzIwMCcsICctaW1hZScsICc8aW5maWxlLm1hZT4nLCAnLW9tYWUnLCAnPG91dGZpbGUubWFlPic=

>  <r_lp_tautomer_probability>  (341) 
1

>  <r_epik_Ionization_Penalty>  (341) 
0.00629856

>  <r_epik_Ionization_Penalty_Charging>  (341) 
0

>  <r_epik_Ionization_Penalty_Neutral>  (341) 
0.00629856

>  <r_epik_State_Penalty>  (341) 
0.00117385

>  <r_epik_Charging_Adjusted_Penalty>  (341) 
0.00117385

>  <i_epik_Tot_Q>  (341) 
0

>  <i_epik_Tot_abs_Q>  (341) 
0

>  <s_lp_Force_Field>  (341) 
OPLS3e

>  <r_lp_Energy>  (341) 
30.2085

>  <b_lp_Chiralities_Consistent>  (341) 
1

>  <s_lp_Variant>  (341) 
108:0-1

>  <s_i_glide_gridfile>  (341) 
pfpi4k_grid

>  <i_i_glide_lignum>  (341) 
25

>  <i_i_glide_rotatable_bonds>  (341) 
2

>  <r_i_docking_score>  (341) 
-4.10464

>  <r_i_glide_ligand_efficiency>  (341) 
-0.293188

>  <r_i_glide_ligand_efficiency_sa>  (341) 
-0.706626

>  <r_i_glide_ligand_efficiency_ln>  (341) 
-1.12794

>  <r_i_glide_gscore>  (341) 
-4.10464

>  <r_i_glide_lipo>  (341) 
-0.0652077

>  <r_i_glide_hbond>  (341) 
-0.16

>  <r_i_glide_metal>  (341) 
-0

>  <r_i_glide_rewards>  (341) 
-2.11197

>  <r_i_glide_evdw>  (341) 
-16.7976

>  <r_i_glide_ecoul>  (341) 
-5.62665

>  <r_i_glide_erotb>  (341) 
0

>  <r_i_glide_esite>  (341) 
-0.083589

>  <r_i_glide_emodel>  (341) 
-28.2785

>  <r_i_glide_energy>  (341) 
-22.4242

>  <r_i_glide_einternal>  (341) 
0.135887

>  <r_i_glide_intrahb_reward>  (341) 
-0

>  <i_i_glide_confnum>  (341) 
2

>  <i_i_glide_posenum>  (341) 
9

>  <r_i_glide_eff_state_penalty>  (341) 
0

>  <ligand_id>  (341) 
108

>  <original_smiles>  (341) 
CCn1ccc2ncnc(N(C)C)c21

>  <smiles>  (341) 
[H]c1nc(N(C([H])([H])[H])C([H])([H])[H])c2c(n1)c([H])c([H])n2C([H])([H])C([H])([H])[H]

$$$$
108:0:1
     RDKit          3D

 28 29  0  0  1  0  0  0  0  0999 V2000
    1.1713  -11.2042    4.5577 C   0  0  0  0  0  0  0  0  0  0  0  0
    1.1328  -10.9056    3.0372 C   0  0  0  0  0  0  0  0  0  0  0  0
    0.5984   -9.5865    2.7372 N   0  0  0  0  0  0  0  0  0  0  0  0
   -0.7395   -9.2664    2.8807 C   0  0  0  0  0  0  0  0  0  0  0  0
   -0.9801   -7.9786    2.4727 C   0  0  0  0  0  0  0  0  0  0  0  0
    0.2683   -7.4658    2.0055 C   0  0  0  0  0  0  0  0  0  0  0  0
    0.5380   -6.2642    1.4763 N   0  0  0  0  0  0  0  0  0  0  0  0
    1.8263   -6.0925    1.1527 C   0  0  0  0  0  0  0  0  0  0  0  0
    2.8500   -6.9459    1.3099 N   0  0  0  0  0  0  0  0  0  0  0  0
    2.6005   -8.1605    1.8479 C   0  0  0  0  0  0  0  0  0  0  0  0
    3.6942   -9.0176    2.0709 N   0  0  0  0  0  0  0  0  0  0  0  0
    3.9564   -9.2710    3.4752 C   0  0  0  0  0  0  0  0  0  0  0  0
    4.8980   -8.7933    1.2702 C   0  0  0  0  0  0  0  0  0  0  0  0
    1.2677   -8.4739    2.2105 C   0  0  0  0  0  0  0  0  0  0  0  0
    1.5912  -12.1950    4.7388 H   0  0  0  0  0  0  0  0  0  0  0  0
    0.1678  -11.2075    4.9831 H   0  0  0  0  0  0  0  0  0  0  0  0
    1.7563  -10.4827    5.1302 H   0  0  0  0  0  0  0  0  0  0  0  0
    2.1101  -11.0374    2.5807 H   0  0  0  0  0  0  0  0  0  0  0  0
    0.4949  -11.6402    2.5414 H   0  0  0  0  0  0  0  0  0  0  0  0
   -1.4384   -9.9921    3.2797 H   0  0  0  0  0  0  0  0  0  0  0  0
   -1.9335   -7.4653    2.4811 H   0  0  0  0  0  0  0  0  0  0  0  0
    2.0902   -5.1463    0.7099 H   0  0  0  0  0  0  0  0  0  0  0  0
    3.0217   -9.4303    4.0169 H   0  0  0  0  0  0  0  0  0  0  0  0
    4.4681   -8.4233    3.9414 H   0  0  0  0  0  0  0  0  0  0  0  0
    4.5752  -10.1569    3.5813 H   0  0  0  0  0  0  0  0  0  0  0  0
    4.6655   -8.6735    0.2065 H   0  0  0  0  0  0  0  0  0  0  0  0
    5.5696   -9.6510    1.3778 H   0  0  0  0  0  0  0  0  0  0  0  0
    5.4226   -7.9060    1.6255 H   0  0  0  0  0  0  0  0  0  0  0  0
  1  2  1  0
  1 15  1  0
  1 16  1  0
  1 17  1  0
  2  3  1  0
  2 18  1  0
  2 19  1  0
  3 14  1  0
  3  4  1  0
  4  5  2  0
  4 20  1  0
  5  6  1  0
  5 21  1  0
  6 14  2  0
  6  7  1  0
  7  8  2  0
  8  9  1  0
  8 22  1  0
  9 10  2  0
 10 11  1  0
 10 14  1  0
 11 12  1  0
 11 13  1  0
 12 23  1  0
 12 24  1  0
 12 25  1  0
 13 26  1  0
 13 27  1  0
 13 28  1  0
M  END
>  <i_m_ct_stereo_status>  (342) 
1

>  <s_m_source_file>  (342) 
/var/tmp/pbs.5076255.sched01/tmpimq9cq4v/129n8p27m2m.sdf

>  <i_m_source_file_index>  (342) 
25

>  <i_lp_mmshare_version>  (342) 
48012

>  <i_f3d_flags>  (342) 
0

>  <s_epik_input>  (342) 
W0NIM11bQ0gyXW4oW2NIXVtjSF0xKWMoYzEyKWMobltjSF1uMilOKFtDSDNdKVtDSDNd

>  <s_epik_cmdline>  (342) 
J2VwaWtfcHl0aG9uJywgJy1waHQnLCAnMi4wJywgJy1waCcsICc3LjAnLCAnLXRuJywgJzgnLCAnLW1hJywgJzIwMCcsICctaW1hZScsICc8aW5maWxlLm1hZT4nLCAnLW9tYWUnLCAnPG91dGZpbGUubWFlPic=

>  <r_lp_tautomer_probability>  (342) 
1

>  <r_epik_Ionization_Penalty>  (342) 
0.00629856

>  <r_epik_Ionization_Penalty_Charging>  (342) 
0

>  <r_epik_Ionization_Penalty_Neutral>  (342) 
0.00629856

>  <r_epik_State_Penalty>  (342) 
0.00117385

>  <r_epik_Charging_Adjusted_Penalty>  (342) 
0.00117385

>  <i_epik_Tot_Q>  (342) 
0

>  <i_epik_Tot_abs_Q>  (342) 
0

>  <s_lp_Force_Field>  (342) 
OPLS3e

>  <r_lp_Energy>  (342) 
30.2085

>  <b_lp_Chiralities_Consistent>  (342) 
1

>  <s_lp_Variant>  (342) 
108:0-1

>  <s_i_glide_gridfile>  (342) 
pfpi4k_grid

>  <i_i_glide_lignum>  (342) 
25

>  <i_i_glide_rotatable_bonds>  (342) 
2

>  <r_i_docking_score>  (342) 
-4.07851

>  <r_i_glide_ligand_efficiency>  (342) 
-0.291322

>  <r_i_glide_ligand_efficiency_sa>  (342) 
-0.702128

>  <r_i_glide_ligand_efficiency_ln>  (342) 
-1.12076

>  <r_i_glide_gscore>  (342) 
-4.07851

>  <r_i_glide_lipo>  (342) 
-0.193888

>  <r_i_glide_hbond>  (342) 
-0.16

>  <r_i_glide_metal>  (342) 
-0

>  <r_i_glide_rewards>  (342) 
-2.11851

>  <r_i_glide_evdw>  (342) 
-19.2996

>  <r_i_glide_ecoul>  (342) 
-3.71914

>  <r_i_glide_erotb>  (342) 
0

>  <r_i_glide_esite>  (342) 
-0.0832607

>  <r_i_glide_emodel>  (342) 
-29.4375

>  <r_i_glide_energy>  (342) 
-23.0188

>  <r_i_glide_einternal>  (342) 
0.421167

>  <r_i_glide_intrahb_reward>  (342) 
-0

>  <i_i_glide_confnum>  (342) 
3

>  <i_i_glide_posenum>  (342) 
26

>  <r_i_glide_eff_state_penalty>  (342) 
0

>  <ligand_id>  (342) 
108

>  <original_smiles>  (342) 
CCn1ccc2ncnc(N(C)C)c21

>  <smiles>  (342) 
[H]c1nc(N(C([H])([H])[H])C([H])([H])[H])c2c(n1)c([H])c([H])n2C([H])([H])C([H])([H])[H]

$$$$
108:0:2
     RDKit          3D

 28 29  0  0  1  0  0  0  0  0999 V2000
    3.7704   -7.0731    5.6638 C   0  0  0  0  0  0  0  0  0  0  0  0
    3.1309   -5.7732    5.1850 C   0  0  0  0  0  0  0  0  0  0  0  0
    2.7069   -5.8498    3.7818 N   0  0  0  0  0  0  0  0  0  0  0  0
    3.3967   -5.1690    2.7928 C   0  0  0  0  0  0  0  0  0  0  0  0
    2.8263   -5.3628    1.5658 C   0  0  0  0  0  0  0  0  0  0  0  0
    1.6880   -6.2005    1.7797 C   0  0  0  0  0  0  0  0  0  0  0  0
    0.7733   -6.6296    0.8923 N   0  0  0  0  0  0  0  0  0  0  0  0
   -0.1573   -7.4332    1.4149 C   0  0  0  0  0  0  0  0  0  0  0  0
   -0.3255   -7.7973    2.6884 N   0  0  0  0  0  0  0  0  0  0  0  0
    0.5769   -7.3808    3.6088 C   0  0  0  0  0  0  0  0  0  0  0  0
    0.4008   -7.7874    4.9488 N   0  0  0  0  0  0  0  0  0  0  0  0
   -0.0553   -6.7385    5.8567 C   0  0  0  0  0  0  0  0  0  0  0  0
   -0.3071   -9.0460    5.1542 C   0  0  0  0  0  0  0  0  0  0  0  0
    1.6339   -6.5313    3.1750 C   0  0  0  0  0  0  0  0  0  0  0  0
    3.9563   -7.0061    6.7423 H   0  0  0  0  0  0  0  0  0  0  0  0
    4.7262   -7.2512    5.1489 H   0  0  0  0  0  0  0  0  0  0  0  0
    3.1244   -7.9503    5.5063 H   0  0  0  0  0  0  0  0  0  0  0  0
    2.3323   -5.5097    5.8590 H   0  0  0  0  0  0  0  0  0  0  0  0
    3.7827   -4.9124    5.3048 H   0  0  0  0  0  0  0  0  0  0  0  0
    4.2669   -4.5756    3.0582 H   0  0  0  0  0  0  0  0  0  0  0  0
    3.1551   -4.9519    0.6202 H   0  0  0  0  0  0  0  0  0  0  0  0
   -0.9107   -7.7857    0.7307 H   0  0  0  0  0  0  0  0  0  0  0  0
    0.0005   -7.1002    6.8828 H   0  0  0  0  0  0  0  0  0  0  0  0
   -1.0429   -6.4088    5.5776 H   0  0  0  0  0  0  0  0  0  0  0  0
    0.5098   -5.8292    5.7743 H   0  0  0  0  0  0  0  0  0  0  0  0
   -0.3252   -9.3004    6.2183 H   0  0  0  0  0  0  0  0  0  0  0  0
    0.1367   -9.8982    4.6122 H   0  0  0  0  0  0  0  0  0  0  0  0
   -1.3530   -8.9351    4.8326 H   0  0  0  0  0  0  0  0  0  0  0  0
  1  2  1  0
  1 15  1  0
  1 16  1  0
  1 17  1  0
  2  3  1  0
  2 18  1  0
  2 19  1  0
  3 14  1  0
  3  4  1  0
  4  5  2  0
  4 20  1  0
  5  6  1  0
  5 21  1  0
  6 14  2  0
  6  7  1  0
  7  8  2  0
  8  9  1  0
  8 22  1  0
  9 10  2  0
 10 11  1  0
 10 14  1  0
 11 12  1  0
 11 13  1  0
 12 23  1  0
 12 24  1  0
 12 25  1  0
 13 26  1  0
 13 27  1  0
 13 28  1  0
M  END
>  <i_m_ct_stereo_status>  (343) 
1

>  <s_m_source_file>  (343) 
/var/tmp/pbs.5076255.sched01/tmpimq9cq4v/129n8p27m2m.sdf

>  <i_m_source_file_index>  (343) 
25

>  <i_lp_mmshare_version>  (343) 
48012

>  <i_f3d_flags>  (343) 
0

>  <s_epik_input>  (343) 
W0NIM11bQ0gyXW4oW2NIXVtjSF0xKWMoYzEyKWMobltjSF1uMilOKFtDSDNdKVtDSDNd

>  <s_epik_cmdline>  (343) 
J2VwaWtfcHl0aG9uJywgJy1waHQnLCAnMi4wJywgJy1waCcsICc3LjAnLCAnLXRuJywgJzgnLCAnLW1hJywgJzIwMCcsICctaW1hZScsICc8aW5maWxlLm1hZT4nLCAnLW9tYWUnLCAnPG91dGZpbGUubWFlPic=

>  <r_lp_tautomer_probability>  (343) 
1

>  <r_epik_Ionization_Penalty>  (343) 
0.00629856

>  <r_epik_Ionization_Penalty_Charging>  (343) 
0

>  <r_epik_Ionization_Penalty_Neutral>  (343) 
0.00629856

>  <r_epik_State_Penalty>  (343) 
0.00117385

>  <r_epik_Charging_Adjusted_Penalty>  (343) 
0.00117385

>  <i_epik_Tot_Q>  (343) 
0

>  <i_epik_Tot_abs_Q>  (343) 
0

>  <s_lp_Force_Field>  (343) 
OPLS3e

>  <r_lp_Energy>  (343) 
30.2085

>  <b_lp_Chiralities_Consistent>  (343) 
1

>  <s_lp_Variant>  (343) 
108:0-1

>  <s_i_glide_gridfile>  (343) 
pfpi4k_grid

>  <i_i_glide_lignum>  (343) 
25

>  <i_i_glide_rotatable_bonds>  (343) 
2

>  <r_i_docking_score>  (343) 
-3.45383

>  <r_i_glide_ligand_efficiency>  (343) 
-0.246702

>  <r_i_glide_ligand_efficiency_sa>  (343) 
-0.594587

>  <r_i_glide_ligand_efficiency_ln>  (343) 
-0.949099

>  <r_i_glide_gscore>  (343) 
-3.45383

>  <r_i_glide_lipo>  (343) 
0

>  <r_i_glide_hbond>  (343) 
-0.108973

>  <r_i_glide_metal>  (343) 
-0

>  <r_i_glide_rewards>  (343) 
-2.11197

>  <r_i_glide_evdw>  (343) 
-13.2993

>  <r_i_glide_ecoul>  (343) 
-3.00846

>  <r_i_glide_erotb>  (343) 
0

>  <r_i_glide_esite>  (343) 
-0.116656

>  <r_i_glide_emodel>  (343) 
-21.1571

>  <r_i_glide_energy>  (343) 
-16.3077

>  <r_i_glide_einternal>  (343) 
0.0292632

>  <r_i_glide_intrahb_reward>  (343) 
-0

>  <i_i_glide_confnum>  (343) 
2

>  <i_i_glide_posenum>  (343) 
5

>  <r_i_glide_eff_state_penalty>  (343) 
0

>  <ligand_id>  (343) 
108

>  <original_smiles>  (343) 
CCn1ccc2ncnc(N(C)C)c21

>  <smiles>  (343) 
[H]c1nc(N(C([H])([H])[H])C([H])([H])[H])c2c(n1)c([H])c([H])n2C([H])([H])C([H])([H])[H]

$$$$
111:0:0
     RDKit          3D

 32 34  0  0  1  0  0  0  0  0999 V2000
    3.0144   -0.9917    0.5736 N   0  0  0  0  0  0  0  0  0  0  0  0
    2.7276   -0.3635    1.7044 C   0  0  0  0  0  0  0  0  0  0  0  0
    3.5228   -0.3034    2.6365 O   0  0  0  0  0  0  0  0  0  0  0  0
    1.4981    0.1686    1.6805 N   0  0  0  0  0  0  0  0  0  0  0  0
    0.8109    0.9035    2.7404 C   0  0  2  0  0  0  0  0  0  0  0  0
    1.6281    2.1509    3.1731 C   0  0  0  0  0  0  0  0  0  0  0  0
    0.8797    2.9007    4.2872 C   0  0  1  0  0  0  0  0  0  0  0  0
   -0.4886    3.3759    3.7566 C   0  0  0  0  0  0  0  0  0  0  0  0
   -1.3193    2.1510    3.3276 C   0  0  2  0  0  0  0  0  0  0  0  0
   -1.5353    1.2236    4.5420 C   0  0  0  0  0  0  0  0  0  0  0  0
   -0.1684    0.7398    5.0613 C   0  0  2  0  0  0  0  0  0  0  0  0
   -0.3673   -0.0663    6.1013 F   0  0  0  0  0  0  0  0  0  0  0  0
    0.6827    1.9512    5.4940 C   0  0  0  0  0  0  0  0  0  0  0  0
    0.5700   -0.0301    3.9544 C   0  0  0  0  0  0  0  0  0  0  0  0
   -0.5723    1.3796    2.2150 C   0  0  0  0  0  0  0  0  0  0  0  0
    3.9045   -1.4469    0.4928 H   0  0  0  0  0  0  0  0  0  0  0  0
    2.3018   -1.0527   -0.1572 H   0  0  0  0  0  0  0  0  0  0  0  0
    0.9923    0.0560    0.8082 H   0  0  0  0  0  0  0  0  0  0  0  0
    2.6148    1.8871    3.5538 H   0  0  0  0  0  0  0  0  0  0  0  0
    1.7898    2.8127    2.3244 H   0  0  0  0  0  0  0  0  0  0  0  0
    1.4733    3.7650    4.6000 H   0  0  0  0  0  0  0  0  0  0  0  0
   -1.0156    3.9510    4.5162 H   0  0  0  0  0  0  0  0  0  0  0  0
   -0.3396    4.0331    2.9036 H   0  0  0  0  0  0  0  0  0  0  0  0
   -2.2876    2.4825    2.9494 H   0  0  0  0  0  0  0  0  0  0  0  0
   -2.0804    1.7478    5.3282 H   0  0  0  0  0  0  0  0  0  0  0  0
   -2.1534    0.3692    4.2564 H   0  0  0  0  0  0  0  0  0  0  0  0
    1.6554    1.6083    5.8583 H   0  0  0  0  0  0  0  0  0  0  0  0
    0.2100    2.4787    6.3253 H   0  0  0  0  0  0  0  0  0  0  0  0
   -0.0083   -0.9066    3.6516 H   0  0  0  0  0  0  0  0  0  0  0  0
    1.5117   -0.4133    4.3540 H   0  0  0  0  0  0  0  0  0  0  0  0
   -0.4333    2.0229    1.3480 H   0  0  0  0  0  0  0  0  0  0  0  0
   -1.1776    0.5398    1.8774 H   0  0  0  0  0  0  0  0  0  0  0  0
  1  2  1  0
  1 16  1  0
  1 17  1  0
  2  3  2  0
  2  4  1  0
  5  4  1  6
  4 18  1  0
  5 14  1  0
  5 15  1  0
  5  6  1  0
  6  7  1  0
  6 19  1  0
  6 20  1  0
  7 13  1  0
  7  8  1  0
  7 21  1  1
  8  9  1  0
  8 22  1  0
  8 23  1  0
  9 10  1  0
  9 15  1  0
  9 24  1  6
 10 11  1  0
 10 25  1  0
 10 26  1  0
 11 12  1  1
 11 13  1  0
 11 14  1  0
 13 27  1  0
 13 28  1  0
 14 29  1  0
 14 30  1  0
 15 31  1  0
 15 32  1  0
M  END
>  <i_m_ct_stereo_status>  (344) 
1

>  <s_m_source_file>  (344) 
/var/tmp/pbs.5076255.sched01/tmpimq9cq4v/129n8p27m2m.sdf

>  <i_m_source_file_index>  (344) 
28

>  <i_lp_mmshare_version>  (344) 
48012

>  <i_f3d_flags>  (344) 
0

>  <s_epik_input>  (344) 
W05IMl1DKD1PKVtOSF1bQ0BdMTJbQ0gyXVtDQEhdM1tDSDJdW0NAQEhdKFtDSDJdMilbQ0gyXVtDQF0oRikoW0NIMl0zKVtDSDJdMQ==

>  <s_epik_cmdline>  (344) 
J2VwaWtfcHl0aG9uJywgJy1waHQnLCAnMi4wJywgJy1waCcsICc3LjAnLCAnLXRuJywgJzgnLCAnLW1hJywgJzIwMCcsICctaW1hZScsICc8aW5maWxlLm1hZT4nLCAnLW9tYWUnLCAnPG91dGZpbGUubWFlPic=

>  <r_lp_tautomer_probability>  (344) 
1

>  <r_epik_Ionization_Penalty>  (344) 
5.98802e-05

>  <r_epik_Ionization_Penalty_Charging>  (344) 
0

>  <r_epik_Ionization_Penalty_Neutral>  (344) 
5.98802e-05

>  <r_epik_State_Penalty>  (344) 
-0

>  <r_epik_Charging_Adjusted_Penalty>  (344) 
0

>  <i_epik_Tot_Q>  (344) 
0

>  <i_epik_Tot_abs_Q>  (344) 
0

>  <s_lp_Force_Field>  (344) 
OPLS3e

>  <r_lp_Energy>  (344) 
-18.811

>  <b_lp_Chiralities_Consistent>  (344) 
1

>  <s_lp_Variant>  (344) 
111:0-1

>  <s_i_glide_gridfile>  (344) 
pfpi4k_grid

>  <i_i_glide_lignum>  (344) 
28

>  <i_i_glide_rotatable_bonds>  (344) 
2

>  <r_i_docking_score>  (344) 
-4.3276

>  <r_i_glide_ligand_efficiency>  (344) 
-0.288507

>  <r_i_glide_ligand_efficiency_sa>  (344) 
-0.711518

>  <r_i_glide_ligand_efficiency_ln>  (344) 
-1.16708

>  <r_i_glide_gscore>  (344) 
-4.3276

>  <r_i_glide_lipo>  (344) 
0

>  <r_i_glide_hbond>  (344) 
-0.301642

>  <r_i_glide_metal>  (344) 
-0

>  <r_i_glide_rewards>  (344) 
-1.96184

>  <r_i_glide_evdw>  (344) 
-15.4878

>  <r_i_glide_ecoul>  (344) 
-6.95376

>  <r_i_glide_erotb>  (344) 
0

>  <r_i_glide_esite>  (344) 
-0.246663

>  <r_i_glide_emodel>  (344) 
-29.6959

>  <r_i_glide_energy>  (344) 
-22.4416

>  <r_i_glide_einternal>  (344) 
0.199573

>  <r_i_glide_intrahb_reward>  (344) 
-0

>  <i_i_glide_confnum>  (344) 
2

>  <i_i_glide_posenum>  (344) 
1

>  <r_i_glide_eff_state_penalty>  (344) 
0

>  <ligand_id>  (344) 
111

>  <original_smiles>  (344) 
NC(=O)NC12CC3CC(CC(F)(C3)C1)C2

>  <smiles>  (344) 
[H]N([H])C(=O)N([H])C12C([H])([H])C3([H])C([H])([H])C([H])(C([H])([H])C(F)(C3([H])[H])C1([H])[H])C2([H])[H]

$$$$
111:0:1
     RDKit          3D

 32 34  0  0  1  0  0  0  0  0999 V2000
    3.0162   -1.0260    0.4974 N   0  0  0  0  0  0  0  0  0  0  0  0
    2.8051   -0.3894    1.6365 C   0  0  0  0  0  0  0  0  0  0  0  0
    3.6415   -0.3550    2.5378 O   0  0  0  0  0  0  0  0  0  0  0  0
    1.5907    0.1785    1.6763 N   0  0  0  0  0  0  0  0  0  0  0  0
    0.9943    0.9611    2.7535 C   0  0  2  0  0  0  0  0  0  0  0  0
    0.8100    0.0720    4.0095 C   0  0  0  0  0  0  0  0  0  0  0  0
    0.1563    0.8854    5.1390 C   0  0  1  0  0  0  0  0  0  0  0  0
    1.0526    2.0982    5.4742 C   0  0  0  0  0  0  0  0  0  0  0  0
    1.2004    3.0051    4.2358 C   0  0  2  0  0  0  0  0  0  0  0  0
   -0.1924    3.4922    3.7905 C   0  0  0  0  0  0  0  0  0  0  0  0
   -1.0676    2.2732    3.4350 C   0  0  2  0  0  0  0  0  0  0  0  0
   -2.2674    2.7091    3.0463 F   0  0  0  0  0  0  0  0  0  0  0  0
   -1.2339    1.3705    4.6727 C   0  0  0  0  0  0  0  0  0  0  0  0
   -0.4033    1.4613    2.2982 C   0  0  0  0  0  0  0  0  0  0  0  0
    1.8579    2.2074    3.0916 C   0  0  0  0  0  0  0  0  0  0  0  0
    3.8874   -1.5091    0.3591 H   0  0  0  0  0  0  0  0  0  0  0  0
    2.2729   -1.0632   -0.2074 H   0  0  0  0  0  0  0  0  0  0  0  0
    1.0308    0.0657    0.8337 H   0  0  0  0  0  0  0  0  0  0  0  0
    0.2004   -0.8013    3.7705 H   0  0  0  0  0  0  0  0  0  0  0  0
    1.7686   -0.3050    4.3704 H   0  0  0  0  0  0  0  0  0  0  0  0
    0.0448    0.2524    6.0199 H   0  0  0  0  0  0  0  0  0  0  0  0
    0.6353    2.6631    6.3093 H   0  0  0  0  0  0  0  0  0  0  0  0
    2.0368    1.7472    5.7935 H   0  0  0  0  0  0  0  0  0  0  0  0
    1.8239    3.8675    4.4821 H   0  0  0  0  0  0  0  0  0  0  0  0
   -0.6569    4.0821    4.5814 H   0  0  0  0  0  0  0  0  0  0  0  0
   -0.0986    4.1522    2.9298 H   0  0  0  0  0  0  0  0  0  0  0  0
   -1.8668    0.5191    4.4245 H   0  0  0  0  0  0  0  0  0  0  0  0
   -1.7384    1.9094    5.4749 H   0  0  0  0  0  0  0  0  0  0  0  0
   -0.3092    2.0851    1.4077 H   0  0  0  0  0  0  0  0  0  0  0  0
   -1.0478    0.6295    2.0132 H   0  0  0  0  0  0  0  0  0  0  0  0
    2.8657    1.9310    3.4071 H   0  0  0  0  0  0  0  0  0  0  0  0
    1.9779    2.8432    2.2126 H   0  0  0  0  0  0  0  0  0  0  0  0
  1  2  1  0
  1 16  1  0
  1 17  1  0
  2  3  2  0
  2  4  1  0
  5  4  1  6
  4 18  1  0
  5 14  1  0
  5 15  1  0
  5  6  1  0
  6  7  1  0
  6 19  1  0
  6 20  1  0
  7 13  1  0
  7  8  1  0
  7 21  1  1
  8  9  1  0
  8 22  1  0
  8 23  1  0
  9 10  1  0
  9 15  1  0
  9 24  1  1
 10 11  1  0
 10 25  1  0
 10 26  1  0
 11 12  1  6
 11 13  1  0
 11 14  1  0
 13 27  1  0
 13 28  1  0
 14 29  1  0
 14 30  1  0
 15 31  1  0
 15 32  1  0
M  END
>  <i_m_ct_stereo_status>  (345) 
1

>  <s_m_source_file>  (345) 
/var/tmp/pbs.5076255.sched01/tmpimq9cq4v/129n8p27m2m.sdf

>  <i_m_source_file_index>  (345) 
28

>  <i_lp_mmshare_version>  (345) 
48012

>  <i_f3d_flags>  (345) 
0

>  <s_epik_input>  (345) 
W05IMl1DKD1PKVtOSF1bQ0BdMTJbQ0gyXVtDQEhdM1tDSDJdW0NAQEhdKFtDSDJdMilbQ0gyXVtDQF0oRikoW0NIMl0zKVtDSDJdMQ==

>  <s_epik_cmdline>  (345) 
J2VwaWtfcHl0aG9uJywgJy1waHQnLCAnMi4wJywgJy1waCcsICc3LjAnLCAnLXRuJywgJzgnLCAnLW1hJywgJzIwMCcsICctaW1hZScsICc8aW5maWxlLm1hZT4nLCAnLW9tYWUnLCAnPG91dGZpbGUubWFlPic=

>  <r_lp_tautomer_probability>  (345) 
1

>  <r_epik_Ionization_Penalty>  (345) 
5.98802e-05

>  <r_epik_Ionization_Penalty_Charging>  (345) 
0

>  <r_epik_Ionization_Penalty_Neutral>  (345) 
5.98802e-05

>  <r_epik_State_Penalty>  (345) 
-0

>  <r_epik_Charging_Adjusted_Penalty>  (345) 
0

>  <i_epik_Tot_Q>  (345) 
0

>  <i_epik_Tot_abs_Q>  (345) 
0

>  <s_lp_Force_Field>  (345) 
OPLS3e

>  <r_lp_Energy>  (345) 
-18.811

>  <b_lp_Chiralities_Consistent>  (345) 
1

>  <s_lp_Variant>  (345) 
111:0-1

>  <s_i_glide_gridfile>  (345) 
pfpi4k_grid

>  <i_i_glide_lignum>  (345) 
28

>  <i_i_glide_rotatable_bonds>  (345) 
2

>  <r_i_docking_score>  (345) 
-4.22919

>  <r_i_glide_ligand_efficiency>  (345) 
-0.281946

>  <r_i_glide_ligand_efficiency_sa>  (345) 
-0.695339

>  <r_i_glide_ligand_efficiency_ln>  (345) 
-1.14054

>  <r_i_glide_gscore>  (345) 
-4.22919

>  <r_i_glide_lipo>  (345) 
0

>  <r_i_glide_hbond>  (345) 
-0.298577

>  <r_i_glide_metal>  (345) 
-0

>  <r_i_glide_rewards>  (345) 
-1.96184

>  <r_i_glide_evdw>  (345) 
-15.2928

>  <r_i_glide_ecoul>  (345) 
-6.38888

>  <r_i_glide_erotb>  (345) 
0

>  <r_i_glide_esite>  (345) 
-0.245807

>  <r_i_glide_emodel>  (345) 
-28.8692

>  <r_i_glide_energy>  (345) 
-21.6816

>  <r_i_glide_einternal>  (345) 
0.0311048

>  <r_i_glide_intrahb_reward>  (345) 
-0

>  <i_i_glide_confnum>  (345) 
2

>  <i_i_glide_posenum>  (345) 
4

>  <r_i_glide_eff_state_penalty>  (345) 
0

>  <ligand_id>  (345) 
111

>  <original_smiles>  (345) 
NC(=O)NC12CC3CC(CC(F)(C3)C1)C2

>  <smiles>  (345) 
[H]N([H])C(=O)N([H])C12C([H])([H])C3([H])C([H])([H])C([H])(C([H])([H])C(F)(C3([H])[H])C1([H])[H])C2([H])[H]

$$$$
111:0:2
     RDKit          3D

 32 34  0  0  1  0  0  0  0  0999 V2000
   -1.3856    1.0853    2.0674 N   0  0  0  0  0  0  0  0  0  0  0  0
   -0.6810    1.5246    3.0984 C   0  0  0  0  0  0  0  0  0  0  0  0
    0.5161    1.7677    3.0199 O   0  0  0  0  0  0  0  0  0  0  0  0
   -1.4345    1.6462    4.2056 N   0  0  0  0  0  0  0  0  0  0  0  0
   -0.9874    2.0893    5.5305 C   0  0  2  0  0  0  0  0  0  0  0  0
   -2.1766    1.9769    6.5258 C   0  0  0  0  0  0  0  0  0  0  0  0
   -1.7394    2.4347    7.9344 C   0  0  1  0  0  0  0  0  0  0  0  0
   -0.5809    1.5417    8.4303 C   0  0  0  0  0  0  0  0  0  0  0  0
    0.6069    1.6650    7.4567 C   0  0  2  0  0  0  0  0  0  0  0  0
    1.0727    3.1370    7.3895 C   0  0  0  0  0  0  0  0  0  0  0  0
   -0.0916    4.0199    6.8940 C   0  0  2  0  0  0  0  0  0  0  0  0
    0.3052    5.2873    6.8397 F   0  0  0  0  0  0  0  0  0  0  0  0
   -1.2815    3.9067    7.8651 C   0  0  0  0  0  0  0  0  0  0  0  0
   -0.5247    3.5712    5.4877 C   0  0  0  0  0  0  0  0  0  0  0  0
    0.1743    1.1977    6.0557 C   0  0  0  0  0  0  0  0  0  0  0  0
   -0.9441    1.0109    1.1570 H   0  0  0  0  0  0  0  0  0  0  0  0
   -2.3829    0.9354    2.1534 H   0  0  0  0  0  0  0  0  0  0  0  0
   -2.4143    1.4133    4.1170 H   0  0  0  0  0  0  0  0  0  0  0  0
   -3.0188    2.5858    6.1896 H   0  0  0  0  0  0  0  0  0  0  0  0
   -2.5361    0.9492    6.5706 H   0  0  0  0  0  0  0  0  0  0  0  0
   -2.5791    2.3530    8.6275 H   0  0  0  0  0  0  0  0  0  0  0  0
   -0.2772    1.8235    9.4392 H   0  0  0  0  0  0  0  0  0  0  0  0
   -0.9068    0.5057    8.4779 H   0  0  0  0  0  0  0  0  0  0  0  0
    1.4314    1.0402    7.8057 H   0  0  0  0  0  0  0  0  0  0  0  0
    1.4172    3.4697    8.3711 H   0  0  0  0  0  0  0  0  0  0  0  0
    1.9289    3.2293    6.7177 H   0  0  0  0  0  0  0  0  0  0  0  0
   -2.1037    4.5374    7.5241 H   0  0  0  0  0  0  0  0  0  0  0  0
   -1.0062    4.2709    8.8566 H   0  0  0  0  0  0  0  0  0  0  0  0
    0.3104    3.7060    4.7979 H   0  0  0  0  0  0  0  0  0  0  0  0
   -1.3279    4.2111    5.1187 H   0  0  0  0  0  0  0  0  0  0  0  0
   -0.1331    0.1529    6.0811 H   0  0  0  0  0  0  0  0  0  0  0  0
    1.0504    1.2466    5.4099 H   0  0  0  0  0  0  0  0  0  0  0  0
  1  2  1  0
  1 16  1  0
  1 17  1  0
  2  3  2  0
  2  4  1  0
  5  4  1  6
  4 18  1  0
  5 14  1  0
  5 15  1  0
  5  6  1  0
  6  7  1  0
  6 19  1  0
  6 20  1  0
  7 13  1  0
  7  8  1  0
  7 21  1  1
  8  9  1  0
  8 22  1  0
  8 23  1  0
  9 10  1  0
  9 15  1  0
  9 24  1  1
 10 11  1  0
 10 25  1  0
 10 26  1  0
 11 12  1  6
 11 13  1  0
 11 14  1  0
 13 27  1  0
 13 28  1  0
 14 29  1  0
 14 30  1  0
 15 31  1  0
 15 32  1  0
M  END
>  <i_m_ct_stereo_status>  (346) 
1

>  <s_m_source_file>  (346) 
/var/tmp/pbs.5076255.sched01/tmpimq9cq4v/129n8p27m2m.sdf

>  <i_m_source_file_index>  (346) 
28

>  <i_lp_mmshare_version>  (346) 
48012

>  <i_f3d_flags>  (346) 
0

>  <s_epik_input>  (346) 
W05IMl1DKD1PKVtOSF1bQ0BdMTJbQ0gyXVtDQEhdM1tDSDJdW0NAQEhdKFtDSDJdMilbQ0gyXVtDQF0oRikoW0NIMl0zKVtDSDJdMQ==

>  <s_epik_cmdline>  (346) 
J2VwaWtfcHl0aG9uJywgJy1waHQnLCAnMi4wJywgJy1waCcsICc3LjAnLCAnLXRuJywgJzgnLCAnLW1hJywgJzIwMCcsICctaW1hZScsICc8aW5maWxlLm1hZT4nLCAnLW9tYWUnLCAnPG91dGZpbGUubWFlPic=

>  <r_lp_tautomer_probability>  (346) 
1

>  <r_epik_Ionization_Penalty>  (346) 
5.98802e-05

>  <r_epik_Ionization_Penalty_Charging>  (346) 
0

>  <r_epik_Ionization_Penalty_Neutral>  (346) 
5.98802e-05

>  <r_epik_State_Penalty>  (346) 
-0

>  <r_epik_Charging_Adjusted_Penalty>  (346) 
0

>  <i_epik_Tot_Q>  (346) 
0

>  <i_epik_Tot_abs_Q>  (346) 
0

>  <s_lp_Force_Field>  (346) 
OPLS3e

>  <r_lp_Energy>  (346) 
-18.811

>  <b_lp_Chiralities_Consistent>  (346) 
1

>  <s_lp_Variant>  (346) 
111:0-1

>  <s_i_glide_gridfile>  (346) 
pfpi4k_grid

>  <i_i_glide_lignum>  (346) 
28

>  <i_i_glide_rotatable_bonds>  (346) 
2

>  <r_i_docking_score>  (346) 
-3.80012

>  <r_i_glide_ligand_efficiency>  (346) 
-0.253341

>  <r_i_glide_ligand_efficiency_sa>  (346) 
-0.624793

>  <r_i_glide_ligand_efficiency_ln>  (346) 
-1.02483

>  <r_i_glide_gscore>  (346) 
-3.80012

>  <r_i_glide_lipo>  (346) 
-0.00320173

>  <r_i_glide_hbond>  (346) 
-0.448046

>  <r_i_glide_metal>  (346) 
-0

>  <r_i_glide_rewards>  (346) 
-1.96184

>  <r_i_glide_evdw>  (346) 
-13.5661

>  <r_i_glide_ecoul>  (346) 
-3.94683

>  <r_i_glide_erotb>  (346) 
0

>  <r_i_glide_esite>  (346) 
-0.116705

>  <r_i_glide_emodel>  (346) 
-23.9007

>  <r_i_glide_energy>  (346) 
-17.5129

>  <r_i_glide_einternal>  (346) 
0.108506

>  <r_i_glide_intrahb_reward>  (346) 
-0

>  <i_i_glide_confnum>  (346) 
1

>  <i_i_glide_posenum>  (346) 
38

>  <r_i_glide_eff_state_penalty>  (346) 
0

>  <ligand_id>  (346) 
111

>  <original_smiles>  (346) 
NC(=O)NC12CC3CC(CC(F)(C3)C1)C2

>  <smiles>  (346) 
[H]N([H])C(=O)N([H])C12C([H])([H])C3([H])C([H])([H])C([H])(C([H])([H])C(F)(C3([H])[H])C1([H])[H])C2([H])[H]

$$$$
112:0:0
     RDKit          3D

 97106  0  0  1  0  0  0  0  0999 V2000
    4.3591   -7.3187    7.4040 C   0  0  0  0  0  0  0  0  0  0  0  0
    3.8242   -6.3715    6.4857 O   0  0  0  0  0  0  0  0  0  0  0  0
    4.4847   -5.1327    6.3463 C   0  0  1  0  0  0  0  0  0  0  0  0
    4.5835   -4.3365    7.6295 C   0  0  0  0  0  0  0  0  0  0  0  0
    4.2243   -3.0662    7.4768 C   0  0  0  0  0  0  0  0  0  0  0  0
    3.6951   -2.7982    6.1005 C   0  0  2  0  0  0  0  0  0  0  0  0
    2.1737   -2.7202    6.0382 C   0  0  2  0  0  0  0  0  0  0  0  0
    1.5081   -2.7933    7.2880 O   0  0  0  0  0  0  0  0  0  0  0  0
    1.0167   -4.0410    7.4044 C   0  0  0  0  0  0  0  0  0  0  0  0
    0.3058   -4.4830    8.5354 C   0  0  0  0  0  0  0  0  0  0  0  0
   -0.1187   -5.8223    8.5825 C   0  0  0  0  0  0  0  0  0  0  0  0
    0.1536   -6.6839    7.5267 C   0  0  0  0  0  0  0  0  0  0  0  0
    0.9243   -6.2441    6.3992 C   0  0  0  0  0  0  0  0  0  0  0  0
    1.2591   -7.2028    5.2841 C   0  0  0  0  0  0  0  0  0  0  0  0
    0.2970   -8.4145    5.1738 C   0  0  2  0  0  0  0  0  0  0  0  0
    0.5206   -9.4818    6.2574 C   0  0  0  0  0  0  0  0  0  0  0  0
    1.5175  -10.4977    5.6497 C   0  0  0  0  0  0  0  0  0  0  0  0
    1.7497  -10.0143    4.2345 C   0  0  1  0  0  0  0  0  0  0  0  0
    2.0184  -11.1424    3.2355 C   0  0  2  0  0  0  0  0  0  0  0  0
    0.7855  -12.0245    3.0263 C   0  0  0  0  0  0  0  0  0  0  0  0
    3.0991  -11.9102    3.7073 O   0  0  0  0  0  0  0  0  0  0  0  0
    0.5690   -9.1646    3.9316 N   0  0  2  0  0  0  0  0  0  0  0  0
    0.6871   -8.4064    2.6549 C   0  0  0  0  0  0  0  0  0  0  0  0
   -0.7138   -8.0324    2.1429 C   0  0  0  0  0  0  0  0  0  0  0  0
   -1.4977   -6.9443    2.8946 C   0  0  0  0  0  0  0  0  0  0  0  0
   -2.3598   -8.0228    3.5438 C   0  0  0  0  0  0  0  0  0  0  0  0
   -1.9322   -8.9708    2.4322 C   0  0  0  0  0  0  0  0  0  0  0  0
    1.3176   -4.8709    6.3532 C   0  0  0  0  0  0  0  0  0  0  0  0
    2.1221   -4.0797    5.3165 C   0  0  1  0  0  0  0  0  0  0  0  0
    1.4337   -4.0129    3.9404 C   0  0  0  0  0  0  0  0  0  0  0  0
    1.7214   -2.7614    3.0697 C   0  0  0  0  0  0  0  0  0  0  0  0
    3.1347   -2.3450    2.7695 N   0  0  1  0  0  0  0  0  0  0  0  0
    3.4794   -0.9459    3.1942 C   0  0  0  0  0  0  0  0  0  0  0  0
    2.8486    0.1109    2.3066 C   0  0  0  0  0  0  0  0  0  0  0  0
    2.7089    1.5264    2.8010 C   0  0  0  0  0  0  0  0  0  0  0  0
    1.4820    0.6599    2.5959 C   0  0  0  0  0  0  0  0  0  0  0  0
    4.2568   -3.3569    2.8023 C   0  0  2  0  0  0  0  0  0  0  0  0
    4.0187   -4.5816    1.9023 C   0  0  0  0  0  0  0  0  0  0  0  0
    4.1831   -5.4812    3.1153 C   0  0  0  0  0  0  0  0  0  0  0  0
    4.4860   -4.2819    4.0459 C   0  0  1  0  0  0  0  0  0  0  0  0
    5.8957   -4.3749    4.5329 C   0  0  0  0  0  0  0  0  0  0  0  0
    5.8718   -5.3648    5.6844 C   0  0  0  0  0  0  0  0  0  0  0  0
    3.7050   -4.1691    5.3709 C   0  0  2  0  0  0  0  0  0  0  0  0
    3.8302   -8.2605    7.2691 H   0  0  0  0  0  0  0  0  0  0  0  0
    4.2001   -6.9917    8.4317 H   0  0  0  0  0  0  0  0  0  0  0  0
    5.4236   -7.5151    7.2520 H   0  0  0  0  0  0  0  0  0  0  0  0
    4.8937   -4.7468    8.5640 H   0  0  0  0  0  0  0  0  0  0  0  0
    4.1503   -2.3135    8.2579 H   0  0  0  0  0  0  0  0  0  0  0  0
    4.2492   -2.0057    5.6156 H   0  0  0  0  0  0  0  0  0  0  0  0
    1.7890   -1.8796    5.4811 H   0  0  0  0  0  0  0  0  0  0  0  0
    0.0728   -3.8331    9.3529 H   0  0  0  0  0  0  0  0  0  0  0  0
   -0.6516   -6.2176    9.4278 H   0  0  0  0  0  0  0  0  0  0  0  0
   -0.2649   -7.6698    7.6181 H   0  0  0  0  0  0  0  0  0  0  0  0
    1.1571   -6.5917    4.4142 H   0  0  0  0  0  0  0  0  0  0  0  0
    2.3163   -7.5681    5.3711 H   0  0  0  0  0  0  0  0  0  0  0  0
   -0.6453   -7.9666    5.3106 H   0  0  0  0  0  0  0  0  0  0  0  0
    0.9860   -9.1157    7.1815 H   0  0  0  0  0  0  0  0  0  0  0  0
   -0.4379   -9.9718    6.5093 H   0  0  0  0  0  0  0  0  0  0  0  0
    2.4274  -10.4942    6.2628 H   0  0  0  0  0  0  0  0  0  0  0  0
    1.0467  -11.4921    5.6337 H   0  0  0  0  0  0  0  0  0  0  0  0
    2.6094   -9.3602    4.2103 H   0  0  0  0  0  0  0  0  0  0  0  0
    2.3452  -10.7183    2.2901 H   0  0  0  0  0  0  0  0  0  0  0  0
   -0.0212  -11.4223    2.6153 H   0  0  0  0  0  0  0  0  0  0  0  0
    0.4497  -12.5210    3.9421 H   0  0  0  0  0  0  0  0  0  0  0  0
    0.9870  -12.8070    2.3043 H   0  0  0  0  0  0  0  0  0  0  0  0
    3.1351  -12.6939    3.1801 H   0  0  0  0  0  0  0  0  0  0  0  0
    1.3131   -7.5392    2.7262 H   0  0  0  0  0  0  0  0  0  0  0  0
    1.1632   -9.0133    1.8516 H   0  0  0  0  0  0  0  0  0  0  0  0
   -0.6789   -7.7989    1.0700 H   0  0  0  0  0  0  0  0  0  0  0  0
   -0.9266   -6.3070    3.5756 H   0  0  0  0  0  0  0  0  0  0  0  0
   -2.0808   -6.3209    2.1855 H   0  0  0  0  0  0  0  0  0  0  0  0
   -2.1869   -8.4449    4.4885 H   0  0  0  0  0  0  0  0  0  0  0  0
   -3.3953   -7.6997    3.5781 H   0  0  0  0  0  0  0  0  0  0  0  0
   -2.6562   -9.0559    1.6015 H   0  0  0  0  0  0  0  0  0  0  0  0
   -1.6667   -9.9428    2.8185 H   0  0  0  0  0  0  0  0  0  0  0  0
    1.5873   -4.8804    3.3210 H   0  0  0  0  0  0  0  0  0  0  0  0
    0.3722   -3.9903    4.1014 H   0  0  0  0  0  0  0  0  0  0  0  0
    1.2934   -2.9324    2.0904 H   0  0  0  0  0  0  0  0  0  0  0  0
    1.1491   -1.9076    3.4199 H   0  0  0  0  0  0  0  0  0  0  0  0
    3.1834   -0.7744    4.2283 H   0  0  0  0  0  0  0  0  0  0  0  0
    4.5647   -0.8193    3.1722 H   0  0  0  0  0  0  0  0  0  0  0  0
    3.1405    0.0241    1.2663 H   0  0  0  0  0  0  0  0  0  0  0  0
    2.9885    1.7723    3.8233 H   0  0  0  0  0  0  0  0  0  0  0  0
    2.8435    2.3421    2.1124 H   0  0  0  0  0  0  0  0  0  0  0  0
    0.8453    0.8888    1.7506 H   0  0  0  0  0  0  0  0  0  0  0  0
    0.9635    0.3355    3.4923 H   0  0  0  0  0  0  0  0  0  0  0  0
    5.1801   -2.8594    2.4923 H   0  0  0  0  0  0  0  0  0  0  0  0
    3.0319   -4.6567    1.4446 H   0  0  0  0  0  0  0  0  0  0  0  0
    4.8121   -4.7191    1.1755 H   0  0  0  0  0  0  0  0  0  0  0  0
    3.3139   -6.0441    3.4065 H   0  0  0  0  0  0  0  0  0  0  0  0
    5.0035   -6.1810    3.0049 H   0  0  0  0  0  0  0  0  0  0  0  0
    6.5560   -4.7035    3.7356 H   0  0  0  0  0  0  0  0  0  0  0  0
    6.2396   -3.4112    4.9159 H   0  0  0  0  0  0  0  0  0  0  0  0
    6.7267   -5.3232    6.3454 H   0  0  0  0  0  0  0  0  0  0  0  0
    5.8867   -6.3573    5.2373 H   0  0  0  0  0  0  0  0  0  0  0  0
   -0.1818   -9.8450    3.8123 H   0  0  0  0  0  0  0  0  0  0  0  0
    3.0850   -2.1792    1.7563 H   0  0  0  0  0  0  0  0  0  0  0  0
  1  2  1  0
  1 44  1  0
  1 45  1  0
  1 46  1  0
  3  2  1  1
  3 42  1  0
 43  3  1  1
  3  4  1  0
  4  5  2  0
  4 47  1  0
  5  6  1  0
  5 48  1  0
  6 43  1  0
  6  7  1  0
  6 49  1  6
  7 29  1  0
  7  8  1  0
  7 50  1  6
  8  9  1  0
  9 28  2  0
  9 10  1  0
 10 11  2  0
 10 51  1  0
 11 12  1  0
 11 52  1  0
 12 13  2  0
 12 53  1  0
 13 14  1  0
 13 28  1  0
 14 15  1  0
 14 54  1  0
 14 55  1  0
 15 22  1  0
 15 16  1  0
 15 56  1  6
 16 17  1  0
 16 57  1  0
 16 58  1  0
 17 18  1  0
 17 59  1  0
 17 60  1  0
 18 19  1  0
 18 22  1  0
 18 61  1  1
 19 20  1  0
 19 21  1  0
 19 62  1  6
 20 63  1  0
 20 64  1  0
 20 65  1  0
 21 66  1  0
 22 23  1  0
 22 96  1  6
 23 24  1  0
 23 67  1  0
 23 68  1  0
 24 27  1  0
 24 25  1  0
 24 69  1  0
 25 26  1  0
 25 70  1  0
 25 71  1  0
 26 27  1  0
 26 72  1  0
 26 73  1  0
 27 74  1  0
 27 75  1  0
 28 29  1  0
 29 43  1  0
 29 30  1  6
 30 31  1  0
 30 76  1  0
 30 77  1  0
 31 32  1  0
 31 78  1  0
 31 79  1  0
 32 33  1  0
 32 37  1  0
 32 97  1  6
 33 34  1  0
 33 80  1  0
 33 81  1  0
 34 36  1  0
 34 35  1  0
 34 82  1  0
 35 36  1  0
 35 83  1  0
 35 84  1  0
 36 85  1  0
 36 86  1  0
 37 40  1  0
 37 38  1  0
 37 87  1  6
 38 39  1  0
 38 88  1  0
 38 89  1  0
 40 39  1  6
 39 90  1  0
 39 91  1  0
 40 41  1  0
 40 43  1  0
 41 42  1  0
 41 92  1  0
 41 93  1  0
 42 94  1  0
 42 95  1  0
M  CHG  2  22   1  32   1
M  END
>  <i_m_ct_stereo_status>  (347) 
1

>  <s_m_source_file>  (347) 
/var/tmp/pbs.5076255.sched01/tmpimq9cq4v/129n8p27m2m.sdf

>  <i_m_source_file_index>  (347) 
29

>  <i_lp_mmshare_version>  (347) 
48012

>  <i_f3d_flags>  (347) 
0

>  <s_epik_input>  (347) 
W0NIMl0xW0NIMl1bQ0hdMVtDSDJdTihbQ0gyXVtDSDJdMilbQ0BIXShbQ0gyXVtDSDJdMylbQ0BdMyhbQ0BAXTQ1W0NAXTI2NylbQ0gyXVtDSDJdW0NAQF00KE9bQ0gzXSlbQ0hdPVtDSF1bQ0BASF01W0NAQEhdNk9jOGM3YyhbY0hdW2NIXVtjSF04KVtDSDJdW0NAQEhdOVtDSDJdW0NIMl1bQ0BASF0oW0NASF0oW0NIM10pW09IXSlOOVtDSDJdW0NIXTFbQ0gyXVtDSDJdW0NIMl0x

>  <s_epik_cmdline>  (347) 
J2VwaWtfcHl0aG9uJywgJy1waHQnLCAnMi4wJywgJy1waCcsICc3LjAnLCAnLXRuJywgJzgnLCAnLW1hJywgJzIwMCcsICctaW1hZScsICc8aW5maWxlLm1hZT4nLCAnLW9tYWUnLCAnPG91dGZpbGUubWFlPic=

>  <r_lp_tautomer_probability>  (347) 
1

>  <r_epik_Ionization_Penalty>  (347) 
0.00217825

>  <r_epik_Ionization_Penalty_Charging>  (347) 
0.00217824

>  <r_epik_Ionization_Penalty_Neutral>  (347) 
9.83104e-09

>  <r_epik_State_Penalty>  (347) 
-0

>  <r_epik_Charging_Adjusted_Penalty>  (347) 
0.00217824

>  <i_epik_Tot_Q>  (347) 
2

>  <i_epik_Tot_abs_Q>  (347) 
2

>  <s_lp_Force_Field>  (347) 
OPLS3e

>  <r_lp_Energy>  (347) 
107.076

>  <b_lp_Chiralities_Consistent>  (347) 
1

>  <s_lp_Variant>  (347) 
112:0-1

>  <s_i_glide_gridfile>  (347) 
pfpi4k_grid

>  <i_i_glide_lignum>  (347) 
29

>  <i_i_glide_rotatable_bonds>  (347) 
9

>  <r_i_docking_score>  (347) 
-1.6261

>  <r_i_glide_ligand_efficiency>  (347) 
-0.0378164

>  <r_i_glide_ligand_efficiency_sa>  (347) 
-0.132486

>  <r_i_glide_ligand_efficiency_ln>  (347) 
-0.341532

>  <r_i_glide_gscore>  (347) 
-1.6261

>  <r_i_glide_lipo>  (347) 
-0.408513

>  <r_i_glide_hbond>  (347) 
-0.0395731

>  <r_i_glide_metal>  (347) 
-0

>  <r_i_glide_rewards>  (347) 
0

>  <r_i_glide_evdw>  (347) 
-16.9045

>  <r_i_glide_ecoul>  (347) 
-6.46731

>  <r_i_glide_erotb>  (347) 
0.319904

>  <r_i_glide_esite>  (347) 
-0.033328

>  <r_i_glide_emodel>  (347) 
-15.7629

>  <r_i_glide_energy>  (347) 
-23.3718

>  <r_i_glide_einternal>  (347) 
12.4507

>  <r_i_glide_intrahb_reward>  (347) 
-0

>  <i_i_glide_confnum>  (347) 
5

>  <i_i_glide_posenum>  (347) 
5

>  <r_i_glide_eff_state_penalty>  (347) 
0

>  <ligand_id>  (347) 
112

>  <original_smiles>  (347) 
COC12C=CC3C4Oc5cccc(CC6CCC(C(C)O)N6CC6CCC6)c5C45CCN(CC4CC4)C4CCC4(CC1)C325

>  <smiles>  (347) 
[H]OC([H])(C([H])([H])[H])C1([H])C([H])([H])C([H])([H])C([H])(C([H])([H])c2c([H])c([H])c([H])c3c2C24C([H])([H])C([H])([H])[N+]([H])(C([H])([H])C5([H])C([H])([H])C5([H])[H])C5([H])C([H])([H])C([H])([H])C56C([H])([H])C([H])([H])C5(OC([H])([H])[H])C([H])=C([H])C([H])(C2([H])O3)C546)[N+]1([H])C([H])([H])C1([H])C([H])([H])C([H])([H])C1([H])[H]

$$$$
112:0:1
     RDKit          3D

 97106  0  0  1  0  0  0  0  0999 V2000
    3.8726   -6.5418    8.3972 C   0  0  0  0  0  0  0  0  0  0  0  0
    3.6207   -5.9143    7.1458 O   0  0  0  0  0  0  0  0  0  0  0  0
    4.3670   -4.7545    6.8217 C   0  0  1  0  0  0  0  0  0  0  0  0
    4.1902   -3.6059    7.8091 C   0  0  0  0  0  0  0  0  0  0  0  0
    3.9423   -2.4471    7.2003 C   0  0  0  0  0  0  0  0  0  0  0  0
    3.7937   -2.6137    5.7216 C   0  0  2  0  0  0  0  0  0  0  0  0
    2.3375   -2.5772    5.2734 C   0  0  2  0  0  0  0  0  0  0  0  0
    1.3786   -2.2927    6.2851 O   0  0  0  0  0  0  0  0  0  0  0  0
    0.8042   -3.4685    6.6643 C   0  0  0  0  0  0  0  0  0  0  0  0
   -0.1721   -3.5548    7.6485 C   0  0  0  0  0  0  0  0  0  0  0  0
   -0.6803   -4.8186    7.9891 C   0  0  0  0  0  0  0  0  0  0  0  0
   -0.1744   -5.9322    7.3268 C   0  0  0  0  0  0  0  0  0  0  0  0
    0.7961   -5.8765    6.3319 C   0  0  0  0  0  0  0  0  0  0  0  0
    1.2908   -7.1541    5.6972 C   0  0  0  0  0  0  0  0  0  0  0  0
    0.2120   -8.2220    5.3823 C   0  0  2  0  0  0  0  0  0  0  0  0
   -0.2060   -9.0379    6.5609 C   0  0  0  0  0  0  0  0  0  0  0  0
    0.6845  -10.2270    6.5183 C   0  0  0  0  0  0  0  0  0  0  0  0
    1.5357  -10.0992    5.2499 C   0  0  1  0  0  0  0  0  0  0  0  0
    1.8774  -11.4643    4.6449 C   0  0  2  0  0  0  0  0  0  0  0  0
    3.1510  -12.0379    5.2637 C   0  0  0  0  0  0  0  0  0  0  0  0
    2.1101  -11.4230    3.2623 O   0  0  0  0  0  0  0  0  0  0  0  0
    0.7258   -9.2199    4.3981 N   0  0  2  0  0  0  0  0  0  0  0  0
    1.4435   -8.6385    3.2404 C   0  0  0  0  0  0  0  0  0  0  0  0
    0.5369   -7.8031    2.3764 C   0  0  0  0  0  0  0  0  0  0  0  0
   -0.4213   -6.7746    2.9885 C   0  0  0  0  0  0  0  0  0  0  0  0
   -1.5692   -7.8142    2.8874 C   0  0  0  0  0  0  0  0  0  0  0  0
   -0.7248   -8.4726    1.8025 C   0  0  0  0  0  0  0  0  0  0  0  0
    1.3058   -4.5807    5.9819 C   0  0  0  0  0  0  0  0  0  0  0  0
    2.3772   -4.1048    5.0051 C   0  0  1  0  0  0  0  0  0  0  0  0
    2.0255   -4.4350    3.5283 C   0  0  0  0  0  0  0  0  0  0  0  0
    2.5711   -3.5094    2.3995 C   0  0  0  0  0  0  0  0  0  0  0  0
    4.0375   -3.1906    2.3550 N   0  0  1  0  0  0  0  0  0  0  0  0
    4.3709   -1.7307    2.4370 C   0  0  0  0  0  0  0  0  0  0  0  0
    3.7674   -0.9426    1.2737 C   0  0  0  0  0  0  0  0  0  0  0  0
    4.5940    0.0707    0.5164 C   0  0  0  0  0  0  0  0  0  0  0  0
    3.4595    0.5435    1.3874 C   0  0  0  0  0  0  0  0  0  0  0  0
    5.0501   -4.1264    2.9595 C   0  0  2  0  0  0  0  0  0  0  0  0
    4.9620   -5.5739    2.4424 C   0  0  0  0  0  0  0  0  0  0  0  0
    4.7953   -6.0743    3.8752 C   0  0  0  0  0  0  0  0  0  0  0  0
    4.9697   -4.6336    4.4399 C   0  0  1  0  0  0  0  0  0  0  0  0
    6.2525   -4.5626    5.2586 C   0  0  0  0  0  0  0  0  0  0  0  0
    5.8453   -5.1882    6.5921 C   0  0  0  0  0  0  0  0  0  0  0  0
    3.9004   -4.1459    5.4556 C   0  0  2  0  0  0  0  0  0  0  0  0
    3.3254   -7.4855    8.4242 H   0  0  0  0  0  0  0  0  0  0  0  0
    3.5159   -5.9354    9.2285 H   0  0  0  0  0  0  0  0  0  0  0  0
    4.9262   -6.7728    8.5554 H   0  0  0  0  0  0  0  0  0  0  0  0
    4.2368   -3.7295    8.8830 H   0  0  0  0  0  0  0  0  0  0  0  0
    3.7756   -1.4790    7.6519 H   0  0  0  0  0  0  0  0  0  0  0  0
    4.5069   -1.9943    5.1855 H   0  0  0  0  0  0  0  0  0  0  0  0
    2.1167   -1.9381    4.4242 H   0  0  0  0  0  0  0  0  0  0  0  0
   -0.5356   -2.6846    8.1570 H   0  0  0  0  0  0  0  0  0  0  0  0
   -1.4280   -4.9401    8.7489 H   0  0  0  0  0  0  0  0  0  0  0  0
   -0.6285   -6.8337    7.6683 H   0  0  0  0  0  0  0  0  0  0  0  0
    1.7798   -6.8092    4.8071 H   0  0  0  0  0  0  0  0  0  0  0  0
    2.0559   -7.6201    6.2997 H   0  0  0  0  0  0  0  0  0  0  0  0
   -0.7153   -7.7407    5.1277 H   0  0  0  0  0  0  0  0  0  0  0  0
   -0.0355   -8.5494    7.4999 H   0  0  0  0  0  0  0  0  0  0  0  0
   -1.2601   -9.3069    6.4862 H   0  0  0  0  0  0  0  0  0  0  0  0
    1.3007  -10.2456    7.4231 H   0  0  0  0  0  0  0  0  0  0  0  0
    0.0338  -11.0986    6.4825 H   0  0  0  0  0  0  0  0  0  0  0  0
    2.4587   -9.5618    5.4933 H   0  0  0  0  0  0  0  0  0  0  0  0
    1.0377  -12.1302    4.8000 H   0  0  0  0  0  0  0  0  0  0  0  0
    3.0450  -12.1491    6.3425 H   0  0  0  0  0  0  0  0  0  0  0  0
    4.0236  -11.4020    5.0851 H   0  0  0  0  0  0  0  0  0  0  0  0
    3.3598  -13.0212    4.8428 H   0  0  0  0  0  0  0  0  0  0  0  0
    2.2740  -12.2838    2.9236 H   0  0  0  0  0  0  0  0  0  0  0  0
    2.3456   -8.1351    3.5715 H   0  0  0  0  0  0  0  0  0  0  0  0
    1.8753   -9.3744    2.5863 H   0  0  0  0  0  0  0  0  0  0  0  0
    1.1198   -7.3295    1.5845 H   0  0  0  0  0  0  0  0  0  0  0  0
   -0.1350   -6.3536    3.9452 H   0  0  0  0  0  0  0  0  0  0  0  0
   -0.5558   -5.9256    2.3456 H   0  0  0  0  0  0  0  0  0  0  0  0
   -1.7153   -8.5156    3.6955 H   0  0  0  0  0  0  0  0  0  0  0  0
   -2.5251   -7.4018    2.5862 H   0  0  0  0  0  0  0  0  0  0  0  0
   -0.9805   -8.1312    0.8017 H   0  0  0  0  0  0  0  0  0  0  0  0
   -0.7055   -9.5634    1.8706 H   0  0  0  0  0  0  0  0  0  0  0  0
    2.2473   -5.4586    3.2579 H   0  0  0  0  0  0  0  0  0  0  0  0
    0.9392   -4.3740    3.4365 H   0  0  0  0  0  0  0  0  0  0  0  0
    2.3509   -3.9902    1.4410 H   0  0  0  0  0  0  0  0  0  0  0  0
    1.9856   -2.5871    2.3595 H   0  0  0  0  0  0  0  0  0  0  0  0
    4.0186   -1.2946    3.3677 H   0  0  0  0  0  0  0  0  0  0  0  0
    5.4562   -1.5887    2.4228 H   0  0  0  0  0  0  0  0  0  0  0  0
    3.0774   -1.5183    0.6599 H   0  0  0  0  0  0  0  0  0  0  0  0
    5.6112    0.2582    0.8576 H   0  0  0  0  0  0  0  0  0  0  0  0
    4.4542    0.1135   -0.5624 H   0  0  0  0  0  0  0  0  0  0  0  0
    2.5666    0.9165    0.8872 H   0  0  0  0  0  0  0  0  0  0  0  0
    3.7152    1.0567    2.3120 H   0  0  0  0  0  0  0  0  0  0  0  0
    6.0388   -3.7219    2.7389 H   0  0  0  0  0  0  0  0  0  0  0  0
    4.1113   -5.7925    1.7986 H   0  0  0  0  0  0  0  0  0  0  0  0
    5.8895   -5.9226    1.9808 H   0  0  0  0  0  0  0  0  0  0  0  0
    3.8374   -6.5321    4.0916 H   0  0  0  0  0  0  0  0  0  0  0  0
    5.5706   -6.7854    4.1679 H   0  0  0  0  0  0  0  0  0  0  0  0
    7.0981   -5.0754    4.7973 H   0  0  0  0  0  0  0  0  0  0  0  0
    6.5549   -3.5274    5.4181 H   0  0  0  0  0  0  0  0  0  0  0  0
    6.5299   -4.9338    7.3977 H   0  0  0  0  0  0  0  0  0  0  0  0
    5.9021   -6.2774    6.4777 H   0  0  0  0  0  0  0  0  0  0  0  0
   -0.0437   -9.7692    4.0217 H   0  0  0  0  0  0  0  0  0  0  0  0
    4.2386   -3.3368    1.3738 H   0  0  0  0  0  0  0  0  0  0  0  0
  1  2  1  0
  1 44  1  0
  1 45  1  0
  1 46  1  0
  3  2  1  1
  3 42  1  0
 43  3  1  1
  3  4  1  0
  4  5  2  0
  4 47  1  0
  5  6  1  0
  5 48  1  0
  6 43  1  0
  6  7  1  0
  6 49  1  6
  7 29  1  0
  7  8  1  0
  7 50  1  6
  8  9  1  0
  9 28  2  0
  9 10  1  0
 10 11  2  0
 10 51  1  0
 11 12  1  0
 11 52  1  0
 12 13  2  0
 12 53  1  0
 13 14  1  0
 13 28  1  0
 14 15  1  0
 14 54  1  0
 14 55  1  0
 15 22  1  0
 15 16  1  0
 15 56  1  6
 16 17  1  0
 16 57  1  0
 16 58  1  0
 17 18  1  0
 17 59  1  0
 17 60  1  0
 18 19  1  0
 18 22  1  0
 18 61  1  1
 19 20  1  0
 19 21  1  0
 19 62  1  6
 20 63  1  0
 20 64  1  0
 20 65  1  0
 21 66  1  0
 22 23  1  0
 22 96  1  6
 23 24  1  0
 23 67  1  0
 23 68  1  0
 24 27  1  0
 24 25  1  0
 24 69  1  0
 25 26  1  0
 25 70  1  0
 25 71  1  0
 26 27  1  0
 26 72  1  0
 26 73  1  0
 27 74  1  0
 27 75  1  0
 28 29  1  0
 29 43  1  0
 29 30  1  6
 30 31  1  0
 30 76  1  0
 30 77  1  0
 31 32  1  0
 31 78  1  0
 31 79  1  0
 32 33  1  0
 32 37  1  0
 32 97  1  6
 33 34  1  0
 33 80  1  0
 33 81  1  0
 34 36  1  0
 34 35  1  0
 34 82  1  0
 35 36  1  0
 35 83  1  0
 35 84  1  0
 36 85  1  0
 36 86  1  0
 37 40  1  0
 37 38  1  0
 37 87  1  1
 38 39  1  0
 38 88  1  0
 38 89  1  0
 40 39  1  6
 39 90  1  0
 39 91  1  0
 40 41  1  0
 40 43  1  0
 41 42  1  0
 41 92  1  0
 41 93  1  0
 42 94  1  0
 42 95  1  0
M  CHG  2  22   1  32   1
M  END
>  <i_m_ct_stereo_status>  (348) 
1

>  <s_m_source_file>  (348) 
/var/tmp/pbs.5076255.sched01/tmpimq9cq4v/129n8p27m2m.sdf

>  <i_m_source_file_index>  (348) 
29

>  <i_lp_mmshare_version>  (348) 
48012

>  <i_f3d_flags>  (348) 
0

>  <s_epik_input>  (348) 
W0NIMl0xW0NIMl1bQ0hdMVtDSDJdTihbQ0gyXVtDSDJdMilbQ0BIXShbQ0gyXVtDSDJdMylbQ0BdMyhbQ0BAXTQ1W0NAXTI2NylbQ0gyXVtDSDJdW0NAQF00KE9bQ0gzXSlbQ0hdPVtDSF1bQ0BASF01W0NAQEhdNk9jOGM3YyhbY0hdW2NIXVtjSF04KVtDSDJdW0NAQEhdOVtDSDJdW0NIMl1bQ0BASF0oW0NASF0oW0NIM10pW09IXSlOOVtDSDJdW0NIXTFbQ0gyXVtDSDJdW0NIMl0x

>  <s_epik_cmdline>  (348) 
J2VwaWtfcHl0aG9uJywgJy1waHQnLCAnMi4wJywgJy1waCcsICc3LjAnLCAnLXRuJywgJzgnLCAnLW1hJywgJzIwMCcsICctaW1hZScsICc8aW5maWxlLm1hZT4nLCAnLW9tYWUnLCAnPG91dGZpbGUubWFlPic=

>  <r_lp_tautomer_probability>  (348) 
1

>  <r_epik_Ionization_Penalty>  (348) 
0.00217825

>  <r_epik_Ionization_Penalty_Charging>  (348) 
0.00217824

>  <r_epik_Ionization_Penalty_Neutral>  (348) 
9.83104e-09

>  <r_epik_State_Penalty>  (348) 
-0

>  <r_epik_Charging_Adjusted_Penalty>  (348) 
0.00217824

>  <i_epik_Tot_Q>  (348) 
2

>  <i_epik_Tot_abs_Q>  (348) 
2

>  <s_lp_Force_Field>  (348) 
OPLS3e

>  <r_lp_Energy>  (348) 
107.076

>  <b_lp_Chiralities_Consistent>  (348) 
1

>  <s_lp_Variant>  (348) 
112:0-1

>  <s_i_glide_gridfile>  (348) 
pfpi4k_grid

>  <i_i_glide_lignum>  (348) 
29

>  <i_i_glide_rotatable_bonds>  (348) 
9

>  <r_i_docking_score>  (348) 
-1.49663

>  <r_i_glide_ligand_efficiency>  (348) 
-0.0348053

>  <r_i_glide_ligand_efficiency_sa>  (348) 
-0.121937

>  <r_i_glide_ligand_efficiency_ln>  (348) 
-0.314338

>  <r_i_glide_gscore>  (348) 
-1.49663

>  <r_i_glide_lipo>  (348) 
-0.262825

>  <r_i_glide_hbond>  (348) 
-0.0194499

>  <r_i_glide_metal>  (348) 
-0

>  <r_i_glide_rewards>  (348) 
0

>  <r_i_glide_evdw>  (348) 
-22.0224

>  <r_i_glide_ecoul>  (348) 
-5.87833

>  <r_i_glide_erotb>  (348) 
0.319904

>  <r_i_glide_esite>  (348) 
-0.0366074

>  <r_i_glide_emodel>  (348) 
-20.6791

>  <r_i_glide_energy>  (348) 
-27.9008

>  <r_i_glide_einternal>  (348) 
10.6208

>  <r_i_glide_intrahb_reward>  (348) 
-0

>  <i_i_glide_confnum>  (348) 
3

>  <i_i_glide_posenum>  (348) 
28

>  <r_i_glide_eff_state_penalty>  (348) 
0

>  <ligand_id>  (348) 
112

>  <original_smiles>  (348) 
COC12C=CC3C4Oc5cccc(CC6CCC(C(C)O)N6CC6CCC6)c5C45CCN(CC4CC4)C4CCC4(CC1)C325

>  <smiles>  (348) 
[H]OC([H])(C([H])([H])[H])C1([H])C([H])([H])C([H])([H])C([H])(C([H])([H])c2c([H])c([H])c([H])c3c2C24C([H])([H])C([H])([H])[N+]([H])(C([H])([H])C5([H])C([H])([H])C5([H])[H])C5([H])C([H])([H])C([H])([H])C56C([H])([H])C([H])([H])C5(OC([H])([H])[H])C([H])=C([H])C([H])(C2([H])O3)C546)[N+]1([H])C([H])([H])C1([H])C([H])([H])C([H])([H])C1([H])[H]

$$$$
112:0:2
     RDKit          3D

 97106  0  0  1  0  0  0  0  0999 V2000
   -1.1679   -4.5269    6.6879 C   0  0  0  0  0  0  0  0  0  0  0  0
   -0.1755   -4.9661    5.7731 O   0  0  0  0  0  0  0  0  0  0  0  0
    0.0201   -6.3696    5.6531 C   0  0  1  0  0  0  0  0  0  0  0  0
    0.2194   -7.1156    6.9583 C   0  0  0  0  0  0  0  0  0  0  0  0
    1.2240   -7.9707    6.9535 C   0  0  0  0  0  0  0  0  0  0  0  0
    1.9798   -7.8833    5.6808 C   0  0  2  0  0  0  0  0  0  0  0  0
    3.2708   -7.1140    5.8569 C   0  0  2  0  0  0  0  0  0  0  0  0
    3.5795   -6.6765    7.1645 O   0  0  0  0  0  0  0  0  0  0  0  0
    3.2645   -5.3592    7.2414 C   0  0  0  0  0  0  0  0  0  0  0  0
    3.4443   -4.6037    8.4268 C   0  0  0  0  0  0  0  0  0  0  0  0
    3.0321   -3.2867    8.4397 C   0  0  0  0  0  0  0  0  0  0  0  0
    2.4483   -2.7259    7.3271 C   0  0  0  0  0  0  0  0  0  0  0  0
    2.3171   -3.4486    6.0837 C   0  0  0  0  0  0  0  0  0  0  0  0
    1.6712   -2.7511    4.9227 C   0  0  0  0  0  0  0  0  0  0  0  0
    2.3425   -1.4120    4.4379 C   0  0  2  0  0  0  0  0  0  0  0  0
    2.0382   -0.1897    5.2815 C   0  0  0  0  0  0  0  0  0  0  0  0
    0.7686    0.4085    4.7404 C   0  0  0  0  0  0  0  0  0  0  0  0
    0.4687   -0.3688    3.4577 C   0  0  1  0  0  0  0  0  0  0  0  0
   -0.1240    0.4673    2.3386 C   0  0  2  0  0  0  0  0  0  0  0  0
    0.8200    1.5582    1.8616 C   0  0  0  0  0  0  0  0  0  0  0  0
   -1.3254    1.0347    2.7990 O   0  0  0  0  0  0  0  0  0  0  0  0
    1.7640   -0.9937    3.1305 N   0  0  2  0  0  0  0  0  0  0  0  0
    1.7067   -2.0217    2.0866 C   0  0  0  0  0  0  0  0  0  0  0  0
    3.0799   -2.6767    1.9249 C   0  0  0  0  0  0  0  0  0  0  0  0
    4.0676   -2.1537    0.9044 C   0  0  0  0  0  0  0  0  0  0  0  0
    3.6152   -3.2252   -0.0887 C   0  0  0  0  0  0  0  0  0  0  0  0
    3.0695   -3.9116    1.0889 C   0  0  0  0  0  0  0  0  0  0  0  0
    2.7351   -4.8039    6.1037 C   0  0  0  0  0  0  0  0  0  0  0  0
    2.6728   -5.9464    5.0489 C   0  0  1  0  0  0  0  0  0  0  0  0
    3.4880   -5.6026    3.8423 C   0  0  0  0  0  0  0  0  0  0  0  0
    4.0554   -6.7786    2.9759 C   0  0  0  0  0  0  0  0  0  0  0  0
    3.1627   -7.8776    2.5355 N   0  0  1  0  0  0  0  0  0  0  0  0
    3.5843   -9.2156    2.9741 C   0  0  0  0  0  0  0  0  0  0  0  0
    4.4476   -9.9140    1.9568 C   0  0  0  0  0  0  0  0  0  0  0  0
    5.7008   -9.3033    1.3867 C   0  0  0  0  0  0  0  0  0  0  0  0
    4.4707   -9.4445    0.5288 C   0  0  0  0  0  0  0  0  0  0  0  0
    1.6955   -7.7231    2.3312 C   0  0  2  0  0  0  0  0  0  0  0  0
    1.3142   -6.6406    1.3384 C   0  0  0  0  0  0  0  0  0  0  0  0
    0.5538   -5.9457    2.4578 C   0  0  0  0  0  0  0  0  0  0  0  0
    0.8013   -7.0959    3.4436 C   0  0  1  0  0  0  0  0  0  0  0  0
   -0.5012   -7.8106    3.7101 C   0  0  0  0  0  0  0  0  0  0  0  0
   -1.1335   -6.9649    4.7721 C   0  0  0  0  0  0  0  0  0  0  0  0
    1.3125   -6.7362    4.8629 C   0  0  2  0  0  0  0  0  0  0  0  0
   -1.2769   -3.4478    6.5624 H   0  0  0  0  0  0  0  0  0  0  0  0
   -0.8653   -4.6977    7.7227 H   0  0  0  0  0  0  0  0  0  0  0  0
   -2.1508   -4.9796    6.5271 H   0  0  0  0  0  0  0  0  0  0  0  0
   -0.4200   -6.9698    7.8172 H   0  0  0  0  0  0  0  0  0  0  0  0
    1.5558   -8.5867    7.7777 H   0  0  0  0  0  0  0  0  0  0  0  0
    2.0601   -8.8316    5.1655 H   0  0  0  0  0  0  0  0  0  0  0  0
    4.1392   -7.5483    5.3933 H   0  0  0  0  0  0  0  0  0  0  0  0
    3.8725   -5.0429    9.3095 H   0  0  0  0  0  0  0  0  0  0  0  0
    3.1181   -2.6475    9.3104 H   0  0  0  0  0  0  0  0  0  0  0  0
    2.1123   -1.7479    7.5530 H   0  0  0  0  0  0  0  0  0  0  0  0
    1.6809   -3.5243    4.1692 H   0  0  0  0  0  0  0  0  0  0  0  0
    0.6143   -2.5867    5.1228 H   0  0  0  0  0  0  0  0  0  0  0  0
    3.4385   -1.5138    4.3965 H   0  0  0  0  0  0  0  0  0  0  0  0
    1.7309   -0.3891    6.3045 H   0  0  0  0  0  0  0  0  0  0  0  0
    2.8926    0.4795    5.3413 H   0  0  0  0  0  0  0  0  0  0  0  0
   -0.0561    0.3392    5.4569 H   0  0  0  0  0  0  0  0  0  0  0  0
    0.9855    1.4615    4.5775 H   0  0  0  0  0  0  0  0  0  0  0  0
   -0.2338   -1.1683    3.6961 H   0  0  0  0  0  0  0  0  0  0  0  0
   -0.3563   -0.1895    1.5105 H   0  0  0  0  0  0  0  0  0  0  0  0
    1.7545    1.1285    1.5023 H   0  0  0  0  0  0  0  0  0  0  0  0
    1.0536    2.2833    2.6398 H   0  0  0  0  0  0  0  0  0  0  0  0
    0.3510    2.1013    1.0461 H   0  0  0  0  0  0  0  0  0  0  0  0
   -1.7078    1.5177    2.0820 H   0  0  0  0  0  0  0  0  0  0  0  0
    0.9082   -2.7069    2.3674 H   0  0  0  0  0  0  0  0  0  0  0  0
    1.3781   -1.6088    1.1574 H   0  0  0  0  0  0  0  0  0  0  0  0
    3.5930   -2.9869    2.8230 H   0  0  0  0  0  0  0  0  0  0  0  0
    3.8195   -1.1451    0.5789 H   0  0  0  0  0  0  0  0  0  0  0  0
    5.0901   -2.2998    1.2733 H   0  0  0  0  0  0  0  0  0  0  0  0
    2.7485   -2.9945   -0.7123 H   0  0  0  0  0  0  0  0  0  0  0  0
    4.3834   -3.8437   -0.5485 H   0  0  0  0  0  0  0  0  0  0  0  0
    3.7952   -4.6228    1.4041 H   0  0  0  0  0  0  0  0  0  0  0  0
    2.0130   -4.2188    1.0310 H   0  0  0  0  0  0  0  0  0  0  0  0
    2.8243   -4.9946    3.3062 H   0  0  0  0  0  0  0  0  0  0  0  0
    4.3314   -4.9717    4.1110 H   0  0  0  0  0  0  0  0  0  0  0  0
    4.5509   -6.4441    2.0637 H   0  0  0  0  0  0  0  0  0  0  0  0
    4.9613   -7.1616    3.4612 H   0  0  0  0  0  0  0  0  0  0  0  0
    4.1413   -9.1762    3.9079 H   0  0  0  0  0  0  0  0  0  0  0  0
    2.7142   -9.8400    3.1753 H   0  0  0  0  0  0  0  0  0  0  0  0
    4.5283  -10.9857    2.1208 H   0  0  0  0  0  0  0  0  0  0  0  0
    5.9615   -8.3018    1.7084 H   0  0  0  0  0  0  0  0  0  0  0  0
    6.5518   -9.9528    1.1775 H   0  0  0  0  0  0  0  0  0  0  0  0
    4.3686  -10.2370   -0.1632 H   0  0  0  0  0  0  0  0  0  0  0  0
    3.9026   -8.5831    0.2109 H   0  0  0  0  0  0  0  0  0  0  0  0
    1.2607   -8.6435    1.9140 H   0  0  0  0  0  0  0  0  0  0  0  0
    2.2558   -6.2421    0.9486 H   0  0  0  0  0  0  0  0  0  0  0  0
    0.6581   -6.8948    0.5184 H   0  0  0  0  0  0  0  0  0  0  0  0
    0.8496   -4.9534    2.8223 H   0  0  0  0  0  0  0  0  0  0  0  0
   -0.4871   -5.9282    2.1755 H   0  0  0  0  0  0  0  0  0  0  0  0
   -1.1314   -7.9418    2.8259 H   0  0  0  0  0  0  0  0  0  0  0  0
   -0.3168   -8.8092    4.0998 H   0  0  0  0  0  0  0  0  0  0  0  0
   -1.9583   -7.5216    5.2878 H   0  0  0  0  0  0  0  0  0  0  0  0
   -1.6550   -6.1804    4.2678 H   0  0  0  0  0  0  0  0  0  0  0  0
    2.3502   -0.2644    2.7528 H   0  0  0  0  0  0  0  0  0  0  0  0
    3.4511   -7.9555    1.5714 H   0  0  0  0  0  0  0  0  0  0  0  0
  1  2  1  0
  1 44  1  0
  1 45  1  0
  1 46  1  0
  3  2  1  1
  3 42  1  0
 43  3  1  1
  3  4  1  0
  4  5  2  0
  4 47  1  0
  5  6  1  0
  5 48  1  0
  6 43  1  0
  6  7  1  0
  6 49  1  6
  7 29  1  0
  7  8  1  0
  7 50  1  6
  8  9  1  0
  9 28  2  0
  9 10  1  0
 10 11  2  0
 10 51  1  0
 11 12  1  0
 11 52  1  0
 12 13  2  0
 12 53  1  0
 13 14  1  0
 13 28  1  0
 14 15  1  0
 14 54  1  0
 14 55  1  0
 15 22  1  0
 15 16  1  0
 15 56  1  6
 16 17  1  0
 16 57  1  0
 16 58  1  0
 17 18  1  0
 17 59  1  0
 17 60  1  0
 18 19  1  0
 18 22  1  0
 18 61  1  1
 19 20  1  0
 19 21  1  0
 19 62  1  6
 20 63  1  0
 20 64  1  0
 20 65  1  0
 21 66  1  0
 22 23  1  0
 22 96  1  6
 23 24  1  0
 23 67  1  0
 23 68  1  0
 24 27  1  0
 24 25  1  0
 24 69  1  0
 25 26  1  0
 25 70  1  0
 25 71  1  0
 26 27  1  0
 26 72  1  0
 26 73  1  0
 27 74  1  0
 27 75  1  0
 28 29  1  0
 29 43  1  0
 29 30  1  6
 30 31  1  0
 30 76  1  0
 30 77  1  0
 31 32  1  0
 31 78  1  0
 31 79  1  0
 32 33  1  0
 32 37  1  0
 32 97  1  6
 33 34  1  0
 33 80  1  0
 33 81  1  0
 34 36  1  0
 34 35  1  0
 34 82  1  0
 35 36  1  0
 35 83  1  0
 35 84  1  0
 36 85  1  0
 36 86  1  0
 37 40  1  0
 37 38  1  0
 37 87  1  6
 38 39  1  0
 38 88  1  0
 38 89  1  0
 40 39  1  6
 39 90  1  0
 39 91  1  0
 40 41  1  0
 40 43  1  0
 41 42  1  0
 41 92  1  0
 41 93  1  0
 42 94  1  0
 42 95  1  0
M  CHG  2  22   1  32   1
M  END
>  <i_m_ct_stereo_status>  (349) 
1

>  <s_m_source_file>  (349) 
/var/tmp/pbs.5076255.sched01/tmpimq9cq4v/129n8p27m2m.sdf

>  <i_m_source_file_index>  (349) 
29

>  <i_lp_mmshare_version>  (349) 
48012

>  <i_f3d_flags>  (349) 
0

>  <s_epik_input>  (349) 
W0NIMl0xW0NIMl1bQ0hdMVtDSDJdTihbQ0gyXVtDSDJdMilbQ0BIXShbQ0gyXVtDSDJdMylbQ0BdMyhbQ0BAXTQ1W0NAXTI2NylbQ0gyXVtDSDJdW0NAQF00KE9bQ0gzXSlbQ0hdPVtDSF1bQ0BASF01W0NAQEhdNk9jOGM3YyhbY0hdW2NIXVtjSF04KVtDSDJdW0NAQEhdOVtDSDJdW0NIMl1bQ0BASF0oW0NASF0oW0NIM10pW09IXSlOOVtDSDJdW0NIXTFbQ0gyXVtDSDJdW0NIMl0x

>  <s_epik_cmdline>  (349) 
J2VwaWtfcHl0aG9uJywgJy1waHQnLCAnMi4wJywgJy1waCcsICc3LjAnLCAnLXRuJywgJzgnLCAnLW1hJywgJzIwMCcsICctaW1hZScsICc8aW5maWxlLm1hZT4nLCAnLW9tYWUnLCAnPG91dGZpbGUubWFlPic=

>  <r_lp_tautomer_probability>  (349) 
1

>  <r_epik_Ionization_Penalty>  (349) 
0.00217825

>  <r_epik_Ionization_Penalty_Charging>  (349) 
0.00217824

>  <r_epik_Ionization_Penalty_Neutral>  (349) 
9.83104e-09

>  <r_epik_State_Penalty>  (349) 
-0

>  <r_epik_Charging_Adjusted_Penalty>  (349) 
0.00217824

>  <i_epik_Tot_Q>  (349) 
2

>  <i_epik_Tot_abs_Q>  (349) 
2

>  <s_lp_Force_Field>  (349) 
OPLS3e

>  <r_lp_Energy>  (349) 
107.076

>  <b_lp_Chiralities_Consistent>  (349) 
1

>  <s_lp_Variant>  (349) 
112:0-1

>  <s_i_glide_gridfile>  (349) 
pfpi4k_grid

>  <i_i_glide_lignum>  (349) 
29

>  <i_i_glide_rotatable_bonds>  (349) 
9

>  <r_i_docking_score>  (349) 
-0.69048

>  <r_i_glide_ligand_efficiency>  (349) 
-0.0160577

>  <r_i_glide_ligand_efficiency_sa>  (349) 
-0.0562564

>  <r_i_glide_ligand_efficiency_ln>  (349) 
-0.145022

>  <r_i_glide_gscore>  (349) 
-0.69048

>  <r_i_glide_lipo>  (349) 
-0.00823104

>  <r_i_glide_hbond>  (349) 
0

>  <r_i_glide_metal>  (349) 
-0

>  <r_i_glide_rewards>  (349) 
0

>  <r_i_glide_evdw>  (349) 
-13.4147

>  <r_i_glide_ecoul>  (349) 
-4.33557

>  <r_i_glide_erotb>  (349) 
0.319904

>  <r_i_glide_esite>  (349) 
-0.014078

>  <r_i_glide_emodel>  (349) 
-7.85933

>  <r_i_glide_energy>  (349) 
-17.7503

>  <r_i_glide_einternal>  (349) 
13.2799

>  <r_i_glide_intrahb_reward>  (349) 
-0

>  <i_i_glide_confnum>  (349) 
8

>  <i_i_glide_posenum>  (349) 
12

>  <r_i_glide_eff_state_penalty>  (349) 
0

>  <ligand_id>  (349) 
112

>  <original_smiles>  (349) 
COC12C=CC3C4Oc5cccc(CC6CCC(C(C)O)N6CC6CCC6)c5C45CCN(CC4CC4)C4CCC4(CC1)C325

>  <smiles>  (349) 
[H]OC([H])(C([H])([H])[H])C1([H])C([H])([H])C([H])([H])C([H])(C([H])([H])c2c([H])c([H])c([H])c3c2C24C([H])([H])C([H])([H])[N+]([H])(C([H])([H])C5([H])C([H])([H])C5([H])[H])C5([H])C([H])([H])C([H])([H])C56C([H])([H])C([H])([H])C5(OC([H])([H])[H])C([H])=C([H])C([H])(C2([H])O3)C546)[N+]1([H])C([H])([H])C1([H])C([H])([H])C([H])([H])C1([H])[H]

$$$$
113:0:0
     RDKit          3D

 23 24  0  0  1  0  0  0  0  0999 V2000
  -10.0124   -5.0364   -7.1458 C   0  0  0  0  0  0  0  0  0  0  0  0
   -9.6533   -3.6255   -6.6375 C   0  0  0  0  0  0  0  0  0  0  0  0
   -8.8890   -3.7302   -5.4461 O   0  0  0  0  0  0  0  0  0  0  0  0
   -7.6731   -4.3274   -5.6890 C   0  0  1  0  0  0  0  0  0  0  0  0
   -6.8951   -4.6181   -4.4050 C   0  0  0  0  0  0  0  0  0  0  0  0
   -6.1165   -5.9189   -4.6611 C   0  0  0  0  0  0  0  0  0  0  0  0
   -6.8302   -6.6046   -5.8262 C   0  0  0  0  0  0  0  0  0  0  0  0
   -8.0513   -5.8182   -5.9762 N   0  0  2  0  0  0  0  0  0  0  0  0
   -8.7674   -5.9179   -7.2473 C   0  0  0  0  0  0  0  0  0  0  0  0
  -10.5059   -4.9615   -8.1109 H   0  0  0  0  0  0  0  0  0  0  0  0
  -10.7347   -5.4710   -6.4613 H   0  0  0  0  0  0  0  0  0  0  0  0
   -9.0996   -3.0733   -7.3850 H   0  0  0  0  0  0  0  0  0  0  0  0
  -10.5452   -3.0628   -6.4028 H   0  0  0  0  0  0  0  0  0  0  0  0
   -7.1114   -3.8581   -6.4955 H   0  0  0  0  0  0  0  0  0  0  0  0
   -6.2235   -3.7865   -4.1832 H   0  0  0  0  0  0  0  0  0  0  0  0
   -7.5742   -4.7188   -3.5450 H   0  0  0  0  0  0  0  0  0  0  0  0
   -5.0781   -5.7023   -4.9319 H   0  0  0  0  0  0  0  0  0  0  0  0
   -6.0928   -6.5524   -3.7700 H   0  0  0  0  0  0  0  0  0  0  0  0
   -6.2420   -6.4995   -6.7345 H   0  0  0  0  0  0  0  0  0  0  0  0
   -7.0291   -7.6603   -5.6393 H   0  0  0  0  0  0  0  0  0  0  0  0
   -9.0421   -6.9568   -7.4598 H   0  0  0  0  0  0  0  0  0  0  0  0
   -8.1096   -5.5617   -8.0388 H   0  0  0  0  0  0  0  0  0  0  0  0
   -8.6708   -6.1354   -5.2502 H   0  0  0  0  0  0  0  0  0  0  0  0
  1  9  1  0
  1  2  1  0
  1 10  1  0
  1 11  1  0
  2  3  1  0
  2 12  1  0
  2 13  1  0
  3  4  1  0
  4  8  1  0
  4  5  1  0
  4 14  1  6
  5  6  1  0
  5 15  1  0
  5 16  1  0
  6  7  1  0
  6 17  1  0
  6 18  1  0
  7  8  1  0
  7 19  1  0
  7 20  1  0
  8  9  1  0
  8 23  1  1
  9 21  1  0
  9 22  1  0
M  CHG  1   8   1
M  END
>  <i_m_ct_stereo_status>  (350) 
1

>  <s_m_source_file>  (350) 
/var/tmp/pbs.5076255.sched01/tmpimq9cq4v/129n8p27m2m.sdf

>  <i_m_source_file_index>  (350) 
30

>  <i_lp_mmshare_version>  (350) 
48012

>  <i_f3d_flags>  (350) 
0

>  <s_epik_input>  (350) 
TzFbQ0gyXVtDSDJdW0NIMl1OKFtDQEBIXTEyKVtDSDJdW0NIMl1bQ0gyXTI=

>  <s_epik_cmdline>  (350) 
J2VwaWtfcHl0aG9uJywgJy1waHQnLCAnMi4wJywgJy1waCcsICc3LjAnLCAnLXRuJywgJzgnLCAnLW1hJywgJzIwMCcsICctaW1hZScsICc8aW5maWxlLm1hZT4nLCAnLW9tYWUnLCAnPG91dGZpbGUubWFlPic=

>  <r_epik_Ionization_Penalty>  (350) 
0.226541

>  <r_epik_Ionization_Penalty_Charging>  (350) 
0.226541

>  <r_epik_Ionization_Penalty_Neutral>  (350) 
1.31558e-16

>  <r_epik_State_Penalty>  (350) 
0.217059

>  <r_epik_Charging_Adjusted_Penalty>  (350) 
0.4436

>  <i_epik_Tot_Q>  (350) 
1

>  <i_epik_Tot_abs_Q>  (350) 
1

>  <s_epik_Chemistry_Notes>  (350) 
This compound contains an acetal/aminal-like group ( X-CH(R)-Y where X, Y are N, S, or O) that may be acid/base labile, releasing an aldehyde.

>  <s_lp_Force_Field>  (350) 
OPLS3e

>  <r_lp_Energy>  (350) 
15.444

>  <b_lp_Chiralities_Consistent>  (350) 
1

>  <s_lp_Variant>  (350) 
113:0-1

>  <s_i_glide_gridfile>  (350) 
pfpi4k_grid

>  <i_i_glide_lignum>  (350) 
30

>  <i_i_glide_rotatable_bonds>  (350) 
0

>  <r_i_docking_score>  (350) 
-5.15894

>  <r_i_glide_ligand_efficiency>  (350) 
-0.573215

>  <r_i_glide_ligand_efficiency_sa>  (350) 
-1.19234

>  <r_i_glide_ligand_efficiency_ln>  (350) 
-1.61357

>  <r_i_glide_gscore>  (350) 
-5.15894

>  <r_i_glide_lipo>  (350) 
-1.51164

>  <r_i_glide_hbond>  (350) 
0

>  <r_i_glide_metal>  (350) 
-0

>  <r_i_glide_rewards>  (350) 
-2.76083

>  <r_i_glide_evdw>  (350) 
-18.4619

>  <r_i_glide_ecoul>  (350) 
0.244157

>  <r_i_glide_erotb>  (350) 
0

>  <r_i_glide_esite>  (350) 
0

>  <r_i_glide_emodel>  (350) 
-26.0591

>  <r_i_glide_energy>  (350) 
-18.2178

>  <r_i_glide_einternal>  (350) 
0

>  <r_i_glide_intrahb_reward>  (350) 
-0

>  <i_i_glide_confnum>  (350) 
1

>  <i_i_glide_posenum>  (350) 
3

>  <r_i_glide_eff_state_penalty>  (350) 
0

>  <ligand_id>  (350) 
113

>  <original_smiles>  (350) 
C1COC2CCCN2C1

>  <smiles>  (350) 
[H]C1([H])OC2([H])C([H])([H])C([H])([H])C([H])([H])[N+]2([H])C([H])([H])C1([H])[H]

$$$$
113:0:1
     RDKit          3D

 23 24  0  0  1  0  0  0  0  0999 V2000
    3.4663   -2.1218    0.9815 C   0  0  0  0  0  0  0  0  0  0  0  0
    3.1687   -3.5816    0.5556 C   0  0  0  0  0  0  0  0  0  0  0  0
    2.5070   -3.6103   -0.7018 O   0  0  0  0  0  0  0  0  0  0  0  0
    3.3276   -3.1118   -1.6808 C   0  0  1  0  0  0  0  0  0  0  0  0
    2.6338   -2.9417   -3.0422 C   0  0  0  0  0  0  0  0  0  0  0  0
    3.2995   -1.7336   -3.7206 C   0  0  0  0  0  0  0  0  0  0  0  0
    3.9689   -0.9540   -2.5906 C   0  0  0  0  0  0  0  0  0  0  0  0
    3.4320   -1.5639   -1.3808 N   0  0  2  0  0  0  0  0  0  0  0  0
    4.1965   -1.3648   -0.1330 C   0  0  0  0  0  0  0  0  0  0  0  0
    4.0796   -2.1274    1.8914 H   0  0  0  0  0  0  0  0  0  0  0  0
    2.5281   -1.6232    1.2271 H   0  0  0  0  0  0  0  0  0  0  0  0
    4.0889   -4.1746    0.5132 H   0  0  0  0  0  0  0  0  0  0  0  0
    2.5156   -4.0471    1.2846 H   0  0  0  0  0  0  0  0  0  0  0  0
    4.2933   -3.6255   -1.7248 H   0  0  0  0  0  0  0  0  0  0  0  0
    2.7384   -3.8532   -3.6257 H   0  0  0  0  0  0  0  0  0  0  0  0
    1.5641   -2.7690   -2.8864 H   0  0  0  0  0  0  0  0  0  0  0  0
    4.0494   -2.0613   -4.4412 H   0  0  0  0  0  0  0  0  0  0  0  0
    2.5703   -1.1245   -4.2502 H   0  0  0  0  0  0  0  0  0  0  0  0
    5.0456   -1.1327   -2.6223 H   0  0  0  0  0  0  0  0  0  0  0  0
    3.7848    0.1209   -2.6622 H   0  0  0  0  0  0  0  0  0  0  0  0
    4.2970   -0.3020    0.0972 H   0  0  0  0  0  0  0  0  0  0  0  0
    5.1924   -1.7906   -0.2751 H   0  0  0  0  0  0  0  0  0  0  0  0
    2.4848   -1.2222   -1.2213 H   0  0  0  0  0  0  0  0  0  0  0  0
  1  9  1  0
  1  2  1  0
  1 10  1  0
  1 11  1  0
  2  3  1  0
  2 12  1  0
  2 13  1  0
  3  4  1  0
  4  8  1  0
  4  5  1  0
  4 14  1  6
  5  6  1  0
  5 15  1  0
  5 16  1  0
  6  7  1  0
  6 17  1  0
  6 18  1  0
  7  8  1  0
  7 19  1  0
  7 20  1  0
  8  9  1  0
  8 23  1  1
  9 21  1  0
  9 22  1  0
M  CHG  1   8   1
M  END
>  <i_m_ct_stereo_status>  (351) 
1

>  <s_m_source_file>  (351) 
/var/tmp/pbs.5076255.sched01/tmpimq9cq4v/129n8p27m2m.sdf

>  <i_m_source_file_index>  (351) 
30

>  <i_lp_mmshare_version>  (351) 
48012

>  <i_f3d_flags>  (351) 
0

>  <s_epik_input>  (351) 
TzFbQ0gyXVtDSDJdW0NIMl1OKFtDQEBIXTEyKVtDSDJdW0NIMl1bQ0gyXTI=

>  <s_epik_cmdline>  (351) 
J2VwaWtfcHl0aG9uJywgJy1waHQnLCAnMi4wJywgJy1waCcsICc3LjAnLCAnLXRuJywgJzgnLCAnLW1hJywgJzIwMCcsICctaW1hZScsICc8aW5maWxlLm1hZT4nLCAnLW9tYWUnLCAnPG91dGZpbGUubWFlPic=

>  <r_epik_Ionization_Penalty>  (351) 
0.226541

>  <r_epik_Ionization_Penalty_Charging>  (351) 
0.226541

>  <r_epik_Ionization_Penalty_Neutral>  (351) 
1.31558e-16

>  <r_epik_State_Penalty>  (351) 
0.217059

>  <r_epik_Charging_Adjusted_Penalty>  (351) 
0.4436

>  <i_epik_Tot_Q>  (351) 
1

>  <i_epik_Tot_abs_Q>  (351) 
1

>  <s_epik_Chemistry_Notes>  (351) 
This compound contains an acetal/aminal-like group ( X-CH(R)-Y where X, Y are N, S, or O) that may be acid/base labile, releasing an aldehyde.

>  <s_lp_Force_Field>  (351) 
OPLS3e

>  <r_lp_Energy>  (351) 
15.444

>  <b_lp_Chiralities_Consistent>  (351) 
1

>  <s_lp_Variant>  (351) 
113:0-1

>  <s_i_glide_gridfile>  (351) 
pfpi4k_grid

>  <i_i_glide_lignum>  (351) 
30

>  <i_i_glide_rotatable_bonds>  (351) 
0

>  <r_i_docking_score>  (351) 
-4.20864

>  <r_i_glide_ligand_efficiency>  (351) 
-0.467626

>  <r_i_glide_ligand_efficiency_sa>  (351) 
-0.972702

>  <r_i_glide_ligand_efficiency_ln>  (351) 
-1.31634

>  <r_i_glide_gscore>  (351) 
-4.20864

>  <r_i_glide_lipo>  (351) 
-0.282424

>  <r_i_glide_hbond>  (351) 
-0.2

>  <r_i_glide_metal>  (351) 
-0

>  <r_i_glide_rewards>  (351) 
-2.26462

>  <r_i_glide_evdw>  (351) 
-15.2912

>  <r_i_glide_ecoul>  (351) 
-3.99012

>  <r_i_glide_erotb>  (351) 
0

>  <r_i_glide_esite>  (351) 
-0.098514

>  <r_i_glide_emodel>  (351) 
-25.655

>  <r_i_glide_energy>  (351) 
-19.2813

>  <r_i_glide_einternal>  (351) 
0

>  <r_i_glide_intrahb_reward>  (351) 
-0

>  <i_i_glide_confnum>  (351) 
2

>  <i_i_glide_posenum>  (351) 
39

>  <r_i_glide_eff_state_penalty>  (351) 
0

>  <ligand_id>  (351) 
113

>  <original_smiles>  (351) 
C1COC2CCCN2C1

>  <smiles>  (351) 
[H]C1([H])OC2([H])C([H])([H])C([H])([H])C([H])([H])[N+]2([H])C([H])([H])C1([H])[H]

$$$$
113:0:2
     RDKit          3D

 23 24  0  0  1  0  0  0  0  0999 V2000
    3.9904   -3.4891    0.4952 C   0  0  0  0  0  0  0  0  0  0  0  0
    4.5559   -2.0538    0.5405 C   0  0  0  0  0  0  0  0  0  0  0  0
    4.9063   -1.6241   -0.7702 O   0  0  0  0  0  0  0  0  0  0  0  0
    3.7828   -1.5320   -1.5555 C   0  0  1  0  0  0  0  0  0  0  0  0
    4.0944   -1.2337   -3.0264 C   0  0  0  0  0  0  0  0  0  0  0  0
    3.0167   -1.9489   -3.8466 C   0  0  0  0  0  0  0  0  0  0  0  0
    2.4163   -3.0046   -2.9194 C   0  0  0  0  0  0  0  0  0  0  0  0
    3.3369   -3.0252   -1.7926 N   0  0  2  0  0  0  0  0  0  0  0  0
    2.8670   -3.6008   -0.5343 C   0  0  0  0  0  0  0  0  0  0  0  0
    3.6262   -3.7575    1.4792 H   0  0  0  0  0  0  0  0  0  0  0  0
    4.7975   -4.1794    0.2639 H   0  0  0  0  0  0  0  0  0  0  0  0
    3.8391   -1.3622    0.9863 H   0  0  0  0  0  0  0  0  0  0  0  0
    5.4466   -2.0205    1.1558 H   0  0  0  0  0  0  0  0  0  0  0  0
    3.0025   -0.9096   -1.1123 H   0  0  0  0  0  0  0  0  0  0  0  0
    4.0932   -0.1568   -3.2016 H   0  0  0  0  0  0  0  0  0  0  0  0
    5.0756   -1.6304   -3.2956 H   0  0  0  0  0  0  0  0  0  0  0  0
    2.2411   -1.2572   -4.1934 H   0  0  0  0  0  0  0  0  0  0  0  0
    3.4445   -2.4124   -4.7327 H   0  0  0  0  0  0  0  0  0  0  0  0
    1.4355   -2.6738   -2.5727 H   0  0  0  0  0  0  0  0  0  0  0  0
    2.3069   -3.9741   -3.4142 H   0  0  0  0  0  0  0  0  0  0  0  0
    2.5502   -4.6424   -0.6735 H   0  0  0  0  0  0  0  0  0  0  0  0
    2.0030   -3.0258   -0.2048 H   0  0  0  0  0  0  0  0  0  0  0  0
    4.1306   -3.5724   -2.0870 H   0  0  0  0  0  0  0  0  0  0  0  0
  1  9  1  0
  1  2  1  0
  1 10  1  0
  1 11  1  0
  2  3  1  0
  2 12  1  0
  2 13  1  0
  3  4  1  0
  4  8  1  0
  4  5  1  0
  4 14  1  1
  5  6  1  0
  5 15  1  0
  5 16  1  0
  6  7  1  0
  6 17  1  0
  6 18  1  0
  7  8  1  0
  7 19  1  0
  7 20  1  0
  8  9  1  0
  8 23  1  6
  9 21  1  0
  9 22  1  0
M  CHG  1   8   1
M  END
>  <i_m_ct_stereo_status>  (352) 
1

>  <s_m_source_file>  (352) 
/var/tmp/pbs.5076255.sched01/tmpimq9cq4v/129n8p27m2m.sdf

>  <i_m_source_file_index>  (352) 
30

>  <i_lp_mmshare_version>  (352) 
48012

>  <i_f3d_flags>  (352) 
0

>  <s_epik_input>  (352) 
TzFbQ0gyXVtDSDJdW0NIMl1OKFtDQEBIXTEyKVtDSDJdW0NIMl1bQ0gyXTI=

>  <s_epik_cmdline>  (352) 
J2VwaWtfcHl0aG9uJywgJy1waHQnLCAnMi4wJywgJy1waCcsICc3LjAnLCAnLXRuJywgJzgnLCAnLW1hJywgJzIwMCcsICctaW1hZScsICc8aW5maWxlLm1hZT4nLCAnLW9tYWUnLCAnPG91dGZpbGUubWFlPic=

>  <r_epik_Ionization_Penalty>  (352) 
0.226541

>  <r_epik_Ionization_Penalty_Charging>  (352) 
0.226541

>  <r_epik_Ionization_Penalty_Neutral>  (352) 
1.31558e-16

>  <r_epik_State_Penalty>  (352) 
0.217059

>  <r_epik_Charging_Adjusted_Penalty>  (352) 
0.4436

>  <i_epik_Tot_Q>  (352) 
1

>  <i_epik_Tot_abs_Q>  (352) 
1

>  <s_epik_Chemistry_Notes>  (352) 
This compound contains an acetal/aminal-like group ( X-CH(R)-Y where X, Y are N, S, or O) that may be acid/base labile, releasing an aldehyde.

>  <s_lp_Force_Field>  (352) 
OPLS3e

>  <r_lp_Energy>  (352) 
15.444

>  <b_lp_Chiralities_Consistent>  (352) 
1

>  <s_lp_Variant>  (352) 
113:0-1

>  <s_i_glide_gridfile>  (352) 
pfpi4k_grid

>  <i_i_glide_lignum>  (352) 
30

>  <i_i_glide_rotatable_bonds>  (352) 
0

>  <r_i_docking_score>  (352) 
-4.03349

>  <r_i_glide_ligand_efficiency>  (352) 
-0.448166

>  <r_i_glide_ligand_efficiency_sa>  (352) 
-0.932222

>  <r_i_glide_ligand_efficiency_ln>  (352) 
-1.26156

>  <r_i_glide_gscore>  (352) 
-4.03349

>  <r_i_glide_lipo>  (352) 
-0.297921

>  <r_i_glide_hbond>  (352) 
0

>  <r_i_glide_metal>  (352) 
-0

>  <r_i_glide_rewards>  (352) 
-2.25

>  <r_i_glide_evdw>  (352) 
-14.2022

>  <r_i_glide_ecoul>  (352) 
-4.65293

>  <r_i_glide_erotb>  (352) 
0

>  <r_i_glide_esite>  (352) 
-0.07752

>  <r_i_glide_emodel>  (352) 
-24.9414

>  <r_i_glide_energy>  (352) 
-18.8552

>  <r_i_glide_einternal>  (352) 
0

>  <r_i_glide_intrahb_reward>  (352) 
-0

>  <i_i_glide_confnum>  (352) 
1

>  <i_i_glide_posenum>  (352) 
7

>  <r_i_glide_eff_state_penalty>  (352) 
0

>  <ligand_id>  (352) 
113

>  <original_smiles>  (352) 
C1COC2CCCN2C1

>  <smiles>  (352) 
[H]C1([H])OC2([H])C([H])([H])C([H])([H])C([H])([H])[N+]2([H])C([H])([H])C1([H])[H]

$$$$
113:1:0
     RDKit          3D

 22 23  0  0  1  0  0  0  0  0999 V2000
   -7.2978   -5.1299   -5.2151 C   0  0  0  0  0  0  0  0  0  0  0  0
   -5.8428   -4.8746   -4.8188 C   0  0  0  0  0  0  0  0  0  0  0  0
   -5.2143   -6.1035   -4.4316 O   0  0  0  0  0  0  0  0  0  0  0  0
   -5.2903   -7.0507   -5.4512 C   0  0  1  0  0  0  0  0  0  0  0  0
   -4.6147   -8.3423   -5.0727 C   0  0  0  0  0  0  0  0  0  0  0  0
   -5.3434   -9.3042   -6.0154 C   0  0  0  0  0  0  0  0  0  0  0  0
   -6.5702   -8.5490   -6.5810 C   0  0  0  0  0  0  0  0  0  0  0  0
   -6.6360   -7.3629   -5.7498 N   0  0  0  0  0  0  0  0  0  0  0  0
   -7.3924   -6.2372   -6.2715 C   0  0  0  0  0  0  0  0  0  0  0  0
   -7.7381   -4.2121   -5.6057 H   0  0  0  0  0  0  0  0  0  0  0  0
   -7.8743   -5.3857   -4.3339 H   0  0  0  0  0  0  0  0  0  0  0  0
   -5.2961   -4.3950   -5.6330 H   0  0  0  0  0  0  0  0  0  0  0  0
   -5.7904   -4.1995   -3.9716 H   0  0  0  0  0  0  0  0  0  0  0  0
   -4.7976   -6.6581   -6.3196 H   0  0  0  0  0  0  0  0  0  0  0  0
   -3.5343   -8.2775   -5.2492 H   0  0  0  0  0  0  0  0  0  0  0  0
   -4.8005   -8.5872   -4.0322 H   0  0  0  0  0  0  0  0  0  0  0  0
   -4.7017   -9.6143   -6.8376 H   0  0  0  0  0  0  0  0  0  0  0  0
   -5.6422  -10.2078   -5.4918 H   0  0  0  0  0  0  0  0  0  0  0  0
   -6.3987   -8.2648   -7.6150 H   0  0  0  0  0  0  0  0  0  0  0  0
   -7.4961   -9.1156   -6.4945 H   0  0  0  0  0  0  0  0  0  0  0  0
   -8.4189   -6.5479   -6.4267 H   0  0  0  0  0  0  0  0  0  0  0  0
   -6.9811   -5.9066   -7.2204 H   0  0  0  0  0  0  0  0  0  0  0  0
  1  9  1  0
  1  2  1  0
  1 10  1  0
  1 11  1  0
  2  3  1  0
  2 12  1  0
  2 13  1  0
  3  4  1  0
  4  8  1  0
  4  5  1  0
  4 14  1  6
  5  6  1  0
  5 15  1  0
  5 16  1  0
  6  7  1  0
  6 17  1  0
  6 18  1  0
  7  8  1  0
  7 19  1  0
  7 20  1  0
  8  9  1  0
  9 21  1  0
  9 22  1  0
M  END
>  <i_m_ct_stereo_status>  (353) 
1

>  <s_m_source_file>  (353) 
/var/tmp/pbs.5076255.sched01/tmpimq9cq4v/129n8p27m2m.sdf

>  <i_m_source_file_index>  (353) 
31

>  <i_lp_mmshare_version>  (353) 
48012

>  <i_f3d_flags>  (353) 
0

>  <s_epik_input>  (353) 
TzFbQ0gyXVtDSDJdW0NIMl1OKFtDQEBIXTEyKVtDSDJdW0NIMl1bQ0gyXTI=

>  <s_epik_cmdline>  (353) 
J2VwaWtfcHl0aG9uJywgJy1waHQnLCAnMi4wJywgJy1waCcsICc3LjAnLCAnLXRuJywgJzgnLCAnLW1hJywgJzIwMCcsICctaW1hZScsICc8aW5maWxlLm1hZT4nLCAnLW9tYWUnLCAnPG91dGZpbGUubWFlPic=

>  <r_epik_Ionization_Penalty>  (353) 
0.679281

>  <r_epik_Ionization_Penalty_Charging>  (353) 
0

>  <r_epik_Ionization_Penalty_Neutral>  (353) 
0.679281

>  <r_epik_State_Penalty>  (353) 
0.700169

>  <r_epik_Charging_Adjusted_Penalty>  (353) 
0.700169

>  <i_epik_Tot_Q>  (353) 
0

>  <i_epik_Tot_abs_Q>  (353) 
0

>  <s_epik_Chemistry_Notes>  (353) 
This compound contains an acetal/aminal-like group ( X-CH(R)-Y where X, Y are N, S, or O) that may be acid/base labile, releasing an aldehyde.

>  <s_lp_Force_Field>  (353) 
OPLS3e

>  <r_lp_Energy>  (353) 
9.03819

>  <b_lp_Chiralities_Consistent>  (353) 
1

>  <s_lp_Variant>  (353) 
113:0-2

>  <s_i_glide_gridfile>  (353) 
pfpi4k_grid

>  <i_i_glide_lignum>  (353) 
31

>  <i_i_glide_rotatable_bonds>  (353) 
0

>  <r_i_docking_score>  (353) 
-5.70377

>  <r_i_glide_ligand_efficiency>  (353) 
-0.633752

>  <r_i_glide_ligand_efficiency_sa>  (353) 
-1.31826

>  <r_i_glide_ligand_efficiency_ln>  (353) 
-1.78397

>  <r_i_glide_gscore>  (353) 
-5.70377

>  <r_i_glide_lipo>  (353) 
-1.5007

>  <r_i_glide_hbond>  (353) 
-0.312102

>  <r_i_glide_metal>  (353) 
-0

>  <r_i_glide_rewards>  (353) 
-2.75155

>  <r_i_glide_evdw>  (353) 
-18.9336

>  <r_i_glide_ecoul>  (353) 
-1.28493

>  <r_i_glide_erotb>  (353) 
0

>  <r_i_glide_esite>  (353) 
0

>  <r_i_glide_emodel>  (353) 
-27.0711

>  <r_i_glide_energy>  (353) 
-20.2186

>  <r_i_glide_einternal>  (353) 
0

>  <r_i_glide_intrahb_reward>  (353) 
-0

>  <i_i_glide_confnum>  (353) 
1

>  <i_i_glide_posenum>  (353) 
31

>  <r_i_glide_eff_state_penalty>  (353) 
0

>  <ligand_id>  (353) 
113

>  <original_smiles>  (353) 
C1COC2CCCN2C1

>  <smiles>  (353) 
[H]C1([H])OC2([H])N(C([H])([H])C1([H])[H])C([H])([H])C([H])([H])C2([H])[H]

$$$$
113:1:1
     RDKit          3D

 22 23  0  0  1  0  0  0  0  0999 V2000
  -10.0140   -5.0472   -7.1546 C   0  0  0  0  0  0  0  0  0  0  0  0
   -9.6689   -3.6560   -6.6226 C   0  0  0  0  0  0  0  0  0  0  0  0
   -8.8913   -3.7720   -5.4406 O   0  0  0  0  0  0  0  0  0  0  0  0
   -7.7431   -4.4780   -5.7035 C   0  0  1  0  0  0  0  0  0  0  0  0
   -6.8938   -4.5796   -4.4514 C   0  0  0  0  0  0  0  0  0  0  0  0
   -6.1265   -5.8629   -4.7452 C   0  0  0  0  0  0  0  0  0  0  0  0
   -6.8334   -6.5533   -5.9303 C   0  0  0  0  0  0  0  0  0  0  0  0
   -8.0444   -5.8074   -6.0664 N   0  0  0  0  0  0  0  0  0  0  0  0
   -8.7480   -5.8870   -7.3324 C   0  0  0  0  0  0  0  0  0  0  0  0
  -10.5322   -4.9630   -8.0985 H   0  0  0  0  0  0  0  0  0  0  0  0
  -10.6960   -5.5108   -6.4590 H   0  0  0  0  0  0  0  0  0  0  0  0
   -9.1374   -3.0727   -7.3796 H   0  0  0  0  0  0  0  0  0  0  0  0
  -10.5503   -3.1056   -6.3345 H   0  0  0  0  0  0  0  0  0  0  0  0
   -7.2009   -3.9891   -6.5269 H   0  0  0  0  0  0  0  0  0  0  0  0
   -6.2842   -3.6871   -4.3567 H   0  0  0  0  0  0  0  0  0  0  0  0
   -7.5353   -4.6837   -3.5722 H   0  0  0  0  0  0  0  0  0  0  0  0
   -5.1091   -5.6362   -5.0308 H   0  0  0  0  0  0  0  0  0  0  0  0
   -6.0919   -6.5114   -3.8807 H   0  0  0  0  0  0  0  0  0  0  0  0
   -6.2490   -6.4486   -6.8460 H   0  0  0  0  0  0  0  0  0  0  0  0
   -7.0785   -7.5977   -5.7520 H   0  0  0  0  0  0  0  0  0  0  0  0
   -8.9894   -6.9333   -7.4863 H   0  0  0  0  0  0  0  0  0  0  0  0
   -8.1105   -5.5148   -8.1362 H   0  0  0  0  0  0  0  0  0  0  0  0
  1  9  1  0
  1  2  1  0
  1 10  1  0
  1 11  1  0
  2  3  1  0
  2 12  1  0
  2 13  1  0
  3  4  1  0
  4  8  1  0
  4  5  1  0
  4 14  1  6
  5  6  1  0
  5 15  1  0
  5 16  1  0
  6  7  1  0
  6 17  1  0
  6 18  1  0
  7  8  1  0
  7 19  1  0
  7 20  1  0
  8  9  1  0
  9 21  1  0
  9 22  1  0
M  END
>  <i_m_ct_stereo_status>  (354) 
1

>  <s_m_source_file>  (354) 
/var/tmp/pbs.5076255.sched01/tmpimq9cq4v/129n8p27m2m.sdf

>  <i_m_source_file_index>  (354) 
31

>  <i_lp_mmshare_version>  (354) 
48012

>  <i_f3d_flags>  (354) 
0

>  <s_epik_input>  (354) 
TzFbQ0gyXVtDSDJdW0NIMl1OKFtDQEBIXTEyKVtDSDJdW0NIMl1bQ0gyXTI=

>  <s_epik_cmdline>  (354) 
J2VwaWtfcHl0aG9uJywgJy1waHQnLCAnMi4wJywgJy1waCcsICc3LjAnLCAnLXRuJywgJzgnLCAnLW1hJywgJzIwMCcsICctaW1hZScsICc8aW5maWxlLm1hZT4nLCAnLW9tYWUnLCAnPG91dGZpbGUubWFlPic=

>  <r_epik_Ionization_Penalty>  (354) 
0.679281

>  <r_epik_Ionization_Penalty_Charging>  (354) 
0

>  <r_epik_Ionization_Penalty_Neutral>  (354) 
0.679281

>  <r_epik_State_Penalty>  (354) 
0.700169

>  <r_epik_Charging_Adjusted_Penalty>  (354) 
0.700169

>  <i_epik_Tot_Q>  (354) 
0

>  <i_epik_Tot_abs_Q>  (354) 
0

>  <s_epik_Chemistry_Notes>  (354) 
This compound contains an acetal/aminal-like group ( X-CH(R)-Y where X, Y are N, S, or O) that may be acid/base labile, releasing an aldehyde.

>  <s_lp_Force_Field>  (354) 
OPLS3e

>  <r_lp_Energy>  (354) 
9.03819

>  <b_lp_Chiralities_Consistent>  (354) 
1

>  <s_lp_Variant>  (354) 
113:0-2

>  <s_i_glide_gridfile>  (354) 
pfpi4k_grid

>  <i_i_glide_lignum>  (354) 
31

>  <i_i_glide_rotatable_bonds>  (354) 
0

>  <r_i_docking_score>  (354) 
-5.16721

>  <r_i_glide_ligand_efficiency>  (354) 
-0.574135

>  <r_i_glide_ligand_efficiency_sa>  (354) 
-1.19425

>  <r_i_glide_ligand_efficiency_ln>  (354) 
-1.61616

>  <r_i_glide_gscore>  (354) 
-5.16721

>  <r_i_glide_lipo>  (354) 
-1.5144

>  <r_i_glide_hbond>  (354) 
0

>  <r_i_glide_metal>  (354) 
-0

>  <r_i_glide_rewards>  (354) 
-2.76055

>  <r_i_glide_evdw>  (354) 
-19.7187

>  <r_i_glide_ecoul>  (354) 
0.62444

>  <r_i_glide_erotb>  (354) 
0

>  <r_i_glide_esite>  (354) 
0

>  <r_i_glide_emodel>  (354) 
-25.3286

>  <r_i_glide_energy>  (354) 
-19.0943

>  <r_i_glide_einternal>  (354) 
0

>  <r_i_glide_intrahb_reward>  (354) 
-0

>  <i_i_glide_confnum>  (354) 
1

>  <i_i_glide_posenum>  (354) 
17

>  <r_i_glide_eff_state_penalty>  (354) 
0

>  <ligand_id>  (354) 
113

>  <original_smiles>  (354) 
C1COC2CCCN2C1

>  <smiles>  (354) 
[H]C1([H])OC2([H])N(C([H])([H])C1([H])[H])C([H])([H])C([H])([H])C2([H])[H]

$$$$
113:1:2
     RDKit          3D

 22 23  0  0  1  0  0  0  0  0999 V2000
   -6.0628   -9.1860   -6.2733 C   0  0  0  0  0  0  0  0  0  0  0  0
   -6.9739   -8.7016   -7.4185 C   0  0  0  0  0  0  0  0  0  0  0  0
   -7.8849   -7.7135   -6.9474 O   0  0  0  0  0  0  0  0  0  0  0  0
   -7.1655   -6.6497   -6.4118 C   0  0  1  0  0  0  0  0  0  0  0  0
   -8.0687   -5.5228   -5.9310 C   0  0  0  0  0  0  0  0  0  0  0  0
   -7.1780   -4.8655   -4.8809 C   0  0  0  0  0  0  0  0  0  0  0  0
   -5.9934   -5.8221   -4.6305 C   0  0  0  0  0  0  0  0  0  0  0  0
   -6.4108   -7.0523   -5.2838 N   0  0  0  0  0  0  0  0  0  0  0  0
   -5.3611   -7.9874   -5.6029 C   0  0  0  0  0  0  0  0  0  0  0  0
   -5.3152   -9.8802   -6.6655 H   0  0  0  0  0  0  0  0  0  0  0  0
   -6.6640   -9.7360   -5.5518 H   0  0  0  0  0  0  0  0  0  0  0  0
   -6.3676   -8.3260   -8.2550 H   0  0  0  0  0  0  0  0  0  0  0  0
   -7.5795   -9.5172   -7.7894 H   0  0  0  0  0  0  0  0  0  0  0  0
   -6.4959   -6.2793   -7.1902 H   0  0  0  0  0  0  0  0  0  0  0  0
   -8.3638   -4.8933   -6.7674 H   0  0  0  0  0  0  0  0  0  0  0  0
   -8.9665   -5.8955   -5.4440 H   0  0  0  0  0  0  0  0  0  0  0  0
   -6.8057   -3.9168   -5.2454 H   0  0  0  0  0  0  0  0  0  0  0  0
   -7.7365   -4.6839   -3.9661 H   0  0  0  0  0  0  0  0  0  0  0  0
   -5.0894   -5.4389   -5.1128 H   0  0  0  0  0  0  0  0  0  0  0  0
   -5.8219   -6.0263   -3.5710 H   0  0  0  0  0  0  0  0  0  0  0  0
   -4.8582   -8.2975   -4.6858 H   0  0  0  0  0  0  0  0  0  0  0  0
   -4.6320   -7.5351   -6.2892 H   0  0  0  0  0  0  0  0  0  0  0  0
  1  9  1  0
  1  2  1  0
  1 10  1  0
  1 11  1  0
  2  3  1  0
  2 12  1  0
  2 13  1  0
  3  4  1  0
  4  8  1  0
  4  5  1  0
  4 14  1  6
  5  6  1  0
  5 15  1  0
  5 16  1  0
  6  7  1  0
  6 17  1  0
  6 18  1  0
  7  8  1  0
  7 19  1  0
  7 20  1  0
  8  9  1  0
  9 21  1  0
  9 22  1  0
M  END
>  <i_m_ct_stereo_status>  (355) 
1

>  <s_m_source_file>  (355) 
/var/tmp/pbs.5076255.sched01/tmpimq9cq4v/129n8p27m2m.sdf

>  <i_m_source_file_index>  (355) 
31

>  <i_lp_mmshare_version>  (355) 
48012

>  <i_f3d_flags>  (355) 
0

>  <s_epik_input>  (355) 
TzFbQ0gyXVtDSDJdW0NIMl1OKFtDQEBIXTEyKVtDSDJdW0NIMl1bQ0gyXTI=

>  <s_epik_cmdline>  (355) 
J2VwaWtfcHl0aG9uJywgJy1waHQnLCAnMi4wJywgJy1waCcsICc3LjAnLCAnLXRuJywgJzgnLCAnLW1hJywgJzIwMCcsICctaW1hZScsICc8aW5maWxlLm1hZT4nLCAnLW9tYWUnLCAnPG91dGZpbGUubWFlPic=

>  <r_epik_Ionization_Penalty>  (355) 
0.679281

>  <r_epik_Ionization_Penalty_Charging>  (355) 
0

>  <r_epik_Ionization_Penalty_Neutral>  (355) 
0.679281

>  <r_epik_State_Penalty>  (355) 
0.700169

>  <r_epik_Charging_Adjusted_Penalty>  (355) 
0.700169

>  <i_epik_Tot_Q>  (355) 
0

>  <i_epik_Tot_abs_Q>  (355) 
0

>  <s_epik_Chemistry_Notes>  (355) 
This compound contains an acetal/aminal-like group ( X-CH(R)-Y where X, Y are N, S, or O) that may be acid/base labile, releasing an aldehyde.

>  <s_lp_Force_Field>  (355) 
OPLS3e

>  <r_lp_Energy>  (355) 
9.03819

>  <b_lp_Chiralities_Consistent>  (355) 
1

>  <s_lp_Variant>  (355) 
113:0-2

>  <s_i_glide_gridfile>  (355) 
pfpi4k_grid

>  <i_i_glide_lignum>  (355) 
31

>  <i_i_glide_rotatable_bonds>  (355) 
0

>  <r_i_docking_score>  (355) 
-5.15471

>  <r_i_glide_ligand_efficiency>  (355) 
-0.572746

>  <r_i_glide_ligand_efficiency_sa>  (355) 
-1.19136

>  <r_i_glide_ligand_efficiency_ln>  (355) 
-1.61225

>  <r_i_glide_gscore>  (355) 
-5.15471

>  <r_i_glide_lipo>  (355) 
-1.63537

>  <r_i_glide_hbond>  (355) 
0

>  <r_i_glide_metal>  (355) 
-0

>  <r_i_glide_rewards>  (355) 
-2.72488

>  <r_i_glide_evdw>  (355) 
-16.9916

>  <r_i_glide_ecoul>  (355) 
0.367481

>  <r_i_glide_erotb>  (355) 
0

>  <r_i_glide_esite>  (355) 
0

>  <r_i_glide_emodel>  (355) 
-22.82

>  <r_i_glide_energy>  (355) 
-16.6241

>  <r_i_glide_einternal>  (355) 
0

>  <r_i_glide_intrahb_reward>  (355) 
-0

>  <i_i_glide_confnum>  (355) 
1

>  <i_i_glide_posenum>  (355) 
30

>  <r_i_glide_eff_state_penalty>  (355) 
0

>  <ligand_id>  (355) 
113

>  <original_smiles>  (355) 
C1COC2CCCN2C1

>  <smiles>  (355) 
[H]C1([H])OC2([H])N(C([H])([H])C1([H])[H])C([H])([H])C([H])([H])C2([H])[H]

$$$$
114:0:0
     RDKit          3D

 23 24  0  0  1  0  0  0  0  0999 V2000
    2.1790   -3.6346   -1.6422 C   0  0  0  0  0  0  0  0  0  0  0  0
    3.4251   -2.8504   -1.4786 N   0  0  2  0  0  0  0  0  0  0  0  0
    3.4346   -1.4782   -2.0163 C   0  0  1  0  0  0  0  0  0  0  0  0
    4.8686   -1.0186   -1.6964 C   0  0  0  0  0  0  0  0  0  0  0  0
    5.6960   -2.3212   -1.7184 C   0  0  0  0  0  0  0  0  0  0  0  0
    4.6611   -3.4135   -2.0519 C   0  0  2  0  0  0  0  0  0  0  0  0
    4.5073   -3.5488   -3.5927 C   0  0  0  0  0  0  0  0  0  0  0  0
    4.2139   -2.2796   -4.1977 O   0  0  0  0  0  0  0  0  0  0  0  0
    3.1960   -1.5133   -3.5461 C   0  0  0  0  0  0  0  0  0  0  0  0
    1.9101   -3.8436   -2.6786 H   0  0  0  0  0  0  0  0  0  0  0  0
    1.3411   -3.0989   -1.2032 H   0  0  0  0  0  0  0  0  0  0  0  0
    2.2644   -4.5892   -1.1182 H   0  0  0  0  0  0  0  0  0  0  0  0
    2.6977   -0.8486   -1.5277 H   0  0  0  0  0  0  0  0  0  0  0  0
    5.2294   -0.2657   -2.4001 H   0  0  0  0  0  0  0  0  0  0  0  0
    4.9075   -0.5670   -0.7024 H   0  0  0  0  0  0  0  0  0  0  0  0
    6.5163   -2.2914   -2.4387 H   0  0  0  0  0  0  0  0  0  0  0  0
    6.1402   -2.4984   -0.7365 H   0  0  0  0  0  0  0  0  0  0  0  0
    4.9177   -4.3687   -1.5906 H   0  0  0  0  0  0  0  0  0  0  0  0
    5.4426   -3.9179   -4.0193 H   0  0  0  0  0  0  0  0  0  0  0  0
    3.7343   -4.2659   -3.8637 H   0  0  0  0  0  0  0  0  0  0  0  0
    2.2129   -1.9143   -3.7901 H   0  0  0  0  0  0  0  0  0  0  0  0
    3.2379   -0.5008   -3.9504 H   0  0  0  0  0  0  0  0  0  0  0  0
    3.5760   -2.7608   -0.4850 H   0  0  0  0  0  0  0  0  0  0  0  0
  1  2  1  0
  1 10  1  0
  1 11  1  0
  1 12  1  0
  2  6  1  0
  2  3  1  0
  2 23  1  1
  3  9  1  0
  3  4  1  0
  3 13  1  1
  4  5  1  0
  4 14  1  0
  4 15  1  0
  5  6  1  0
  5 16  1  0
  5 17  1  0
  6  7  1  0
  6 18  1  1
  7  8  1  0
  7 19  1  0
  7 20  1  0
  8  9  1  0
  9 21  1  0
  9 22  1  0
M  CHG  1   2   1
M  END
>  <i_m_ct_stereo_status>  (356) 
1

>  <s_m_source_file>  (356) 
/var/tmp/pbs.5076255.sched01/tmpimq9cq4v/129n8p27m2m.sdf

>  <i_m_source_file_index>  (356) 
32

>  <i_lp_mmshare_version>  (356) 
48012

>  <i_f3d_flags>  (356) 
0

>  <s_epik_input>  (356) 
W0NIM11OKFtDQEBIXTEyKVtDQEhdKFtDSDJdW0NIMl0xKVtDSDJdT1tDSDJdMg==

>  <s_epik_cmdline>  (356) 
J2VwaWtfcHl0aG9uJywgJy1waHQnLCAnMi4wJywgJy1waCcsICc3LjAnLCAnLXRuJywgJzgnLCAnLW1hJywgJzIwMCcsICctaW1hZScsICc8aW5maWxlLm1hZT4nLCAnLW9tYWUnLCAnPG91dGZpbGUubWFlPic=

>  <r_epik_Ionization_Penalty>  (356) 
0.0929335

>  <r_epik_Ionization_Penalty_Charging>  (356) 
0.0929335

>  <r_epik_Ionization_Penalty_Neutral>  (356) 
9.20908e-16

>  <r_epik_State_Penalty>  (356) 
0.0832095

>  <r_epik_Charging_Adjusted_Penalty>  (356) 
0.176143

>  <i_epik_Tot_Q>  (356) 
1

>  <i_epik_Tot_abs_Q>  (356) 
1

>  <s_lp_Force_Field>  (356) 
OPLS3e

>  <r_lp_Energy>  (356) 
24.6275

>  <b_lp_Chiralities_Consistent>  (356) 
1

>  <s_lp_Variant>  (356) 
114:0-1

>  <s_i_glide_gridfile>  (356) 
pfpi4k_grid

>  <i_i_glide_lignum>  (356) 
32

>  <i_i_glide_rotatable_bonds>  (356) 
0

>  <r_i_docking_score>  (356) 
-4.52464

>  <r_i_glide_ligand_efficiency>  (356) 
-0.502738

>  <r_i_glide_ligand_efficiency_sa>  (356) 
-1.04574

>  <r_i_glide_ligand_efficiency_ln>  (356) 
-1.41518

>  <r_i_glide_gscore>  (356) 
-4.52464

>  <r_i_glide_lipo>  (356) 
-0.465918

>  <r_i_glide_hbond>  (356) 
-0.32

>  <r_i_glide_metal>  (356) 
-0

>  <r_i_glide_rewards>  (356) 
-2.25

>  <r_i_glide_evdw>  (356) 
-12.4586

>  <r_i_glide_ecoul>  (356) 
-5.65369

>  <r_i_glide_erotb>  (356) 
0

>  <r_i_glide_esite>  (356) 
-0.0177368

>  <r_i_glide_emodel>  (356) 
-24.0282

>  <r_i_glide_energy>  (356) 
-18.1123

>  <r_i_glide_einternal>  (356) 
0

>  <r_i_glide_intrahb_reward>  (356) 
-0

>  <i_i_glide_confnum>  (356) 
1

>  <i_i_glide_posenum>  (356) 
17

>  <r_i_glide_eff_state_penalty>  (356) 
0

>  <ligand_id>  (356) 
114

>  <original_smiles>  (356) 
CN1C2CCC1COC2

>  <smiles>  (356) 
[H]C1([H])OC([H])([H])C2([H])C([H])([H])C([H])([H])C1([H])[N+]2([H])C([H])([H])[H]

$$$$
114:0:1
     RDKit          3D

 23 24  0  0  1  0  0  0  0  0999 V2000
    1.9975   -3.1448   -2.8727 C   0  0  0  0  0  0  0  0  0  0  0  0
    3.4095   -3.3375   -2.5090 N   0  0  2  0  0  0  0  0  0  0  0  0
    3.8870   -2.6211   -1.3146 C   0  0  1  0  0  0  0  0  0  0  0  0
    5.3761   -3.0029   -1.3023 C   0  0  0  0  0  0  0  0  0  0  0  0
    5.7076   -3.2265   -2.7923 C   0  0  0  0  0  0  0  0  0  0  0  0
    4.3945   -2.9296   -3.5287 C   0  0  2  0  0  0  0  0  0  0  0  0
    4.2514   -1.4157   -3.8332 C   0  0  0  0  0  0  0  0  0  0  0  0
    4.4657   -0.6637   -2.6454 O   0  0  0  0  0  0  0  0  0  0  0  0
    3.7214   -1.0952   -1.5115 C   0  0  0  0  0  0  0  0  0  0  0  0
    1.7792   -2.1157   -3.1082 H   0  0  0  0  0  0  0  0  0  0  0  0
    1.3142   -3.4535   -2.0818 H   0  0  0  0  0  0  0  0  0  0  0  0
    1.8172   -3.7275   -3.7719 H   0  0  0  0  0  0  0  0  0  0  0  0
    3.3735   -2.9705   -0.4168 H   0  0  0  0  0  0  0  0  0  0  0  0
    6.0045   -2.2365   -0.8360 H   0  0  0  0  0  0  0  0  0  0  0  0
    5.5353   -3.9346   -0.7544 H   0  0  0  0  0  0  0  0  0  0  0  0
    6.5785   -2.6685   -3.1196 H   0  0  0  0  0  0  0  0  0  0  0  0
    5.9816   -4.2537   -2.9499 H   0  0  0  0  0  0  0  0  0  0  0  0
    4.2956   -3.5337   -4.4326 H   0  0  0  0  0  0  0  0  0  0  0  0
    5.0108   -1.0910   -4.5403 H   0  0  0  0  0  0  0  0  0  0  0  0
    3.2949   -1.1724   -4.2924 H   0  0  0  0  0  0  0  0  0  0  0  0
    2.6815   -0.8042   -1.6196 H   0  0  0  0  0  0  0  0  0  0  0  0
    4.1195   -0.5670   -0.6484 H   0  0  0  0  0  0  0  0  0  0  0  0
    3.5333   -4.3363   -2.3523 H   0  0  0  0  0  0  0  0  0  0  0  0
  1  2  1  0
  1 10  1  0
  1 11  1  0
  1 12  1  0
  2  6  1  0
  2  3  1  0
  2 23  1  1
  3  9  1  0
  3  4  1  0
  3 13  1  1
  4  5  1  0
  4 14  1  0
  4 15  1  0
  5  6  1  0
  5 16  1  0
  5 17  1  0
  6  7  1  0
  6 18  1  6
  7  8  1  0
  7 19  1  0
  7 20  1  0
  8  9  1  0
  9 21  1  0
  9 22  1  0
M  CHG  1   2   1
M  END
>  <i_m_ct_stereo_status>  (357) 
1

>  <s_m_source_file>  (357) 
/var/tmp/pbs.5076255.sched01/tmpimq9cq4v/129n8p27m2m.sdf

>  <i_m_source_file_index>  (357) 
32

>  <i_lp_mmshare_version>  (357) 
48012

>  <i_f3d_flags>  (357) 
0

>  <s_epik_input>  (357) 
W0NIM11OKFtDQEBIXTEyKVtDQEhdKFtDSDJdW0NIMl0xKVtDSDJdT1tDSDJdMg==

>  <s_epik_cmdline>  (357) 
J2VwaWtfcHl0aG9uJywgJy1waHQnLCAnMi4wJywgJy1waCcsICc3LjAnLCAnLXRuJywgJzgnLCAnLW1hJywgJzIwMCcsICctaW1hZScsICc8aW5maWxlLm1hZT4nLCAnLW9tYWUnLCAnPG91dGZpbGUubWFlPic=

>  <r_epik_Ionization_Penalty>  (357) 
0.0929335

>  <r_epik_Ionization_Penalty_Charging>  (357) 
0.0929335

>  <r_epik_Ionization_Penalty_Neutral>  (357) 
9.20908e-16

>  <r_epik_State_Penalty>  (357) 
0.0832095

>  <r_epik_Charging_Adjusted_Penalty>  (357) 
0.176143

>  <i_epik_Tot_Q>  (357) 
1

>  <i_epik_Tot_abs_Q>  (357) 
1

>  <s_lp_Force_Field>  (357) 
OPLS3e

>  <r_lp_Energy>  (357) 
24.6275

>  <b_lp_Chiralities_Consistent>  (357) 
1

>  <s_lp_Variant>  (357) 
114:0-1

>  <s_i_glide_gridfile>  (357) 
pfpi4k_grid

>  <i_i_glide_lignum>  (357) 
32

>  <i_i_glide_rotatable_bonds>  (357) 
0

>  <r_i_docking_score>  (357) 
-4.21668

>  <r_i_glide_ligand_efficiency>  (357) 
-0.46852

>  <r_i_glide_ligand_efficiency_sa>  (357) 
-0.974562

>  <r_i_glide_ligand_efficiency_ln>  (357) 
-1.31886

>  <r_i_glide_gscore>  (357) 
-4.21668

>  <r_i_glide_lipo>  (357) 
-0.724035

>  <r_i_glide_hbond>  (357) 
0

>  <r_i_glide_metal>  (357) 
-0

>  <r_i_glide_rewards>  (357) 
-2.25

>  <r_i_glide_evdw>  (357) 
-11.5831

>  <r_i_glide_ecoul>  (357) 
-4.1891

>  <r_i_glide_erotb>  (357) 
0

>  <r_i_glide_esite>  (357) 
-0.035128

>  <r_i_glide_emodel>  (357) 
-21.2617

>  <r_i_glide_energy>  (357) 
-15.7722

>  <r_i_glide_einternal>  (357) 
0

>  <r_i_glide_intrahb_reward>  (357) 
-0

>  <i_i_glide_confnum>  (357) 
2

>  <i_i_glide_posenum>  (357) 
20

>  <r_i_glide_eff_state_penalty>  (357) 
0

>  <ligand_id>  (357) 
114

>  <original_smiles>  (357) 
CN1C2CCC1COC2

>  <smiles>  (357) 
[H]C1([H])OC([H])([H])C2([H])C([H])([H])C([H])([H])C1([H])[N+]2([H])C([H])([H])[H]

$$$$
114:0:2
     RDKit          3D

 23 24  0  0  1  0  0  0  0  0999 V2000
    2.0756   -3.4618   -2.2995 C   0  0  0  0  0  0  0  0  0  0  0  0
    2.9959   -2.6424   -1.4782 N   0  0  2  0  0  0  0  0  0  0  0  0
    3.5091   -1.4101   -2.0873 C   0  0  1  0  0  0  0  0  0  0  0  0
    4.4386   -0.8696   -0.9847 C   0  0  0  0  0  0  0  0  0  0  0  0
    4.9244   -2.1280   -0.2417 C   0  0  0  0  0  0  0  0  0  0  0  0
    4.2242   -3.2824   -0.9843 C   0  0  2  0  0  0  0  0  0  0  0  0
    5.0782   -3.7377   -2.1797 C   0  0  0  0  0  0  0  0  0  0  0  0
    5.3777   -2.6243   -3.0088 O   0  0  0  0  0  0  0  0  0  0  0  0
    4.3028   -1.7652   -3.3490 C   0  0  0  0  0  0  0  0  0  0  0  0
    2.5175   -3.8532   -3.2140 H   0  0  0  0  0  0  0  0  0  0  0  0
    1.2097   -2.8839   -2.6008 H   0  0  0  0  0  0  0  0  0  0  0  0
    1.7158   -4.3048   -1.7185 H   0  0  0  0  0  0  0  0  0  0  0  0
    2.6982   -0.7162   -2.3151 H   0  0  0  0  0  0  0  0  0  0  0  0
    5.2550   -0.2564   -1.3801 H   0  0  0  0  0  0  0  0  0  0  0  0
    3.8716   -0.2554   -0.2822 H   0  0  0  0  0  0  0  0  0  0  0  0
    6.0154   -2.2181   -0.2334 H   0  0  0  0  0  0  0  0  0  0  0  0
    4.5918   -2.0900    0.7998 H   0  0  0  0  0  0  0  0  0  0  0  0
    4.0035   -4.1162   -0.3167 H   0  0  0  0  0  0  0  0  0  0  0  0
    6.0236   -4.1435   -1.8221 H   0  0  0  0  0  0  0  0  0  0  0  0
    4.6194   -4.5253   -2.7611 H   0  0  0  0  0  0  0  0  0  0  0  0
    3.6867   -2.2048   -4.1235 H   0  0  0  0  0  0  0  0  0  0  0  0
    4.7209   -0.8629   -3.7851 H   0  0  0  0  0  0  0  0  0  0  0  0
    2.4672   -2.3124   -0.6795 H   0  0  0  0  0  0  0  0  0  0  0  0
  1  2  1  0
  1 10  1  0
  1 11  1  0
  1 12  1  0
  2  6  1  0
  2  3  1  0
  2 23  1  1
  3  9  1  0
  3  4  1  0
  3 13  1  6
  4  5  1  0
  4 14  1  0
  4 15  1  0
  5  6  1  0
  5 16  1  0
  5 17  1  0
  6  7  1  0
  6 18  1  1
  7  8  1  0
  7 19  1  0
  7 20  1  0
  8  9  1  0
  9 21  1  0
  9 22  1  0
M  CHG  1   2   1
M  END
>  <i_m_ct_stereo_status>  (358) 
1

>  <s_m_source_file>  (358) 
/var/tmp/pbs.5076255.sched01/tmpimq9cq4v/129n8p27m2m.sdf

>  <i_m_source_file_index>  (358) 
32

>  <i_lp_mmshare_version>  (358) 
48012

>  <i_f3d_flags>  (358) 
0

>  <s_epik_input>  (358) 
W0NIM11OKFtDQEBIXTEyKVtDQEhdKFtDSDJdW0NIMl0xKVtDSDJdT1tDSDJdMg==

>  <s_epik_cmdline>  (358) 
J2VwaWtfcHl0aG9uJywgJy1waHQnLCAnMi4wJywgJy1waCcsICc3LjAnLCAnLXRuJywgJzgnLCAnLW1hJywgJzIwMCcsICctaW1hZScsICc8aW5maWxlLm1hZT4nLCAnLW9tYWUnLCAnPG91dGZpbGUubWFlPic=

>  <r_epik_Ionization_Penalty>  (358) 
0.0929335

>  <r_epik_Ionization_Penalty_Charging>  (358) 
0.0929335

>  <r_epik_Ionization_Penalty_Neutral>  (358) 
9.20908e-16

>  <r_epik_State_Penalty>  (358) 
0.0832095

>  <r_epik_Charging_Adjusted_Penalty>  (358) 
0.176143

>  <i_epik_Tot_Q>  (358) 
1

>  <i_epik_Tot_abs_Q>  (358) 
1

>  <s_lp_Force_Field>  (358) 
OPLS3e

>  <r_lp_Energy>  (358) 
24.6275

>  <b_lp_Chiralities_Consistent>  (358) 
1

>  <s_lp_Variant>  (358) 
114:0-1

>  <s_i_glide_gridfile>  (358) 
pfpi4k_grid

>  <i_i_glide_lignum>  (358) 
32

>  <i_i_glide_rotatable_bonds>  (358) 
0

>  <r_i_docking_score>  (358) 
-3.93686

>  <r_i_glide_ligand_efficiency>  (358) 
-0.437429

>  <r_i_glide_ligand_efficiency_sa>  (358) 
-0.909889

>  <r_i_glide_ligand_efficiency_ln>  (358) 
-1.23134

>  <r_i_glide_gscore>  (358) 
-3.93686

>  <r_i_glide_lipo>  (358) 
-0.380013

>  <r_i_glide_hbond>  (358) 
-0.0605186

>  <r_i_glide_metal>  (358) 
-0

>  <r_i_glide_rewards>  (358) 
-2.25

>  <r_i_glide_evdw>  (358) 
-11.315

>  <r_i_glide_ecoul>  (358) 
-4.25455

>  <r_i_glide_erotb>  (358) 
0

>  <r_i_glide_esite>  (358) 
-0.0423986

>  <r_i_glide_emodel>  (358) 
-20.6725

>  <r_i_glide_energy>  (358) 
-15.5695

>  <r_i_glide_einternal>  (358) 
0

>  <r_i_glide_intrahb_reward>  (358) 
-0

>  <i_i_glide_confnum>  (358) 
2

>  <i_i_glide_posenum>  (358) 
37

>  <r_i_glide_eff_state_penalty>  (358) 
0

>  <ligand_id>  (358) 
114

>  <original_smiles>  (358) 
CN1C2CCC1COC2

>  <smiles>  (358) 
[H]C1([H])OC([H])([H])C2([H])C([H])([H])C([H])([H])C1([H])[N+]2([H])C([H])([H])[H]

$$$$
114:1:0
     RDKit          3D

 23 24  0  0  1  0  0  0  0  0999 V2000
    3.3671   -0.3913   -3.5382 C   0  0  0  0  0  0  0  0  0  0  0  0
    3.0183   -1.4613   -2.5466 N   0  0  1  0  0  0  0  0  0  0  0  0
    2.6169   -2.7499   -3.1407 C   0  0  1  0  0  0  0  0  0  0  0  0
    3.9587   -3.3984   -3.5555 C   0  0  0  0  0  0  0  0  0  0  0  0
    4.9771   -2.8312   -2.5562 C   0  0  0  0  0  0  0  0  0  0  0  0
    4.1392   -1.8719   -1.6785 C   0  0  2  0  0  0  0  0  0  0  0  0
    3.5110   -2.5956   -0.4780 C   0  0  0  0  0  0  0  0  0  0  0  0
    2.7887   -3.7381   -0.9295 O   0  0  0  0  0  0  0  0  0  0  0  0
    1.8997   -3.5280   -2.0217 C   0  0  0  0  0  0  0  0  0  0  0  0
    4.1757   -0.6929   -4.1967 H   0  0  0  0  0  0  0  0  0  0  0  0
    3.6922    0.5206   -3.0372 H   0  0  0  0  0  0  0  0  0  0  0  0
    2.5077   -0.1493   -4.1639 H   0  0  0  0  0  0  0  0  0  0  0  0
    1.9489   -2.6130   -3.9977 H   0  0  0  0  0  0  0  0  0  0  0  0
    3.9556   -4.4881   -3.5516 H   0  0  0  0  0  0  0  0  0  0  0  0
    4.2282   -3.1123   -4.5722 H   0  0  0  0  0  0  0  0  0  0  0  0
    5.4827   -3.6118   -1.9754 H   0  0  0  0  0  0  0  0  0  0  0  0
    5.7570   -2.2975   -3.1038 H   0  0  0  0  0  0  0  0  0  0  0  0
    4.7287   -1.0141   -1.3330 H   0  0  0  0  0  0  0  0  0  0  0  0
    4.2833   -2.9614    0.1935 H   0  0  0  0  0  0  0  0  0  0  0  0
    2.8615   -1.9439    0.0805 H   0  0  0  0  0  0  0  0  0  0  0  0
    0.9990   -3.0628   -1.6937 H   0  0  0  0  0  0  0  0  0  0  0  0
    1.5559   -4.4950   -2.3450 H   0  0  0  0  0  0  0  0  0  0  0  0
    2.2644   -1.1432   -1.9517 H   0  0  0  0  0  0  0  0  0  0  0  0
  1  2  1  0
  1 10  1  0
  1 11  1  0
  1 12  1  0
  2  6  1  0
  2  3  1  0
  2 23  1  1
  3  9  1  0
  3  4  1  0
  3 13  1  6
  4  5  1  0
  4 14  1  0
  4 15  1  0
  5  6  1  0
  5 16  1  0
  5 17  1  0
  6  7  1  0
  6 18  1  1
  7  8  1  0
  7 19  1  0
  7 20  1  0
  8  9  1  0
  9 21  1  0
  9 22  1  0
M  CHG  1   2   1
M  END
>  <i_m_ct_stereo_status>  (359) 
1

>  <s_m_source_file>  (359) 
/var/tmp/pbs.5076255.sched01/tmpimq9cq4v/129n8p27m2m.sdf

>  <i_m_source_file_index>  (359) 
33

>  <i_lp_mmshare_version>  (359) 
48012

>  <i_f3d_flags>  (359) 
0

>  <s_epik_input>  (359) 
W0NIM11OKFtDQEBIXTEyKVtDQEhdKFtDSDJdW0NIMl0xKVtDSDJdT1tDSDJdMg==

>  <s_epik_cmdline>  (359) 
J2VwaWtfcHl0aG9uJywgJy1waHQnLCAnMi4wJywgJy1waCcsICc3LjAnLCAnLXRuJywgJzgnLCAnLW1hJywgJzIwMCcsICctaW1hZScsICc8aW5maWxlLm1hZT4nLCAnLW9tYWUnLCAnPG91dGZpbGUubWFlPic=

>  <r_epik_Ionization_Penalty>  (359) 
0.0929335

>  <r_epik_Ionization_Penalty_Charging>  (359) 
0.0929335

>  <r_epik_Ionization_Penalty_Neutral>  (359) 
9.20908e-16

>  <r_epik_State_Penalty>  (359) 
0.0832095

>  <r_epik_Charging_Adjusted_Penalty>  (359) 
0.176143

>  <i_epik_Tot_Q>  (359) 
1

>  <i_epik_Tot_abs_Q>  (359) 
1

>  <s_lp_Force_Field>  (359) 
OPLS3e

>  <r_lp_Energy>  (359) 
23.0329

>  <b_lp_Chiralities_Consistent>  (359) 
1

>  <s_lp_Variant>  (359) 
114:0-2

>  <s_i_glide_gridfile>  (359) 
pfpi4k_grid

>  <i_i_glide_lignum>  (359) 
33

>  <i_i_glide_rotatable_bonds>  (359) 
0

>  <r_i_docking_score>  (359) 
-4.61027

>  <r_i_glide_ligand_efficiency>  (359) 
-0.512253

>  <r_i_glide_ligand_efficiency_sa>  (359) 
-1.06553

>  <r_i_glide_ligand_efficiency_ln>  (359) 
-1.44196

>  <r_i_glide_gscore>  (359) 
-4.61027

>  <r_i_glide_lipo>  (359) 
-0.747659

>  <r_i_glide_hbond>  (359) 
-0.2

>  <r_i_glide_metal>  (359) 
-0

>  <r_i_glide_rewards>  (359) 
-2.25

>  <r_i_glide_evdw>  (359) 
-10.4576

>  <r_i_glide_ecoul>  (359) 
-5.43963

>  <r_i_glide_erotb>  (359) 
0

>  <r_i_glide_esite>  (359) 
-0.073792

>  <r_i_glide_emodel>  (359) 
-21.9902

>  <r_i_glide_energy>  (359) 
-15.8972

>  <r_i_glide_einternal>  (359) 
0

>  <r_i_glide_intrahb_reward>  (359) 
-0

>  <i_i_glide_confnum>  (359) 
1

>  <i_i_glide_posenum>  (359) 
1

>  <r_i_glide_eff_state_penalty>  (359) 
0

>  <ligand_id>  (359) 
114

>  <original_smiles>  (359) 
CN1C2CCC1COC2

>  <smiles>  (359) 
[H]C1([H])OC([H])([H])C2([H])C([H])([H])C([H])([H])C1([H])[N+]2([H])C([H])([H])[H]

$$$$
114:1:1
     RDKit          3D

 23 24  0  0  1  0  0  0  0  0999 V2000
    1.7537   -3.4332   -1.8590 C   0  0  0  0  0  0  0  0  0  0  0  0
    2.6200   -2.2573   -2.0678 N   0  0  1  0  0  0  0  0  0  0  0  0
    3.9868   -2.3916   -1.5434 C   0  0  1  0  0  0  0  0  0  0  0  0
    4.7389   -3.1892   -2.6268 C   0  0  0  0  0  0  0  0  0  0  0  0
    3.9760   -2.8693   -3.9221 C   0  0  0  0  0  0  0  0  0  0  0  0
    2.8546   -1.9206   -3.4767 C   0  0  2  0  0  0  0  0  0  0  0  0
    3.3432   -0.4675   -3.4736 C   0  0  0  0  0  0  0  0  0  0  0  0
    4.5471   -0.3646   -2.7219 O   0  0  0  0  0  0  0  0  0  0  0  0
    4.5279   -0.9558   -1.4339 C   0  0  0  0  0  0  0  0  0  0  0  0
    2.1537   -4.2579   -2.3830 H   0  0  0  0  0  0  0  0  0  0  0  0
    0.7501   -3.2739   -2.2729 H   0  0  0  0  0  0  0  0  0  0  0  0
    1.6616   -3.6776   -0.7915 H   0  0  0  0  0  0  0  0  0  0  0  0
    4.0142   -2.8612   -0.5657 H   0  0  0  0  0  0  0  0  0  0  0  0
    5.8046   -2.9500   -2.6902 H   0  0  0  0  0  0  0  0  0  0  0  0
    4.6483   -4.2526   -2.4085 H   0  0  0  0  0  0  0  0  0  0  0  0
    4.6127   -2.4313   -4.6905 H   0  0  0  0  0  0  0  0  0  0  0  0
    3.5216   -3.7765   -4.3198 H   0  0  0  0  0  0  0  0  0  0  0  0
    1.9568   -1.9967   -4.0877 H   0  0  0  0  0  0  0  0  0  0  0  0
    3.5716   -0.1060   -4.4748 H   0  0  0  0  0  0  0  0  0  0  0  0
    2.5622    0.1574   -3.0559 H   0  0  0  0  0  0  0  0  0  0  0  0
    3.9535   -0.3570   -0.7234 H   0  0  0  0  0  0  0  0  0  0  0  0
    5.5580   -0.9584   -1.0817 H   0  0  0  0  0  0  0  0  0  0  0  0
    2.1175   -1.5038   -1.6094 H   0  0  0  0  0  0  0  0  0  0  0  0
  1  2  1  0
  1 10  1  0
  1 11  1  0
  1 12  1  0
  2  6  1  0
  2  3  1  0
  2 23  1  1
  3  9  1  0
  3  4  1  0
  3 13  1  1
  4  5  1  0
  4 14  1  0
  4 15  1  0
  5  6  1  0
  5 16  1  0
  5 17  1  0
  6  7  1  0
  6 18  1  6
  7  8  1  0
  7 19  1  0
  7 20  1  0
  8  9  1  0
  9 21  1  0
  9 22  1  0
M  CHG  1   2   1
M  END
>  <i_m_ct_stereo_status>  (360) 
1

>  <s_m_source_file>  (360) 
/var/tmp/pbs.5076255.sched01/tmpimq9cq4v/129n8p27m2m.sdf

>  <i_m_source_file_index>  (360) 
33

>  <i_lp_mmshare_version>  (360) 
48012

>  <i_f3d_flags>  (360) 
0

>  <s_epik_input>  (360) 
W0NIM11OKFtDQEBIXTEyKVtDQEhdKFtDSDJdW0NIMl0xKVtDSDJdT1tDSDJdMg==

>  <s_epik_cmdline>  (360) 
J2VwaWtfcHl0aG9uJywgJy1waHQnLCAnMi4wJywgJy1waCcsICc3LjAnLCAnLXRuJywgJzgnLCAnLW1hJywgJzIwMCcsICctaW1hZScsICc8aW5maWxlLm1hZT4nLCAnLW9tYWUnLCAnPG91dGZpbGUubWFlPic=

>  <r_epik_Ionization_Penalty>  (360) 
0.0929335

>  <r_epik_Ionization_Penalty_Charging>  (360) 
0.0929335

>  <r_epik_Ionization_Penalty_Neutral>  (360) 
9.20908e-16

>  <r_epik_State_Penalty>  (360) 
0.0832095

>  <r_epik_Charging_Adjusted_Penalty>  (360) 
0.176143

>  <i_epik_Tot_Q>  (360) 
1

>  <i_epik_Tot_abs_Q>  (360) 
1

>  <s_lp_Force_Field>  (360) 
OPLS3e

>  <r_lp_Energy>  (360) 
23.0329

>  <b_lp_Chiralities_Consistent>  (360) 
1

>  <s_lp_Variant>  (360) 
114:0-2

>  <s_i_glide_gridfile>  (360) 
pfpi4k_grid

>  <i_i_glide_lignum>  (360) 
33

>  <i_i_glide_rotatable_bonds>  (360) 
0

>  <r_i_docking_score>  (360) 
-4.45914

>  <r_i_glide_ligand_efficiency>  (360) 
-0.49546

>  <r_i_glide_ligand_efficiency_sa>  (360) 
-1.0306

>  <r_i_glide_ligand_efficiency_ln>  (360) 
-1.39469

>  <r_i_glide_gscore>  (360) 
-4.45914

>  <r_i_glide_lipo>  (360) 
-0.539955

>  <r_i_glide_hbond>  (360) 
-0.190405

>  <r_i_glide_metal>  (360) 
-0

>  <r_i_glide_rewards>  (360) 
-2.25

>  <r_i_glide_evdw>  (360) 
-11.0832

>  <r_i_glide_ecoul>  (360) 
-5.66404

>  <r_i_glide_erotb>  (360) 
0

>  <r_i_glide_esite>  (360) 
-0.0750119

>  <r_i_glide_emodel>  (360) 
-22.6532

>  <r_i_glide_energy>  (360) 
-16.7472

>  <r_i_glide_einternal>  (360) 
0

>  <r_i_glide_intrahb_reward>  (360) 
-0

>  <i_i_glide_confnum>  (360) 
2

>  <i_i_glide_posenum>  (360) 
5

>  <r_i_glide_eff_state_penalty>  (360) 
0

>  <ligand_id>  (360) 
114

>  <original_smiles>  (360) 
CN1C2CCC1COC2

>  <smiles>  (360) 
[H]C1([H])OC([H])([H])C2([H])C([H])([H])C([H])([H])C1([H])[N+]2([H])C([H])([H])[H]

$$$$
114:1:2
     RDKit          3D

 23 24  0  0  1  0  0  0  0  0999 V2000
    1.8636   -3.1535   -2.5657 C   0  0  0  0  0  0  0  0  0  0  0  0
    3.2713   -2.9506   -2.1717 N   0  0  1  0  0  0  0  0  0  0  0  0
    4.2287   -2.9829   -3.2910 C   0  0  1  0  0  0  0  0  0  0  0  0
    4.0962   -1.5795   -3.9186 C   0  0  0  0  0  0  0  0  0  0  0  0
    3.6670   -0.6797   -2.7395 C   0  0  0  0  0  0  0  0  0  0  0  0
    3.5733   -1.6539   -1.5479 C   0  0  2  0  0  0  0  0  0  0  0  0
    4.9295   -1.8068   -0.8335 C   0  0  0  0  0  0  0  0  0  0  0  0
    5.9467   -2.1371   -1.7781 O   0  0  0  0  0  0  0  0  0  0  0  0
    5.6188   -3.2132   -2.6632 C   0  0  0  0  0  0  0  0  0  0  0  0
    1.5161   -2.4097   -3.2849 H   0  0  0  0  0  0  0  0  0  0  0  0
    1.1967   -3.1276   -1.7007 H   0  0  0  0  0  0  0  0  0  0  0  0
    1.8156   -4.1345   -3.0371 H   0  0  0  0  0  0  0  0  0  0  0  0
    3.9953   -3.7809   -4.0079 H   0  0  0  0  0  0  0  0  0  0  0  0
    5.0144   -1.2209   -4.3867 H   0  0  0  0  0  0  0  0  0  0  0  0
    3.3251   -1.5698   -4.6931 H   0  0  0  0  0  0  0  0  0  0  0  0
    4.3574    0.1439   -2.5634 H   0  0  0  0  0  0  0  0  0  0  0  0
    2.6847   -0.2468   -2.9547 H   0  0  0  0  0  0  0  0  0  0  0  0
    2.8191   -1.3552   -0.8208 H   0  0  0  0  0  0  0  0  0  0  0  0
    5.2048   -0.8682   -0.3581 H   0  0  0  0  0  0  0  0  0  0  0  0
    4.8537   -2.5672   -0.0535 H   0  0  0  0  0  0  0  0  0  0  0  0
    5.6415   -4.1667   -2.1372 H   0  0  0  0  0  0  0  0  0  0  0  0
    6.3825   -3.2389   -3.4357 H   0  0  0  0  0  0  0  0  0  0  0  0
    3.5186   -3.6916   -1.5297 H   0  0  0  0  0  0  0  0  0  0  0  0
  1  2  1  0
  1 10  1  0
  1 11  1  0
  1 12  1  0
  2  6  1  0
  2  3  1  0
  2 23  1  1
  3  9  1  0
  3  4  1  0
  3 13  1  6
  4  5  1  0
  4 14  1  0
  4 15  1  0
  5  6  1  0
  5 16  1  0
  5 17  1  0
  6  7  1  0
  6 18  1  1
  7  8  1  0
  7 19  1  0
  7 20  1  0
  8  9  1  0
  9 21  1  0
  9 22  1  0
M  CHG  1   2   1
M  END
>  <i_m_ct_stereo_status>  (361) 
1

>  <s_m_source_file>  (361) 
/var/tmp/pbs.5076255.sched01/tmpimq9cq4v/129n8p27m2m.sdf

>  <i_m_source_file_index>  (361) 
33

>  <i_lp_mmshare_version>  (361) 
48012

>  <i_f3d_flags>  (361) 
0

>  <s_epik_input>  (361) 
W0NIM11OKFtDQEBIXTEyKVtDQEhdKFtDSDJdW0NIMl0xKVtDSDJdT1tDSDJdMg==

>  <s_epik_cmdline>  (361) 
J2VwaWtfcHl0aG9uJywgJy1waHQnLCAnMi4wJywgJy1waCcsICc3LjAnLCAnLXRuJywgJzgnLCAnLW1hJywgJzIwMCcsICctaW1hZScsICc8aW5maWxlLm1hZT4nLCAnLW9tYWUnLCAnPG91dGZpbGUubWFlPic=

>  <r_epik_Ionization_Penalty>  (361) 
0.0929335

>  <r_epik_Ionization_Penalty_Charging>  (361) 
0.0929335

>  <r_epik_Ionization_Penalty_Neutral>  (361) 
9.20908e-16

>  <r_epik_State_Penalty>  (361) 
0.0832095

>  <r_epik_Charging_Adjusted_Penalty>  (361) 
0.176143

>  <i_epik_Tot_Q>  (361) 
1

>  <i_epik_Tot_abs_Q>  (361) 
1

>  <s_lp_Force_Field>  (361) 
OPLS3e

>  <r_lp_Energy>  (361) 
23.0329

>  <b_lp_Chiralities_Consistent>  (361) 
1

>  <s_lp_Variant>  (361) 
114:0-2

>  <s_i_glide_gridfile>  (361) 
pfpi4k_grid

>  <i_i_glide_lignum>  (361) 
33

>  <i_i_glide_rotatable_bonds>  (361) 
0

>  <r_i_docking_score>  (361) 
-4.16995

>  <r_i_glide_ligand_efficiency>  (361) 
-0.463328

>  <r_i_glide_ligand_efficiency_sa>  (361) 
-0.963761

>  <r_i_glide_ligand_efficiency_ln>  (361) 
-1.30424

>  <r_i_glide_gscore>  (361) 
-4.16995

>  <r_i_glide_lipo>  (361) 
-0.579095

>  <r_i_glide_hbond>  (361) 
-0.0240352

>  <r_i_glide_metal>  (361) 
-0

>  <r_i_glide_rewards>  (361) 
-2.25

>  <r_i_glide_evdw>  (361) 
-12.3153

>  <r_i_glide_ecoul>  (361) 
-4.51768

>  <r_i_glide_erotb>  (361) 
0

>  <r_i_glide_esite>  (361) 
-0.0234053

>  <r_i_glide_emodel>  (361) 
-22.3656

>  <r_i_glide_energy>  (361) 
-16.833

>  <r_i_glide_einternal>  (361) 
0

>  <r_i_glide_intrahb_reward>  (361) 
-0

>  <i_i_glide_confnum>  (361) 
1

>  <i_i_glide_posenum>  (361) 
33

>  <r_i_glide_eff_state_penalty>  (361) 
0

>  <ligand_id>  (361) 
114

>  <original_smiles>  (361) 
CN1C2CCC1COC2

>  <smiles>  (361) 
[H]C1([H])OC([H])([H])C2([H])C([H])([H])C([H])([H])C1([H])[N+]2([H])C([H])([H])[H]

$$$$
114:2:0
     RDKit          3D

 22 23  0  0  1  0  0  0  0  0999 V2000
    3.6463   -1.3551   -0.7044 C   0  0  0  0  0  0  0  0  0  0  0  0
    3.6580   -2.3390   -1.7843 N   0  0  0  0  0  0  0  0  0  0  0  0
    2.6129   -2.1571   -2.7824 C   0  0  1  0  0  0  0  0  0  0  0  0
    3.0548   -0.9782   -3.6633 C   0  0  0  0  0  0  0  0  0  0  0  0
    4.5855   -1.0757   -3.5702 C   0  0  0  0  0  0  0  0  0  0  0  0
    4.8300   -2.2766   -2.6279 C   0  0  2  0  0  0  0  0  0  0  0  0
    4.8911   -3.6007   -3.4142 C   0  0  0  0  0  0  0  0  0  0  0  0
    3.7633   -3.6974   -4.2838 O   0  0  0  0  0  0  0  0  0  0  0  0
    2.5166   -3.4369   -3.6286 C   0  0  0  0  0  0  0  0  0  0  0  0
    2.7064   -1.4079   -0.1468 H   0  0  0  0  0  0  0  0  0  0  0  0
    3.7957   -0.3432   -1.0787 H   0  0  0  0  0  0  0  0  0  0  0  0
    4.4527   -1.5504    0.0050 H   0  0  0  0  0  0  0  0  0  0  0  0
    1.6456   -1.9905   -2.3292 H   0  0  0  0  0  0  0  0  0  0  0  0
    2.6995   -1.0607   -4.6952 H   0  0  0  0  0  0  0  0  0  0  0  0
    2.6957   -0.0221   -3.2659 H   0  0  0  0  0  0  0  0  0  0  0  0
    5.0143   -1.1809   -4.5627 H   0  0  0  0  0  0  0  0  0  0  0  0
    4.9651   -0.1680   -3.1105 H   0  0  0  0  0  0  0  0  0  0  0  0
    5.7326   -2.1564   -2.0259 H   0  0  0  0  0  0  0  0  0  0  0  0
    5.7808   -3.6372   -4.0318 H   0  0  0  0  0  0  0  0  0  0  0  0
    4.9235   -4.4538   -2.7319 H   0  0  0  0  0  0  0  0  0  0  0  0
    2.2146   -4.2550   -2.9774 H   0  0  0  0  0  0  0  0  0  0  0  0
    1.7636   -3.3270   -4.4048 H   0  0  0  0  0  0  0  0  0  0  0  0
  1  2  1  0
  1 10  1  0
  1 11  1  0
  1 12  1  0
  2  6  1  0
  2  3  1  0
  3  9  1  0
  3  4  1  0
  3 13  1  1
  4  5  1  0
  4 14  1  0
  4 15  1  0
  5  6  1  0
  5 16  1  0
  5 17  1  0
  6  7  1  0
  6 18  1  1
  7  8  1  0
  7 19  1  0
  7 20  1  0
  8  9  1  0
  9 21  1  0
  9 22  1  0
M  END
>  <i_m_ct_stereo_status>  (362) 
1

>  <s_m_source_file>  (362) 
/var/tmp/pbs.5076255.sched01/tmpimq9cq4v/129n8p27m2m.sdf

>  <i_m_source_file_index>  (362) 
34

>  <i_lp_mmshare_version>  (362) 
48012

>  <i_f3d_flags>  (362) 
0

>  <s_epik_input>  (362) 
W0NIM11OKFtDQEBIXTEyKVtDQEhdKFtDSDJdW0NIMl0xKVtDSDJdT1tDSDJdMg==

>  <s_epik_cmdline>  (362) 
J2VwaWtfcHl0aG9uJywgJy1waHQnLCAnMi4wJywgJy1waCcsICc3LjAnLCAnLXRuJywgJzgnLCAnLW1hJywgJzIwMCcsICctaW1hZScsICc8aW5maWxlLm1hZT4nLCAnLW9tYWUnLCAnPG91dGZpbGUubWFlPic=

>  <r_epik_Ionization_Penalty>  (362) 
1.14341

>  <r_epik_Ionization_Penalty_Charging>  (362) 
0

>  <r_epik_Ionization_Penalty_Neutral>  (362) 
1.14341

>  <r_epik_State_Penalty>  (362) 
1.20415

>  <r_epik_Charging_Adjusted_Penalty>  (362) 
1.20415

>  <i_epik_Tot_Q>  (362) 
0

>  <i_epik_Tot_abs_Q>  (362) 
0

>  <s_lp_Force_Field>  (362) 
OPLS3e

>  <r_lp_Energy>  (362) 
21.2287

>  <b_lp_Chiralities_Consistent>  (362) 
1

>  <s_lp_Variant>  (362) 
114:0-3

>  <s_i_glide_gridfile>  (362) 
pfpi4k_grid

>  <i_i_glide_lignum>  (362) 
34

>  <i_i_glide_rotatable_bonds>  (362) 
0

>  <r_i_docking_score>  (362) 
-3.96883

>  <r_i_glide_ligand_efficiency>  (362) 
-0.440981

>  <r_i_glide_ligand_efficiency_sa>  (362) 
-0.917277

>  <r_i_glide_ligand_efficiency_ln>  (362) 
-1.24134

>  <r_i_glide_gscore>  (362) 
-3.96883

>  <r_i_glide_lipo>  (362) 
-0.829207

>  <r_i_glide_hbond>  (362) 
-0.0603743

>  <r_i_glide_metal>  (362) 
-0

>  <r_i_glide_rewards>  (362) 
-2.25

>  <r_i_glide_evdw>  (362) 
-10.3182

>  <r_i_glide_ecoul>  (362) 
-2.0889

>  <r_i_glide_erotb>  (362) 
0

>  <r_i_glide_esite>  (362) 
0

>  <r_i_glide_emodel>  (362) 
-15.9787

>  <r_i_glide_energy>  (362) 
-12.4071

>  <r_i_glide_einternal>  (362) 
0

>  <r_i_glide_intrahb_reward>  (362) 
-0

>  <i_i_glide_confnum>  (362) 
3

>  <i_i_glide_posenum>  (362) 
39

>  <r_i_glide_eff_state_penalty>  (362) 
0

>  <ligand_id>  (362) 
114

>  <original_smiles>  (362) 
CN1C2CCC1COC2

>  <smiles>  (362) 
[H]C([H])([H])N1C2([H])C([H])([H])OC([H])([H])C1([H])C([H])([H])C2([H])[H]

$$$$
114:2:1
     RDKit          3D

 22 23  0  0  1  0  0  0  0  0999 V2000
    2.9345   -2.5444   -0.2066 C   0  0  0  0  0  0  0  0  0  0  0  0
    3.3016   -3.0516   -1.5258 N   0  0  0  0  0  0  0  0  0  0  0  0
    2.5658   -2.4421   -2.6254 C   0  0  1  0  0  0  0  0  0  0  0  0
    3.1982   -1.0587   -2.8601 C   0  0  0  0  0  0  0  0  0  0  0  0
    4.6310   -1.2622   -2.3407 C   0  0  0  0  0  0  0  0  0  0  0  0
    4.6532   -2.7470   -1.9218 C   0  0  2  0  0  0  0  0  0  0  0  0
    5.0094   -3.6472   -3.1207 C   0  0  0  0  0  0  0  0  0  0  0  0
    4.1345   -3.3880   -4.2129 O   0  0  0  0  0  0  0  0  0  0  0  0
    2.7646   -3.3103   -3.8666 C   0  0  0  0  0  0  0  0  0  0  0  0
    1.8921   -2.7835    0.0065 H   0  0  0  0  0  0  0  0  0  0  0  0
    3.0488   -1.4662   -0.1393 H   0  0  0  0  0  0  0  0  0  0  0  0
    3.5442   -3.0164    0.5641 H   0  0  0  0  0  0  0  0  0  0  0  0
    1.5006   -2.3764   -2.3961 H   0  0  0  0  0  0  0  0  0  0  0  0
    3.1608   -0.7374   -3.9062 H   0  0  0  0  0  0  0  0  0  0  0  0
    2.6644   -0.3014   -2.3005 H   0  0  0  0  0  0  0  0  0  0  0  0
    5.3686   -1.0460   -3.1137 H   0  0  0  0  0  0  0  0  0  0  0  0
    4.8333   -0.6061   -1.4914 H   0  0  0  0  0  0  0  0  0  0  0  0
    5.3521   -2.9280   -1.1009 H   0  0  0  0  0  0  0  0  0  0  0  0
    6.0244   -3.4479   -3.4698 H   0  0  0  0  0  0  0  0  0  0  0  0
    4.9546   -4.6907   -2.8360 H   0  0  0  0  0  0  0  0  0  0  0  0
    2.3198   -4.2588   -3.6987 H   0  0  0  0  0  0  0  0  0  0  0  0
    2.2235   -2.8819   -4.7138 H   0  0  0  0  0  0  0  0  0  0  0  0
  1  2  1  0
  1 10  1  0
  1 11  1  0
  1 12  1  0
  2  6  1  0
  2  3  1  0
  3  9  1  0
  3  4  1  0
  3 13  1  1
  4  5  1  0
  4 14  1  0
  4 15  1  0
  5  6  1  0
  5 16  1  0
  5 17  1  0
  6  7  1  0
  6 18  1  1
  7  8  1  0
  7 19  1  0
  7 20  1  0
  8  9  1  0
  9 21  1  0
  9 22  1  0
M  END
>  <i_m_ct_stereo_status>  (363) 
1

>  <s_m_source_file>  (363) 
/var/tmp/pbs.5076255.sched01/tmpimq9cq4v/129n8p27m2m.sdf

>  <i_m_source_file_index>  (363) 
34

>  <i_lp_mmshare_version>  (363) 
48012

>  <i_f3d_flags>  (363) 
0

>  <s_epik_input>  (363) 
W0NIM11OKFtDQEBIXTEyKVtDQEhdKFtDSDJdW0NIMl0xKVtDSDJdT1tDSDJdMg==

>  <s_epik_cmdline>  (363) 
J2VwaWtfcHl0aG9uJywgJy1waHQnLCAnMi4wJywgJy1waCcsICc3LjAnLCAnLXRuJywgJzgnLCAnLW1hJywgJzIwMCcsICctaW1hZScsICc8aW5maWxlLm1hZT4nLCAnLW9tYWUnLCAnPG91dGZpbGUubWFlPic=

>  <r_epik_Ionization_Penalty>  (363) 
1.14341

>  <r_epik_Ionization_Penalty_Charging>  (363) 
0

>  <r_epik_Ionization_Penalty_Neutral>  (363) 
1.14341

>  <r_epik_State_Penalty>  (363) 
1.20415

>  <r_epik_Charging_Adjusted_Penalty>  (363) 
1.20415

>  <i_epik_Tot_Q>  (363) 
0

>  <i_epik_Tot_abs_Q>  (363) 
0

>  <s_lp_Force_Field>  (363) 
OPLS3e

>  <r_lp_Energy>  (363) 
21.2287

>  <b_lp_Chiralities_Consistent>  (363) 
1

>  <s_lp_Variant>  (363) 
114:0-3

>  <s_i_glide_gridfile>  (363) 
pfpi4k_grid

>  <i_i_glide_lignum>  (363) 
34

>  <i_i_glide_rotatable_bonds>  (363) 
0

>  <r_i_docking_score>  (363) 
-3.55489

>  <r_i_glide_ligand_efficiency>  (363) 
-0.394988

>  <r_i_glide_ligand_efficiency_sa>  (363) 
-0.821607

>  <r_i_glide_ligand_efficiency_ln>  (363) 
-1.11187

>  <r_i_glide_gscore>  (363) 
-3.55489

>  <r_i_glide_lipo>  (363) 
-0.257252

>  <r_i_glide_hbond>  (363) 
-0.134594

>  <r_i_glide_metal>  (363) 
-0

>  <r_i_glide_rewards>  (363) 
-2.25

>  <r_i_glide_evdw>  (363) 
-11.7939

>  <r_i_glide_ecoul>  (363) 
-2.15565

>  <r_i_glide_erotb>  (363) 
0

>  <r_i_glide_esite>  (363) 
0

>  <r_i_glide_emodel>  (363) 
-17.1592

>  <r_i_glide_energy>  (363) 
-13.9496

>  <r_i_glide_einternal>  (363) 
0

>  <r_i_glide_intrahb_reward>  (363) 
-0

>  <i_i_glide_confnum>  (363) 
1

>  <i_i_glide_posenum>  (363) 
9

>  <r_i_glide_eff_state_penalty>  (363) 
0

>  <ligand_id>  (363) 
114

>  <original_smiles>  (363) 
CN1C2CCC1COC2

>  <smiles>  (363) 
[H]C([H])([H])N1C2([H])C([H])([H])OC([H])([H])C1([H])C([H])([H])C2([H])[H]

$$$$
114:2:2
     RDKit          3D

 22 23  0  0  1  0  0  0  0  0999 V2000
    3.2662   -3.1405    0.0861 C   0  0  0  0  0  0  0  0  0  0  0  0
    3.6411   -3.4425   -1.2879 N   0  0  0  0  0  0  0  0  0  0  0  0
    5.0527   -3.6003   -1.5552 C   0  0  1  0  0  0  0  0  0  0  0  0
    5.1036   -3.8107   -3.0801 C   0  0  0  0  0  0  0  0  0  0  0  0
    3.8716   -3.0220   -3.5827 C   0  0  0  0  0  0  0  0  0  0  0  0
    3.2733   -2.4514   -2.2789 C   0  0  2  0  0  0  0  0  0  0  0  0
    3.9249   -1.0788   -1.9705 C   0  0  0  0  0  0  0  0  0  0  0  0
    5.3435   -1.2026   -1.9172 O   0  0  0  0  0  0  0  0  0  0  0  0
    5.8485   -2.3208   -1.1937 C   0  0  0  0  0  0  0  0  0  0  0  0
    3.6992   -2.2151    0.4580 H   0  0  0  0  0  0  0  0  0  0  0  0
    3.5906   -3.9415    0.7493 H   0  0  0  0  0  0  0  0  0  0  0  0
    2.1865   -3.0462    0.1729 H   0  0  0  0  0  0  0  0  0  0  0  0
    5.4591   -4.4551   -1.0281 H   0  0  0  0  0  0  0  0  0  0  0  0
    6.0365   -3.4684   -3.5240 H   0  0  0  0  0  0  0  0  0  0  0  0
    4.9934   -4.8718   -3.3155 H   0  0  0  0  0  0  0  0  0  0  0  0
    4.1301   -2.2519   -4.3084 H   0  0  0  0  0  0  0  0  0  0  0  0
    3.1578   -3.7032   -4.0538 H   0  0  0  0  0  0  0  0  0  0  0  0
    2.1981   -2.3482   -2.3510 H   0  0  0  0  0  0  0  0  0  0  0  0
    3.6759   -0.3572   -2.7430 H   0  0  0  0  0  0  0  0  0  0  0  0
    3.5489   -0.6652   -1.0358 H   0  0  0  0  0  0  0  0  0  0  0  0
    5.8130   -2.1197   -0.1261 H   0  0  0  0  0  0  0  0  0  0  0  0
    6.8939   -2.4372   -1.4522 H   0  0  0  0  0  0  0  0  0  0  0  0
  1  2  1  0
  1 10  1  0
  1 11  1  0
  1 12  1  0
  2  6  1  0
  2  3  1  0
  3  9  1  0
  3  4  1  0
  3 13  1  1
  4  5  1  0
  4 14  1  0
  4 15  1  0
  5  6  1  0
  5 16  1  0
  5 17  1  0
  6  7  1  0
  6 18  1  6
  7  8  1  0
  7 19  1  0
  7 20  1  0
  8  9  1  0
  9 21  1  0
  9 22  1  0
M  END
>  <i_m_ct_stereo_status>  (364) 
1

>  <s_m_source_file>  (364) 
/var/tmp/pbs.5076255.sched01/tmpimq9cq4v/129n8p27m2m.sdf

>  <i_m_source_file_index>  (364) 
34

>  <i_lp_mmshare_version>  (364) 
48012

>  <i_f3d_flags>  (364) 
0

>  <s_epik_input>  (364) 
W0NIM11OKFtDQEBIXTEyKVtDQEhdKFtDSDJdW0NIMl0xKVtDSDJdT1tDSDJdMg==

>  <s_epik_cmdline>  (364) 
J2VwaWtfcHl0aG9uJywgJy1waHQnLCAnMi4wJywgJy1waCcsICc3LjAnLCAnLXRuJywgJzgnLCAnLW1hJywgJzIwMCcsICctaW1hZScsICc8aW5maWxlLm1hZT4nLCAnLW9tYWUnLCAnPG91dGZpbGUubWFlPic=

>  <r_epik_Ionization_Penalty>  (364) 
1.14341

>  <r_epik_Ionization_Penalty_Charging>  (364) 
0

>  <r_epik_Ionization_Penalty_Neutral>  (364) 
1.14341

>  <r_epik_State_Penalty>  (364) 
1.20415

>  <r_epik_Charging_Adjusted_Penalty>  (364) 
1.20415

>  <i_epik_Tot_Q>  (364) 
0

>  <i_epik_Tot_abs_Q>  (364) 
0

>  <s_lp_Force_Field>  (364) 
OPLS3e

>  <r_lp_Energy>  (364) 
21.2287

>  <b_lp_Chiralities_Consistent>  (364) 
1

>  <s_lp_Variant>  (364) 
114:0-3

>  <s_i_glide_gridfile>  (364) 
pfpi4k_grid

>  <i_i_glide_lignum>  (364) 
34

>  <i_i_glide_rotatable_bonds>  (364) 
0

>  <r_i_docking_score>  (364) 
-3.18198

>  <r_i_glide_ligand_efficiency>  (364) 
-0.353553

>  <r_i_glide_ligand_efficiency_sa>  (364) 
-0.735419

>  <r_i_glide_ligand_efficiency_ln>  (364) 
-0.99523

>  <r_i_glide_gscore>  (364) 
-3.18198

>  <r_i_glide_lipo>  (364) 
-0.309954

>  <r_i_glide_hbond>  (364) 
0

>  <r_i_glide_metal>  (364) 
-0

>  <r_i_glide_rewards>  (364) 
-2.25

>  <r_i_glide_evdw>  (364) 
-13.4433

>  <r_i_glide_ecoul>  (364) 
0.33428

>  <r_i_glide_erotb>  (364) 
0

>  <r_i_glide_esite>  (364) 
0

>  <r_i_glide_emodel>  (364) 
-16.013

>  <r_i_glide_energy>  (364) 
-13.109

>  <r_i_glide_einternal>  (364) 
0

>  <r_i_glide_intrahb_reward>  (364) 
-0

>  <i_i_glide_confnum>  (364) 
4

>  <i_i_glide_posenum>  (364) 
18

>  <r_i_glide_eff_state_penalty>  (364) 
0

>  <ligand_id>  (364) 
114

>  <original_smiles>  (364) 
CN1C2CCC1COC2

>  <smiles>  (364) 
[H]C([H])([H])N1C2([H])C([H])([H])OC([H])([H])C1([H])C([H])([H])C2([H])[H]

$$$$
115:0:0
     RDKit          3D

 37 40  0  0  1  0  0  0  0  0999 V2000
   -2.0778   -8.5241    2.5228 C   0  0  0  0  0  0  0  0  0  0  0  0
   -0.6151   -8.2291    2.2821 C   0  0  0  0  0  0  0  0  0  0  0  0
   -0.2471   -7.1920    1.6099 N   0  0  0  0  0  0  0  0  0  0  0  0
    1.1093   -6.9438    1.3923 C   0  0  0  0  0  0  0  0  0  0  0  0
    1.5297   -5.8845    0.8918 O   0  0  0  0  0  0  0  0  0  0  0  0
    2.0021   -7.8880    1.7079 N   0  0  0  0  0  0  0  0  0  0  0  0
    1.7598   -9.1881    2.3315 C   0  0  1  0  0  0  0  0  0  0  0  0
    2.8919   -9.5355    3.2739 C   0  0  0  0  0  0  0  0  0  0  0  0
    3.3114  -10.8039    3.6192 C   0  0  0  0  0  0  0  0  0  0  0  0
    4.2604  -10.8227    4.6538 N   0  0  0  0  0  0  0  0  0  0  0  0
    4.5769   -9.5979    5.0814 C   0  0  0  0  0  0  0  0  0  0  0  0
    3.7315   -8.3135    4.2238 S   0  0  0  0  0  0  0  0  0  0  0  0
    0.3419   -9.2083    2.9664 C   0  0  1  0  0  0  0  0  0  0  0  0
    0.3674   -8.8411    4.4240 C   0  0  0  0  0  0  0  0  0  0  0  0
    0.4031   -7.5741    4.8503 N   0  0  0  0  0  0  0  0  0  0  0  0
    0.6038   -7.4712    6.2189 C   0  0  0  0  0  0  0  0  0  0  0  0
    0.7016   -6.2040    6.8323 N   0  0  0  0  0  0  0  0  0  0  0  0
    1.0703   -5.0377    6.0303 C   0  0  0  0  0  0  0  0  0  0  0  0
    0.9501   -3.9645    7.0632 C   0  0  0  0  0  0  0  0  0  0  0  0
    0.5363   -4.4531    8.2291 C   0  0  0  0  0  0  0  0  0  0  0  0
    0.3420   -5.8761    8.0965 C   0  0  0  0  0  0  0  0  0  0  0  0
   -0.0874   -6.6525    8.9504 O   0  0  0  0  0  0  0  0  0  0  0  0
    0.7044   -8.6863    6.8635 C   0  0  0  0  0  0  0  0  0  0  0  0
    0.6045  -10.0006    5.7287 S   0  0  0  0  0  0  0  0  0  0  0  0
   -2.3561   -9.4784    2.0751 H   0  0  0  0  0  0  0  0  0  0  0  0
   -2.6927   -7.7364    2.0918 H   0  0  0  0  0  0  0  0  0  0  0  0
   -2.2949   -8.5579    3.5902 H   0  0  0  0  0  0  0  0  0  0  0  0
    2.9651   -7.6682    1.5331 H   0  0  0  0  0  0  0  0  0  0  0  0
    1.7726   -9.8775    1.4925 H   0  0  0  0  0  0  0  0  0  0  0  0
    2.9257  -11.7521    3.2468 H   0  0  0  0  0  0  0  0  0  0  0  0
    5.3056   -9.4534    5.8777 H   0  0  0  0  0  0  0  0  0  0  0  0
   -0.0548  -10.2223    2.8899 H   0  0  0  0  0  0  0  0  0  0  0  0
    2.0923   -5.1317    5.6520 H   0  0  0  0  0  0  0  0  0  0  0  0
    1.1921   -2.9358    6.8532 H   0  0  0  0  0  0  0  0  0  0  0  0
    0.3815   -3.8869    9.1335 H   0  0  0  0  0  0  0  0  0  0  0  0
    0.3859   -4.8577    5.1933 H   0  0  0  0  0  0  0  0  0  0  0  0
    0.8732   -8.8996    7.9055 H   0  0  0  0  0  0  0  0  0  0  0  0
  1  2  1  0
  1 25  1  0
  1 26  1  0
  1 27  1  0
  2 13  1  0
  2  3  2  0
  3  4  1  0
  4  5  2  0
  4  6  1  0
  6  7  1  0
  6 28  1  0
  7  8  1  0
  7 13  1  0
  7 29  1  6
  8 12  1  0
  8  9  2  0
  9 10  1  0
  9 30  1  0
 10 11  2  0
 11 12  1  0
 11 31  1  0
 13 14  1  0
 13 32  1  1
 14 24  1  0
 14 15  2  0
 15 16  1  0
 16 23  2  0
 16 17  1  0
 17 18  1  0
 17 21  1  0
 18 33  1  0
 18 36  1  0
 18 19  1  0
 19 20  2  0
 19 34  1  0
 20 21  1  0
 20 35  1  0
 21 22  2  0
 23 24  1  0
 23 37  1  0
M  END
>  <i_m_ct_stereo_status>  (365) 
1

>  <s_m_source_file>  (365) 
/var/tmp/pbs.5076255.sched01/tmpimq9cq4v/129n8p27m2m.sdf

>  <i_m_source_file_index>  (365) 
35

>  <i_lp_mmshare_version>  (365) 
48012

>  <i_f3d_flags>  (365) 
0

>  <s_epik_input>  (365) 
W0NIM11DMT1OQyg9TylbTkhdW0NAQEhdKGMyW2NIXW5bY0hdczIpW0NASF0xYzNuYyhbY0hdczMpLW40W2NIXVtjSF1bY0hdYzRbT0hd

>  <s_epik_cmdline>  (365) 
J2VwaWtfcHl0aG9uJywgJy1waHQnLCAnMi4wJywgJy1waCcsICc3LjAnLCAnLXRuJywgJzgnLCAnLW1hJywgJzIwMCcsICctaW1hZScsICc8aW5maWxlLm1hZT4nLCAnLW9tYWUnLCAnPG91dGZpbGUubWFlPic=

>  <r_lp_tautomer_probability>  (365) 
0.961761

>  <r_epik_Ionization_Penalty>  (365) 
0.000715822

>  <r_epik_Ionization_Penalty_Charging>  (365) 
0

>  <r_epik_Ionization_Penalty_Neutral>  (365) 
0.000715822

>  <r_epik_State_Penalty>  (365) 
0.0186787

>  <r_epik_Charging_Adjusted_Penalty>  (365) 
0.0186787

>  <i_epik_Tot_Q>  (365) 
0

>  <i_epik_Tot_abs_Q>  (365) 
0

>  <s_epik_Chemistry_Notes>  (365) 
This compound has an imine and may undergo hydrolysis.

>  <s_lp_Force_Field>  (365) 
OPLS3e

>  <r_lp_Energy>  (365) 
24.1833

>  <b_lp_Chiralities_Consistent>  (365) 
1

>  <s_lp_Variant>  (365) 
115:0-1

>  <s_i_glide_gridfile>  (365) 
pfpi4k_grid

>  <i_i_glide_lignum>  (365) 
35

>  <i_i_glide_rotatable_bonds>  (365) 
3

>  <r_i_docking_score>  (365) 
-3.50519

>  <r_i_glide_ligand_efficiency>  (365) 
-0.146049

>  <r_i_glide_ligand_efficiency_sa>  (365) 
-0.42128

>  <r_i_glide_ligand_efficiency_ln>  (365) 
-0.838952

>  <r_i_glide_gscore>  (365) 
-3.50519

>  <r_i_glide_lipo>  (365) 
-0.192588

>  <r_i_glide_hbond>  (365) 
-0.470033

>  <r_i_glide_metal>  (365) 
-0

>  <r_i_glide_rewards>  (365) 
-0.958445

>  <r_i_glide_evdw>  (365) 
-26.2933

>  <r_i_glide_ecoul>  (365) 
-5.73829

>  <r_i_glide_erotb>  (365) 
0.4451

>  <r_i_glide_esite>  (365) 
-0.153815

>  <r_i_glide_emodel>  (365) 
-37.9867

>  <r_i_glide_energy>  (365) 
-32.0316

>  <r_i_glide_einternal>  (365) 
2.98482

>  <r_i_glide_intrahb_reward>  (365) 
-0

>  <i_i_glide_confnum>  (365) 
2

>  <i_i_glide_posenum>  (365) 
11

>  <r_i_glide_eff_state_penalty>  (365) 
0

>  <ligand_id>  (365) 
115

>  <original_smiles>  (365) 
CC1=NC(=O)NC(c2cncs2)C1c1nc(-n2cccc2O)cs1

>  <smiles>  (365) 
[H]C1=C([H])C([H])([H])N(c2nc(C3([H])C(C([H])([H])[H])=NC(=O)N([H])C3([H])c3sc([H])nc3[H])sc2[H])C1=O

$$$$
115:0:1
     RDKit          3D

 37 40  0  0  1  0  0  0  0  0999 V2000
    5.6506   -4.7401    3.5174 C   0  0  0  0  0  0  0  0  0  0  0  0
    4.7440   -4.9422    2.3252 C   0  0  0  0  0  0  0  0  0  0  0  0
    3.6440   -5.6073    2.4388 N   0  0  0  0  0  0  0  0  0  0  0  0
    2.7904   -5.7533    1.3411 C   0  0  0  0  0  0  0  0  0  0  0  0
    1.6277   -6.1948    1.4137 O   0  0  0  0  0  0  0  0  0  0  0  0
    3.2596   -5.4206    0.1308 N   0  0  0  0  0  0  0  0  0  0  0  0
    4.5459   -4.8259   -0.2263 C   0  0  1  0  0  0  0  0  0  0  0  0
    4.3884   -3.8533   -1.3777 C   0  0  0  0  0  0  0  0  0  0  0  0
    5.3952   -3.3632   -2.1773 C   0  0  0  0  0  0  0  0  0  0  0  0
    4.9812   -2.3592   -3.0652 N   0  0  0  0  0  0  0  0  0  0  0  0
    3.6683   -2.1079   -2.9740 C   0  0  0  0  0  0  0  0  0  0  0  0
    2.8590   -3.0659   -1.7433 S   0  0  0  0  0  0  0  0  0  0  0  0
    5.2202   -4.2379    1.0387 C   0  0  1  0  0  0  0  0  0  0  0  0
    4.9424   -2.7684    1.1917 C   0  0  0  0  0  0  0  0  0  0  0  0
    3.7699   -2.3546    1.6654 N   0  0  0  0  0  0  0  0  0  0  0  0
    3.5856   -0.9839    1.5927 C   0  0  0  0  0  0  0  0  0  0  0  0
    2.4262   -0.3278    2.0883 N   0  0  0  0  0  0  0  0  0  0  0  0
    2.2174    1.1058    1.9486 C   0  0  0  0  0  0  0  0  0  0  0  0
    0.8776    1.2482    2.5943 C   0  0  0  0  0  0  0  0  0  0  0  0
    0.4239    0.0836    3.0468 C   0  0  0  0  0  0  0  0  0  0  0  0
    1.3929   -0.9368    2.7388 C   0  0  0  0  0  0  0  0  0  0  0  0
    1.2848   -2.1248    3.0303 O   0  0  0  0  0  0  0  0  0  0  0  0
    4.6513   -0.3291    1.0152 C   0  0  0  0  0  0  0  0  0  0  0  0
    5.9515   -1.4303    0.6187 S   0  0  0  0  0  0  0  0  0  0  0  0
    6.6196   -5.1978    3.3281 H   0  0  0  0  0  0  0  0  0  0  0  0
    5.2126   -5.1884    4.4083 H   0  0  0  0  0  0  0  0  0  0  0  0
    5.7921   -3.6771    3.7151 H   0  0  0  0  0  0  0  0  0  0  0  0
    2.6466   -5.5765   -0.6466 H   0  0  0  0  0  0  0  0  0  0  0  0
    5.1282   -5.6815   -0.5538 H   0  0  0  0  0  0  0  0  0  0  0  0
    6.4619   -3.5876   -2.0990 H   0  0  0  0  0  0  0  0  0  0  0  0
    3.1893   -1.3631   -3.6145 H   0  0  0  0  0  0  0  0  0  0  0  0
    6.2961   -4.3505    0.9397 H   0  0  0  0  0  0  0  0  0  0  0  0
    2.9906    1.6886    2.4533 H   0  0  0  0  0  0  0  0  0  0  0  0
    0.3528    2.1876    2.6569 H   0  0  0  0  0  0  0  0  0  0  0  0
   -0.5190   -0.1010    3.5507 H   0  0  0  0  0  0  0  0  0  0  0  0
    2.1568    1.3562    0.9105 H   0  0  0  0  0  0  0  0  0  0  0  0
    4.7617    0.7239    0.8145 H   0  0  0  0  0  0  0  0  0  0  0  0
  1  2  1  0
  1 25  1  0
  1 26  1  0
  1 27  1  0
  2 13  1  0
  2  3  2  0
  3  4  1  0
  4  5  2  0
  4  6  1  0
  6  7  1  0
  6 28  1  0
  7  8  1  0
  7 13  1  0
  7 29  1  6
  8 12  1  0
  8  9  2  0
  9 10  1  0
  9 30  1  0
 10 11  2  0
 11 12  1  0
 11 31  1  0
 13 14  1  0
 13 32  1  6
 14 24  1  0
 14 15  2  0
 15 16  1  0
 16 23  2  0
 16 17  1  0
 17 18  1  0
 17 21  1  0
 18 33  1  0
 18 36  1  0
 18 19  1  0
 19 20  2  0
 19 34  1  0
 20 21  1  0
 20 35  1  0
 21 22  2  0
 23 24  1  0
 23 37  1  0
M  END
>  <i_m_ct_stereo_status>  (366) 
1

>  <s_m_source_file>  (366) 
/var/tmp/pbs.5076255.sched01/tmpimq9cq4v/129n8p27m2m.sdf

>  <i_m_source_file_index>  (366) 
35

>  <i_lp_mmshare_version>  (366) 
48012

>  <i_f3d_flags>  (366) 
0

>  <s_epik_input>  (366) 
W0NIM11DMT1OQyg9TylbTkhdW0NAQEhdKGMyW2NIXW5bY0hdczIpW0NASF0xYzNuYyhbY0hdczMpLW40W2NIXVtjSF1bY0hdYzRbT0hd

>  <s_epik_cmdline>  (366) 
J2VwaWtfcHl0aG9uJywgJy1waHQnLCAnMi4wJywgJy1waCcsICc3LjAnLCAnLXRuJywgJzgnLCAnLW1hJywgJzIwMCcsICctaW1hZScsICc8aW5maWxlLm1hZT4nLCAnLW9tYWUnLCAnPG91dGZpbGUubWFlPic=

>  <r_lp_tautomer_probability>  (366) 
0.961761

>  <r_epik_Ionization_Penalty>  (366) 
0.000715822

>  <r_epik_Ionization_Penalty_Charging>  (366) 
0

>  <r_epik_Ionization_Penalty_Neutral>  (366) 
0.000715822

>  <r_epik_State_Penalty>  (366) 
0.0186787

>  <r_epik_Charging_Adjusted_Penalty>  (366) 
0.0186787

>  <i_epik_Tot_Q>  (366) 
0

>  <i_epik_Tot_abs_Q>  (366) 
0

>  <s_epik_Chemistry_Notes>  (366) 
This compound has an imine and may undergo hydrolysis.

>  <s_lp_Force_Field>  (366) 
OPLS3e

>  <r_lp_Energy>  (366) 
24.1833

>  <b_lp_Chiralities_Consistent>  (366) 
1

>  <s_lp_Variant>  (366) 
115:0-1

>  <s_i_glide_gridfile>  (366) 
pfpi4k_grid

>  <i_i_glide_lignum>  (366) 
35

>  <i_i_glide_rotatable_bonds>  (366) 
3

>  <r_i_docking_score>  (366) 
-3.19326

>  <r_i_glide_ligand_efficiency>  (366) 
-0.133052

>  <r_i_glide_ligand_efficiency_sa>  (366) 
-0.38379

>  <r_i_glide_ligand_efficiency_ln>  (366) 
-0.764293

>  <r_i_glide_gscore>  (366) 
-3.19326

>  <r_i_glide_lipo>  (366) 
-0.608623

>  <r_i_glide_hbond>  (366) 
-0.227771

>  <r_i_glide_metal>  (366) 
-0

>  <r_i_glide_rewards>  (366) 
-0.970184

>  <r_i_glide_evdw>  (366) 
-31.0511

>  <r_i_glide_ecoul>  (366) 
-1.1716

>  <r_i_glide_erotb>  (366) 
0.4451

>  <r_i_glide_esite>  (366) 
-0.103486

>  <r_i_glide_emodel>  (366) 
-37.4442

>  <r_i_glide_energy>  (366) 
-32.2227

>  <r_i_glide_einternal>  (366) 
2.5706

>  <r_i_glide_intrahb_reward>  (366) 
-0

>  <i_i_glide_confnum>  (366) 
6

>  <i_i_glide_posenum>  (366) 
13

>  <r_i_glide_eff_state_penalty>  (366) 
0

>  <ligand_id>  (366) 
115

>  <original_smiles>  (366) 
CC1=NC(=O)NC(c2cncs2)C1c1nc(-n2cccc2O)cs1

>  <smiles>  (366) 
[H]C1=C([H])C([H])([H])N(c2nc(C3([H])C(C([H])([H])[H])=NC(=O)N([H])C3([H])c3sc([H])nc3[H])sc2[H])C1=O

$$$$
115:0:2
     RDKit          3D

 37 40  0  0  1  0  0  0  0  0999 V2000
   -0.2606   -6.2334    6.1079 C   0  0  0  0  0  0  0  0  0  0  0  0
   -0.2324   -7.3365    5.0732 C   0  0  0  0  0  0  0  0  0  0  0  0
   -1.1015   -7.3811    4.1258 N   0  0  0  0  0  0  0  0  0  0  0  0
   -1.0473   -8.3857    3.1594 C   0  0  0  0  0  0  0  0  0  0  0  0
   -1.7372   -8.3913    2.1384 O   0  0  0  0  0  0  0  0  0  0  0  0
   -0.2160   -9.4203    3.3492 N   0  0  0  0  0  0  0  0  0  0  0  0
    0.6979   -9.6465    4.4681 C   0  0  1  0  0  0  0  0  0  0  0  0
    1.9431  -10.3480    3.9915 C   0  0  0  0  0  0  0  0  0  0  0  0
    2.7141  -11.2379    4.6985 C   0  0  0  0  0  0  0  0  0  0  0  0
    3.9343  -11.5555    4.0781 N   0  0  0  0  0  0  0  0  0  0  0  0
    4.0559  -10.9614    2.8913 C   0  0  0  0  0  0  0  0  0  0  0  0
    2.6693   -9.9961    2.4309 S   0  0  0  0  0  0  0  0  0  0  0  0
    0.9469   -8.3127    5.2336 C   0  0  1  0  0  0  0  0  0  0  0  0
    2.1813   -7.5994    4.7463 C   0  0  0  0  0  0  0  0  0  0  0  0
    2.1555   -6.8562    3.6469 N   0  0  0  0  0  0  0  0  0  0  0  0
    3.4072   -6.4764    3.2049 C   0  0  0  0  0  0  0  0  0  0  0  0
    3.5982   -5.7447    2.0000 N   0  0  0  0  0  0  0  0  0  0  0  0
    4.8838   -5.1409    1.6669 C   0  0  0  0  0  0  0  0  0  0  0  0
    4.5330   -4.4549    0.3815 C   0  0  0  0  0  0  0  0  0  0  0  0
    3.2619   -4.6411    0.0654 C   0  0  0  0  0  0  0  0  0  0  0  0
    2.6376   -5.4761    1.0693 C   0  0  0  0  0  0  0  0  0  0  0  0
    1.4742   -5.8534    1.0484 O   0  0  0  0  0  0  0  0  0  0  0  0
    4.4174   -6.8425    4.0608 C   0  0  0  0  0  0  0  0  0  0  0  0
    3.8037   -7.7506    5.4258 S   0  0  0  0  0  0  0  0  0  0  0  0
   -0.4042   -6.6518    7.1033 H   0  0  0  0  0  0  0  0  0  0  0  0
   -1.0706   -5.5393    5.8936 H   0  0  0  0  0  0  0  0  0  0  0  0
    0.6733   -5.6715    6.1014 H   0  0  0  0  0  0  0  0  0  0  0  0
   -0.2399  -10.1390    2.6457 H   0  0  0  0  0  0  0  0  0  0  0  0
    0.1581  -10.3163    5.1320 H   0  0  0  0  0  0  0  0  0  0  0  0
    2.5333  -11.6084    5.6956 H   0  0  0  0  0  0  0  0  0  0  0  0
    4.9097  -11.1567    2.2464 H   0  0  0  0  0  0  0  0  0  0  0  0
    1.0945   -8.5516    6.2917 H   0  0  0  0  0  0  0  0  0  0  0  0
    5.2022   -4.4181    2.4226 H   0  0  0  0  0  0  0  0  0  0  0  0
    5.2413   -3.9014   -0.2111 H   0  0  0  0  0  0  0  0  0  0  0  0
    2.7535   -4.2759   -0.8222 H   0  0  0  0  0  0  0  0  0  0  0  0
    5.6548   -5.9009    1.5211 H   0  0  0  0  0  0  0  0  0  0  0  0
    5.4754   -6.6498    3.9786 H   0  0  0  0  0  0  0  0  0  0  0  0
  1  2  1  0
  1 25  1  0
  1 26  1  0
  1 27  1  0
  2 13  1  0
  2  3  2  0
  3  4  1  0
  4  5  2  0
  4  6  1  0
  6  7  1  0
  6 28  1  0
  7  8  1  0
  7 13  1  0
  7 29  1  1
  8 12  1  0
  8  9  2  0
  9 10  1  0
  9 30  1  0
 10 11  2  0
 11 12  1  0
 11 31  1  0
 13 14  1  0
 13 32  1  1
 14 24  1  0
 14 15  2  0
 15 16  1  0
 16 23  2  0
 16 17  1  0
 17 18  1  0
 17 21  1  0
 18 33  1  0
 18 36  1  0
 18 19  1  0
 19 20  2  0
 19 34  1  0
 20 21  1  0
 20 35  1  0
 21 22  2  0
 23 24  1  0
 23 37  1  0
M  END
>  <i_m_ct_stereo_status>  (367) 
1

>  <s_m_source_file>  (367) 
/var/tmp/pbs.5076255.sched01/tmpimq9cq4v/129n8p27m2m.sdf

>  <i_m_source_file_index>  (367) 
35

>  <i_lp_mmshare_version>  (367) 
48012

>  <i_f3d_flags>  (367) 
0

>  <s_epik_input>  (367) 
W0NIM11DMT1OQyg9TylbTkhdW0NAQEhdKGMyW2NIXW5bY0hdczIpW0NASF0xYzNuYyhbY0hdczMpLW40W2NIXVtjSF1bY0hdYzRbT0hd

>  <s_epik_cmdline>  (367) 
J2VwaWtfcHl0aG9uJywgJy1waHQnLCAnMi4wJywgJy1waCcsICc3LjAnLCAnLXRuJywgJzgnLCAnLW1hJywgJzIwMCcsICctaW1hZScsICc8aW5maWxlLm1hZT4nLCAnLW9tYWUnLCAnPG91dGZpbGUubWFlPic=

>  <r_lp_tautomer_probability>  (367) 
0.961761

>  <r_epik_Ionization_Penalty>  (367) 
0.000715822

>  <r_epik_Ionization_Penalty_Charging>  (367) 
0

>  <r_epik_Ionization_Penalty_Neutral>  (367) 
0.000715822

>  <r_epik_State_Penalty>  (367) 
0.0186787

>  <r_epik_Charging_Adjusted_Penalty>  (367) 
0.0186787

>  <i_epik_Tot_Q>  (367) 
0

>  <i_epik_Tot_abs_Q>  (367) 
0

>  <s_epik_Chemistry_Notes>  (367) 
This compound has an imine and may undergo hydrolysis.

>  <s_lp_Force_Field>  (367) 
OPLS3e

>  <r_lp_Energy>  (367) 
24.1833

>  <b_lp_Chiralities_Consistent>  (367) 
1

>  <s_lp_Variant>  (367) 
115:0-1

>  <s_i_glide_gridfile>  (367) 
pfpi4k_grid

>  <i_i_glide_lignum>  (367) 
35

>  <i_i_glide_rotatable_bonds>  (367) 
3

>  <r_i_docking_score>  (367) 
-2.92474

>  <r_i_glide_ligand_efficiency>  (367) 
-0.121864

>  <r_i_glide_ligand_efficiency_sa>  (367) 
-0.351517

>  <r_i_glide_ligand_efficiency_ln>  (367) 
-0.700025

>  <r_i_glide_gscore>  (367) 
-2.92474

>  <r_i_glide_lipo>  (367) 
-0.0707986

>  <r_i_glide_hbond>  (367) 
-0.147305

>  <r_i_glide_metal>  (367) 
-0

>  <r_i_glide_rewards>  (367) 
-0.974817

>  <r_i_glide_evdw>  (367) 
-26.3353

>  <r_i_glide_ecoul>  (367) 
-4.72094

>  <r_i_glide_erotb>  (367) 
0.4451

>  <r_i_glide_esite>  (367) 
-0.152018

>  <r_i_glide_emodel>  (367) 
-35.8544

>  <r_i_glide_energy>  (367) 
-31.0562

>  <r_i_glide_einternal>  (367) 
2.43723

>  <r_i_glide_intrahb_reward>  (367) 
-0

>  <i_i_glide_confnum>  (367) 
6

>  <i_i_glide_posenum>  (367) 
8

>  <r_i_glide_eff_state_penalty>  (367) 
0

>  <ligand_id>  (367) 
115

>  <original_smiles>  (367) 
CC1=NC(=O)NC(c2cncs2)C1c1nc(-n2cccc2O)cs1

>  <smiles>  (367) 
[H]C1=C([H])C([H])([H])N(c2nc(C3([H])C(C([H])([H])[H])=NC(=O)N([H])C3([H])c3sc([H])nc3[H])sc2[H])C1=O

$$$$
115:1:0
     RDKit          3D

 37 40  0  0  1  0  0  0  0  0999 V2000
    5.3429   -4.5887    3.6407 C   0  0  0  0  0  0  0  0  0  0  0  0
    4.5142   -4.8541    2.4081 C   0  0  0  0  0  0  0  0  0  0  0  0
    3.4391   -5.5617    2.4716 N   0  0  0  0  0  0  0  0  0  0  0  0
    2.6544   -5.7581    1.3290 C   0  0  0  0  0  0  0  0  0  0  0  0
    1.5103   -6.2327    1.3375 O   0  0  0  0  0  0  0  0  0  0  0  0
    3.1801   -5.4266    0.1385 N   0  0  0  0  0  0  0  0  0  0  0  0
    4.4618   -4.7905   -0.1500 C   0  0  1  0  0  0  0  0  0  0  0  0
    4.3348   -3.8579   -1.3347 C   0  0  0  0  0  0  0  0  0  0  0  0
    5.3512   -3.4042   -2.1360 C   0  0  0  0  0  0  0  0  0  0  0  0
    4.9704   -2.4218   -3.0581 N   0  0  0  0  0  0  0  0  0  0  0  0
    3.6629   -2.1501   -3.0006 C   0  0  0  0  0  0  0  0  0  0  0  0
    2.8146   -3.0766   -1.7709 S   0  0  0  0  0  0  0  0  0  0  0  0
    5.0360   -4.1496    1.1361 C   0  0  1  0  0  0  0  0  0  0  0  0
    4.6987   -2.6801    1.2349 C   0  0  0  0  0  0  0  0  0  0  0  0
    3.5221   -2.2729    1.6990 N   0  0  0  0  0  0  0  0  0  0  0  0
    3.3163   -0.9062    1.5844 C   0  0  0  0  0  0  0  0  0  0  0  0
    2.1597   -0.2549    2.0994 N   0  0  0  0  0  0  0  0  0  0  0  0
    1.8681    1.0821    1.8989 C   0  0  0  0  0  0  0  0  0  0  0  0
    0.7279    1.4222    2.4914 C   0  0  0  0  0  0  0  0  0  0  0  0
    0.1508    0.2439    3.2153 C   0  0  0  0  0  0  0  0  0  0  0  0
    1.1908   -0.8157    2.8869 C   0  0  0  0  0  0  0  0  0  0  0  0
    1.1116   -1.9624    3.3027 O   0  0  0  0  0  0  0  0  0  0  0  0
    4.3512   -0.2592    0.9440 C   0  0  0  0  0  0  0  0  0  0  0  0
    5.6870   -1.3413    0.6222 S   0  0  0  0  0  0  0  0  0  0  0  0
    6.3485   -4.9847    3.5095 H   0  0  0  0  0  0  0  0  0  0  0  0
    4.8860   -5.0632    4.5058 H   0  0  0  0  0  0  0  0  0  0  0  0
    5.4006   -3.5176    3.8384 H   0  0  0  0  0  0  0  0  0  0  0  0
    2.6236   -5.6282   -0.6653 H   0  0  0  0  0  0  0  0  0  0  0  0
    5.0886   -5.6400   -0.4173 H   0  0  0  0  0  0  0  0  0  0  0  0
    6.4152   -3.6405   -2.0196 H   0  0  0  0  0  0  0  0  0  0  0  0
    3.2025   -1.4136   -3.6604 H   0  0  0  0  0  0  0  0  0  0  0  0
    6.1213   -4.2286    1.0852 H   0  0  0  0  0  0  0  0  0  0  0  0
    2.5282    1.7022    1.3080 H   0  0  0  0  0  0  0  0  0  0  0  0
    0.2731    2.3971    2.4600 H   0  0  0  0  0  0  0  0  0  0  0  0
   -0.8293   -0.0270    2.8217 H   0  0  0  0  0  0  0  0  0  0  0  0
    0.0903    0.4058    4.2945 H   0  0  0  0  0  0  0  0  0  0  0  0
    4.4362    0.7823    0.6829 H   0  0  0  0  0  0  0  0  0  0  0  0
  1  2  1  0
  1 25  1  0
  1 26  1  0
  1 27  1  0
  2 13  1  0
  2  3  2  0
  3  4  1  0
  4  5  2  0
  4  6  1  0
  6  7  1  0
  6 28  1  0
  7  8  1  0
  7 13  1  0
  7 29  1  6
  8 12  1  0
  8  9  2  0
  9 10  1  0
  9 30  1  0
 10 11  2  0
 11 12  1  0
 11 31  1  0
 13 14  1  0
 13 32  1  6
 14 24  1  0
 14 15  2  0
 15 16  1  0
 16 23  2  0
 16 17  1  0
 17 18  1  0
 17 21  1  0
 18 33  1  0
 18 19  2  0
 19 20  1  0
 19 34  1  0
 20 21  1  0
 20 35  1  0
 20 36  1  0
 21 22  2  0
 23 24  1  0
 23 37  1  0
M  END
>  <i_m_ct_stereo_status>  (368) 
1

>  <s_m_source_file>  (368) 
/var/tmp/pbs.5076255.sched01/tmpimq9cq4v/129n8p27m2m.sdf

>  <i_m_source_file_index>  (368) 
36

>  <i_lp_mmshare_version>  (368) 
48012

>  <i_f3d_flags>  (368) 
0

>  <s_epik_input>  (368) 
W0NIM11DMT1OQyg9TylbTkhdW0NAQEhdKGMyW2NIXW5bY0hdczIpW0NASF0xYzNuYyhbY0hdczMpLW40W2NIXVtjSF1bY0hdYzRbT0hd

>  <s_epik_cmdline>  (368) 
J2VwaWtfcHl0aG9uJywgJy1waHQnLCAnMi4wJywgJy1waCcsICc3LjAnLCAnLXRuJywgJzgnLCAnLW1hJywgJzIwMCcsICctaW1hZScsICc8aW5maWxlLm1hZT4nLCAnLW9tYWUnLCAnPG91dGZpbGUubWFlPic=

>  <r_lp_tautomer_probability>  (368) 
0.0382385

>  <r_epik_Ionization_Penalty>  (368) 
1.13164e-05

>  <r_epik_Ionization_Penalty_Charging>  (368) 
0

>  <r_epik_Ionization_Penalty_Neutral>  (368) 
1.13164e-05

>  <r_epik_State_Penalty>  (368) 
2.05757

>  <r_epik_Charging_Adjusted_Penalty>  (368) 
2.05757

>  <i_epik_Tot_Q>  (368) 
0

>  <i_epik_Tot_abs_Q>  (368) 
0

>  <s_epik_Chemistry_Notes>  (368) 
This compound has an imine and may undergo hydrolysis.

>  <s_lp_Force_Field>  (368) 
OPLS3e

>  <r_lp_Energy>  (368) 
24.4378

>  <b_lp_Chiralities_Consistent>  (368) 
1

>  <s_lp_Variant>  (368) 
115:0-2

>  <s_i_glide_gridfile>  (368) 
pfpi4k_grid

>  <i_i_glide_lignum>  (368) 
36

>  <i_i_glide_rotatable_bonds>  (368) 
3

>  <r_i_docking_score>  (368) 
-3.25289

>  <r_i_glide_ligand_efficiency>  (368) 
-0.135537

>  <r_i_glide_ligand_efficiency_sa>  (368) 
-0.390956

>  <r_i_glide_ligand_efficiency_ln>  (368) 
-0.778565

>  <r_i_glide_gscore>  (368) 
-3.25289

>  <r_i_glide_lipo>  (368) 
-0.54572

>  <r_i_glide_hbond>  (368) 
-0.282124

>  <r_i_glide_metal>  (368) 
-0

>  <r_i_glide_rewards>  (368) 
-0.965814

>  <r_i_glide_evdw>  (368) 
-31.4482

>  <r_i_glide_ecoul>  (368) 
-1.43553

>  <r_i_glide_erotb>  (368) 
0.4451

>  <r_i_glide_esite>  (368) 
-0.11659

>  <r_i_glide_emodel>  (368) 
-38.4808

>  <r_i_glide_energy>  (368) 
-32.8837

>  <r_i_glide_einternal>  (368) 
2.74227

>  <r_i_glide_intrahb_reward>  (368) 
-0

>  <i_i_glide_confnum>  (368) 
2

>  <i_i_glide_posenum>  (368) 
3

>  <r_i_glide_eff_state_penalty>  (368) 
0

>  <ligand_id>  (368) 
115

>  <original_smiles>  (368) 
CC1=NC(=O)NC(c2cncs2)C1c1nc(-n2cccc2O)cs1

>  <smiles>  (368) 
[H]C1=C([H])C([H])([H])C(=O)N1c1nc(C2([H])C(C([H])([H])[H])=NC(=O)N([H])C2([H])c2sc([H])nc2[H])sc1[H]

$$$$
115:1:1
     RDKit          3D

 37 40  0  0  1  0  0  0  0  0999 V2000
    1.2313   -3.4926    4.0333 C   0  0  0  0  0  0  0  0  0  0  0  0
    1.8149   -4.6606    3.2639 C   0  0  0  0  0  0  0  0  0  0  0  0
    1.0628   -5.4990    2.6547 N   0  0  0  0  0  0  0  0  0  0  0  0
    1.6178   -6.5474    1.9125 C   0  0  0  0  0  0  0  0  0  0  0  0
    0.9494   -7.2375    1.1475 O   0  0  0  0  0  0  0  0  0  0  0  0
    2.9318   -6.8269    2.0498 N   0  0  0  0  0  0  0  0  0  0  0  0
    3.8962   -6.0968    2.8725 C   0  0  1  0  0  0  0  0  0  0  0  0
    5.2526   -6.0544    2.2074 C   0  0  0  0  0  0  0  0  0  0  0  0
    5.5553   -5.9325    0.8710 C   0  0  0  0  0  0  0  0  0  0  0  0
    6.9164   -5.7565    0.5993 N   0  0  0  0  0  0  0  0  0  0  0  0
    7.6544   -5.8196    1.7107 C   0  0  0  0  0  0  0  0  0  0  0  0
    6.7046   -6.0336    3.1730 S   0  0  0  0  0  0  0  0  0  0  0  0
    3.3423   -4.6952    3.2416 C   0  0  1  0  0  0  0  0  0  0  0  0
    3.8065   -3.6442    2.2733 C   0  0  0  0  0  0  0  0  0  0  0  0
    3.3535   -3.5741    1.0184 N   0  0  0  0  0  0  0  0  0  0  0  0
    4.0486   -2.6545    0.2442 C   0  0  0  0  0  0  0  0  0  0  0  0
    3.7592   -2.4926   -1.1405 N   0  0  0  0  0  0  0  0  0  0  0  0
    2.7037   -3.1524   -1.7640 C   0  0  0  0  0  0  0  0  0  0  0  0
    2.6284   -2.8349   -3.0554 C   0  0  0  0  0  0  0  0  0  0  0  0
    3.7191   -1.8674   -3.3987 C   0  0  0  0  0  0  0  0  0  0  0  0
    4.4061   -1.7380   -2.0447 C   0  0  0  0  0  0  0  0  0  0  0  0
    5.4156   -1.0532   -1.8726 O   0  0  0  0  0  0  0  0  0  0  0  0
    5.0013   -1.9580    0.9506 C   0  0  0  0  0  0  0  0  0  0  0  0
    5.0807   -2.4777    2.6111 S   0  0  0  0  0  0  0  0  0  0  0  0
    1.5214   -3.5469    5.0807 H   0  0  0  0  0  0  0  0  0  0  0  0
    0.1458   -3.5042    3.9707 H   0  0  0  0  0  0  0  0  0  0  0  0
    1.5797   -2.5478    3.6189 H   0  0  0  0  0  0  0  0  0  0  0  0
    3.2794   -7.6276    1.5416 H   0  0  0  0  0  0  0  0  0  0  0  0
    3.9709   -6.6803    3.7843 H   0  0  0  0  0  0  0  0  0  0  0  0
    4.8558   -5.8539    0.0514 H   0  0  0  0  0  0  0  0  0  0  0  0
    8.7335   -5.7267    1.6678 H   0  0  0  0  0  0  0  0  0  0  0  0
    3.7345   -4.4220    4.2227 H   0  0  0  0  0  0  0  0  0  0  0  0
    2.0731   -3.8242   -1.1985 H   0  0  0  0  0  0  0  0  0  0  0  0
    1.9011   -3.2089   -3.7615 H   0  0  0  0  0  0  0  0  0  0  0  0
    3.3188   -0.9124   -3.7227 H   0  0  0  0  0  0  0  0  0  0  0  0
    4.4012   -2.2768   -4.1350 H   0  0  0  0  0  0  0  0  0  0  0  0
    5.6555   -1.1719    0.6093 H   0  0  0  0  0  0  0  0  0  0  0  0
  1  2  1  0
  1 25  1  0
  1 26  1  0
  1 27  1  0
  2 13  1  0
  2  3  2  0
  3  4  1  0
  4  5  2  0
  4  6  1  0
  6  7  1  0
  6 28  1  0
  7  8  1  0
  7 13  1  0
  7 29  1  1
  8 12  1  0
  8  9  2  0
  9 10  1  0
  9 30  1  0
 10 11  2  0
 11 12  1  0
 11 31  1  0
 13 14  1  0
 13 32  1  1
 14 24  1  0
 14 15  2  0
 15 16  1  0
 16 23  2  0
 16 17  1  0
 17 18  1  0
 17 21  1  0
 18 33  1  0
 18 19  2  0
 19 20  1  0
 19 34  1  0
 20 21  1  0
 20 35  1  0
 20 36  1  0
 21 22  2  0
 23 24  1  0
 23 37  1  0
M  END
>  <i_m_ct_stereo_status>  (369) 
1

>  <s_m_source_file>  (369) 
/var/tmp/pbs.5076255.sched01/tmpimq9cq4v/129n8p27m2m.sdf

>  <i_m_source_file_index>  (369) 
36

>  <i_lp_mmshare_version>  (369) 
48012

>  <i_f3d_flags>  (369) 
0

>  <s_epik_input>  (369) 
W0NIM11DMT1OQyg9TylbTkhdW0NAQEhdKGMyW2NIXW5bY0hdczIpW0NASF0xYzNuYyhbY0hdczMpLW40W2NIXVtjSF1bY0hdYzRbT0hd

>  <s_epik_cmdline>  (369) 
J2VwaWtfcHl0aG9uJywgJy1waHQnLCAnMi4wJywgJy1waCcsICc3LjAnLCAnLXRuJywgJzgnLCAnLW1hJywgJzIwMCcsICctaW1hZScsICc8aW5maWxlLm1hZT4nLCAnLW9tYWUnLCAnPG91dGZpbGUubWFlPic=

>  <r_lp_tautomer_probability>  (369) 
0.0382385

>  <r_epik_Ionization_Penalty>  (369) 
1.13164e-05

>  <r_epik_Ionization_Penalty_Charging>  (369) 
0

>  <r_epik_Ionization_Penalty_Neutral>  (369) 
1.13164e-05

>  <r_epik_State_Penalty>  (369) 
2.05757

>  <r_epik_Charging_Adjusted_Penalty>  (369) 
2.05757

>  <i_epik_Tot_Q>  (369) 
0

>  <i_epik_Tot_abs_Q>  (369) 
0

>  <s_epik_Chemistry_Notes>  (369) 
This compound has an imine and may undergo hydrolysis.

>  <s_lp_Force_Field>  (369) 
OPLS3e

>  <r_lp_Energy>  (369) 
24.4378

>  <b_lp_Chiralities_Consistent>  (369) 
1

>  <s_lp_Variant>  (369) 
115:0-2

>  <s_i_glide_gridfile>  (369) 
pfpi4k_grid

>  <i_i_glide_lignum>  (369) 
36

>  <i_i_glide_rotatable_bonds>  (369) 
3

>  <r_i_docking_score>  (369) 
-2.97724

>  <r_i_glide_ligand_efficiency>  (369) 
-0.124052

>  <r_i_glide_ligand_efficiency_sa>  (369) 
-0.357827

>  <r_i_glide_ligand_efficiency_ln>  (369) 
-0.71259

>  <r_i_glide_gscore>  (369) 
-2.97724

>  <r_i_glide_lipo>  (369) 
-0.571704

>  <r_i_glide_hbond>  (369) 
-0.01673

>  <r_i_glide_metal>  (369) 
-0

>  <r_i_glide_rewards>  (369) 
-0.958445

>  <r_i_glide_evdw>  (369) 
-28.1605

>  <r_i_glide_ecoul>  (369) 
-2.41132

>  <r_i_glide_erotb>  (369) 
0.4451

>  <r_i_glide_esite>  (369) 
-0.10574

>  <r_i_glide_emodel>  (369) 
-36.7184

>  <r_i_glide_energy>  (369) 
-30.5718

>  <r_i_glide_einternal>  (369) 
1.04803

>  <r_i_glide_intrahb_reward>  (369) 
-0

>  <i_i_glide_confnum>  (369) 
4

>  <i_i_glide_posenum>  (369) 
4

>  <r_i_glide_eff_state_penalty>  (369) 
0

>  <ligand_id>  (369) 
115

>  <original_smiles>  (369) 
CC1=NC(=O)NC(c2cncs2)C1c1nc(-n2cccc2O)cs1

>  <smiles>  (369) 
[H]C1=C([H])C([H])([H])C(=O)N1c1nc(C2([H])C(C([H])([H])[H])=NC(=O)N([H])C2([H])c2sc([H])nc2[H])sc1[H]

$$$$
115:1:2
     RDKit          3D

 37 40  0  0  1  0  0  0  0  0999 V2000
   -2.0084   -8.6058    2.5035 C   0  0  0  0  0  0  0  0  0  0  0  0
   -0.5504   -8.2700    2.2638 C   0  0  0  0  0  0  0  0  0  0  0  0
   -0.1925   -7.1666    1.7404 N   0  0  0  0  0  0  0  0  0  0  0  0
    1.1625   -6.8692    1.5345 C   0  0  0  0  0  0  0  0  0  0  0  0
    1.5422   -5.7734    1.1946 O   0  0  0  0  0  0  0  0  0  0  0  0
    2.0872   -7.8573    1.6870 N   0  0  0  0  0  0  0  0  0  0  0  0
    1.8274   -9.2364    2.0845 C   0  0  1  0  0  0  0  0  0  0  0  0
    2.9633   -9.7659    2.9461 C   0  0  0  0  0  0  0  0  0  0  0  0
    3.9483   -9.0813    3.6016 C   0  0  0  0  0  0  0  0  0  0  0  0
    4.7413   -9.8541    4.4617 N   0  0  0  0  0  0  0  0  0  0  0  0
    4.4087  -11.1382    4.3842 C   0  0  0  0  0  0  0  0  0  0  0  0
    3.1253  -11.4780    3.2504 S   0  0  0  0  0  0  0  0  0  0  0  0
    0.4264   -9.3499    2.7556 C   0  0  1  0  0  0  0  0  0  0  0  0
    0.5230   -9.2126    4.2444 C   0  0  0  0  0  0  0  0  0  0  0  0
    0.5017   -8.0450    4.8743 N   0  0  0  0  0  0  0  0  0  0  0  0
    0.7026   -8.1710    6.2460 C   0  0  0  0  0  0  0  0  0  0  0  0
    0.6234   -7.0138    7.0721 N   0  0  0  0  0  0  0  0  0  0  0  0
    0.9371   -7.0636    8.4340 C   0  0  0  0  0  0  0  0  0  0  0  0
    0.7605   -5.8672    8.9959 C   0  0  0  0  0  0  0  0  0  0  0  0
    0.2789   -4.8904    7.9624 C   0  0  0  0  0  0  0  0  0  0  0  0
    0.2203   -5.7930    6.7426 C   0  0  0  0  0  0  0  0  0  0  0  0
   -0.1858   -5.3652    5.6346 O   0  0  0  0  0  0  0  0  0  0  0  0
    0.9633   -9.4347    6.6385 C   0  0  0  0  0  0  0  0  0  0  0  0
    0.8072  -10.5637    5.3140 S   0  0  0  0  0  0  0  0  0  0  0  0
   -2.2858   -9.5120    1.9688 H   0  0  0  0  0  0  0  0  0  0  0  0
   -2.6420   -7.7924    2.1657 H   0  0  0  0  0  0  0  0  0  0  0  0
   -2.1944   -8.7619    3.5653 H   0  0  0  0  0  0  0  0  0  0  0  0
    3.0458   -7.5994    1.4854 H   0  0  0  0  0  0  0  0  0  0  0  0
    1.8097   -9.8076    1.1577 H   0  0  0  0  0  0  0  0  0  0  0  0
    4.1224   -8.0188    3.6016 H   0  0  0  0  0  0  0  0  0  0  0  0
    4.8783  -11.8871    5.0032 H   0  0  0  0  0  0  0  0  0  0  0  0
    0.0182  -10.3431    2.5509 H   0  0  0  0  0  0  0  0  0  0  0  0
    1.2783   -7.9786    8.8717 H   0  0  0  0  0  0  0  0  0  0  0  0
    0.9430   -5.6121   10.0304 H   0  0  0  0  0  0  0  0  0  0  0  0
    0.9866   -4.0780    7.8050 H   0  0  0  0  0  0  0  0  0  0  0  0
   -0.7063   -4.4941    8.2020 H   0  0  0  0  0  0  0  0  0  0  0  0
    1.2208   -9.8050    7.6313 H   0  0  0  0  0  0  0  0  0  0  0  0
  1  2  1  0
  1 25  1  0
  1 26  1  0
  1 27  1  0
  2 13  1  0
  2  3  2  0
  3  4  1  0
  4  5  2  0
  4  6  1  0
  6  7  1  0
  6 28  1  0
  7  8  1  0
  7 13  1  0
  7 29  1  6
  8 12  1  0
  8  9  2  0
  9 10  1  0
  9 30  1  0
 10 11  2  0
 11 12  1  0
 11 31  1  0
 13 14  1  0
 13 32  1  1
 14 24  1  0
 14 15  2  0
 15 16  1  0
 16 23  2  0
 16 17  1  0
 17 18  1  0
 17 21  1  0
 18 33  1  0
 18 19  2  0
 19 20  1  0
 19 34  1  0
 20 21  1  0
 20 35  1  0
 20 36  1  0
 21 22  2  0
 23 24  1  0
 23 37  1  0
M  END
>  <i_m_ct_stereo_status>  (370) 
1

>  <s_m_source_file>  (370) 
/var/tmp/pbs.5076255.sched01/tmpimq9cq4v/129n8p27m2m.sdf

>  <i_m_source_file_index>  (370) 
36

>  <i_lp_mmshare_version>  (370) 
48012

>  <i_f3d_flags>  (370) 
0

>  <s_epik_input>  (370) 
W0NIM11DMT1OQyg9TylbTkhdW0NAQEhdKGMyW2NIXW5bY0hdczIpW0NASF0xYzNuYyhbY0hdczMpLW40W2NIXVtjSF1bY0hdYzRbT0hd

>  <s_epik_cmdline>  (370) 
J2VwaWtfcHl0aG9uJywgJy1waHQnLCAnMi4wJywgJy1waCcsICc3LjAnLCAnLXRuJywgJzgnLCAnLW1hJywgJzIwMCcsICctaW1hZScsICc8aW5maWxlLm1hZT4nLCAnLW9tYWUnLCAnPG91dGZpbGUubWFlPic=

>  <r_lp_tautomer_probability>  (370) 
0.0382385

>  <r_epik_Ionization_Penalty>  (370) 
1.13164e-05

>  <r_epik_Ionization_Penalty_Charging>  (370) 
0

>  <r_epik_Ionization_Penalty_Neutral>  (370) 
1.13164e-05

>  <r_epik_State_Penalty>  (370) 
2.05757

>  <r_epik_Charging_Adjusted_Penalty>  (370) 
2.05757

>  <i_epik_Tot_Q>  (370) 
0

>  <i_epik_Tot_abs_Q>  (370) 
0

>  <s_epik_Chemistry_Notes>  (370) 
This compound has an imine and may undergo hydrolysis.

>  <s_lp_Force_Field>  (370) 
OPLS3e

>  <r_lp_Energy>  (370) 
24.4378

>  <b_lp_Chiralities_Consistent>  (370) 
1

>  <s_lp_Variant>  (370) 
115:0-2

>  <s_i_glide_gridfile>  (370) 
pfpi4k_grid

>  <i_i_glide_lignum>  (370) 
36

>  <i_i_glide_rotatable_bonds>  (370) 
3

>  <r_i_docking_score>  (370) 
-2.8918

>  <r_i_glide_ligand_efficiency>  (370) 
-0.120492

>  <r_i_glide_ligand_efficiency_sa>  (370) 
-0.347559

>  <r_i_glide_ligand_efficiency_ln>  (370) 
-0.692141

>  <r_i_glide_gscore>  (370) 
-2.8918

>  <r_i_glide_lipo>  (370) 
-0.230217

>  <r_i_glide_hbond>  (370) 
-0.134365

>  <r_i_glide_metal>  (370) 
-0

>  <r_i_glide_rewards>  (370) 
-0.958445

>  <r_i_glide_evdw>  (370) 
-27.4328

>  <r_i_glide_ecoul>  (370) 
-3.28724

>  <r_i_glide_erotb>  (370) 
0.4451

>  <r_i_glide_esite>  (370) 
-0.14915

>  <r_i_glide_emodel>  (370) 
-35.4726

>  <r_i_glide_energy>  (370) 
-30.7201

>  <r_i_glide_einternal>  (370) 
1.91592

>  <r_i_glide_intrahb_reward>  (370) 
-0

>  <i_i_glide_confnum>  (370) 
2

>  <i_i_glide_posenum>  (370) 
36

>  <r_i_glide_eff_state_penalty>  (370) 
0

>  <ligand_id>  (370) 
115

>  <original_smiles>  (370) 
CC1=NC(=O)NC(c2cncs2)C1c1nc(-n2cccc2O)cs1

>  <smiles>  (370) 
[H]C1=C([H])C([H])([H])C(=O)N1c1nc(C2([H])C(C([H])([H])[H])=NC(=O)N([H])C2([H])c2sc([H])nc2[H])sc1[H]

$$$$
116:0:0
     RDKit          3D

 44 47  0  0  1  0  0  0  0  0999 V2000
    4.7905   -0.6606    0.6728 C   0  0  0  0  0  0  0  0  0  0  0  0
    4.0947   -2.0112    0.4607 C   0  0  2  0  0  0  0  0  0  0  0  0
    4.5306   -3.0449    1.5257 C   0  0  0  0  0  0  0  0  0  0  0  0
    3.5473   -4.1012    1.6901 N   0  0  0  0  0  0  0  0  0  0  0  0
    3.3420   -5.1772    0.8507 C   0  0  0  0  0  0  0  0  0  0  0  0
    2.3811   -5.9799    1.2154 N   0  0  0  0  0  0  0  0  0  0  0  0
    1.9044   -5.4385    2.4019 C   0  0  0  0  0  0  0  0  0  0  0  0
    0.8757   -5.7943    3.3180 C   0  0  0  0  0  0  0  0  0  0  0  0
    0.0369   -6.8523    3.1549 N   0  0  0  0  0  0  0  0  0  0  0  0
    0.0652   -7.7462    2.0061 C   0  0  0  0  0  0  0  0  0  0  0  0
   -1.1393   -8.6699    2.1834 C   0  0  0  0  0  0  0  0  0  0  0  0
   -1.3663   -8.6812    3.6943 C   0  0  0  0  0  0  0  0  0  0  0  0
   -0.9193   -7.2942    4.1602 C   0  0  0  0  0  0  0  0  0  0  0  0
    0.6775   -4.9809    4.3850 N   0  0  0  0  0  0  0  0  0  0  0  0
    1.4189   -3.8799    4.5619 C   0  0  0  0  0  0  0  0  0  0  0  0
    1.0326   -2.9255    5.9444 Cl  0  0  0  0  0  0  0  0  0  0  0  0
    2.4053   -3.4343    3.7828 N   0  0  0  0  0  0  0  0  0  0  0  0
    2.6211   -4.2494    2.7094 C   0  0  0  0  0  0  0  0  0  0  0  0
    4.2899   -2.5215   -0.9673 C   0  0  0  0  0  0  0  0  0  0  0  0
    3.1900   -2.5847   -1.8518 C   0  0  0  0  0  0  0  0  0  0  0  0
    3.3459   -3.0528   -3.1697 C   0  0  0  0  0  0  0  0  0  0  0  0
    4.6129   -3.4657   -3.6168 C   0  0  0  0  0  0  0  0  0  0  0  0
    5.7208   -3.3933   -2.7460 C   0  0  0  0  0  0  0  0  0  0  0  0
    5.5641   -2.9221   -1.4269 C   0  0  0  0  0  0  0  0  0  0  0  0
    4.4390    0.0700   -0.0539 H   0  0  0  0  0  0  0  0  0  0  0  0
    5.8735   -0.7375    0.5773 H   0  0  0  0  0  0  0  0  0  0  0  0
    4.5679   -0.2585    1.6617 H   0  0  0  0  0  0  0  0  0  0  0  0
    3.0268   -1.8261    0.6082 H   0  0  0  0  0  0  0  0  0  0  0  0
    5.4845   -3.5077    1.2805 H   0  0  0  0  0  0  0  0  0  0  0  0
    4.6795   -2.5659    2.4958 H   0  0  0  0  0  0  0  0  0  0  0  0
    3.9183   -5.3532   -0.0483 H   0  0  0  0  0  0  0  0  0  0  0  0
   -0.0007   -7.1974    1.0679 H   0  0  0  0  0  0  0  0  0  0  0  0
    0.9953   -8.3160    2.0112 H   0  0  0  0  0  0  0  0  0  0  0  0
   -2.0149   -8.2542    1.6873 H   0  0  0  0  0  0  0  0  0  0  0  0
   -0.9747   -9.6667    1.7704 H   0  0  0  0  0  0  0  0  0  0  0  0
   -2.3975   -8.9167    3.9599 H   0  0  0  0  0  0  0  0  0  0  0  0
   -0.7244   -9.4440    4.1385 H   0  0  0  0  0  0  0  0  0  0  0  0
   -0.4789   -7.3434    5.1563 H   0  0  0  0  0  0  0  0  0  0  0  0
   -1.7665   -6.6100    4.1883 H   0  0  0  0  0  0  0  0  0  0  0  0
    2.2170   -2.2674   -1.5216 H   0  0  0  0  0  0  0  0  0  0  0  0
    2.4901   -3.1044   -3.8276 H   0  0  0  0  0  0  0  0  0  0  0  0
    4.7397   -3.8535   -4.6180 H   0  0  0  0  0  0  0  0  0  0  0  0
    6.6914   -3.7107   -3.0883 H   0  0  0  0  0  0  0  0  0  0  0  0
    6.4260   -2.8791   -0.7726 H   0  0  0  0  0  0  0  0  0  0  0  0
  1  2  1  0
  1 25  1  0
  1 26  1  0
  1 27  1  0
  2  3  1  0
  2 19  1  0
  2 28  1  1
  3  4  1  0
  3 29  1  0
  3 30  1  0
  4 18  1  0
  4  5  1  0
  5  6  2  0
  5 31  1  0
  6  7  1  0
  7 18  2  0
  7  8  1  0
  8  9  1  0
  8 14  2  0
  9 13  1  0
  9 10  1  0
 10 11  1  0
 10 32  1  0
 10 33  1  0
 11 12  1  0
 11 34  1  0
 11 35  1  0
 12 13  1  0
 12 36  1  0
 12 37  1  0
 13 38  1  0
 13 39  1  0
 14 15  1  0
 15 16  1  0
 15 17  2  0
 17 18  1  0
 19 24  1  0
 19 20  2  0
 20 21  1  0
 20 40  1  0
 21 22  2  0
 21 41  1  0
 22 23  1  0
 22 42  1  0
 23 24  2  0
 23 43  1  0
 24 44  1  0
M  END
>  <i_m_ct_stereo_status>  (371) 
1

>  <s_m_source_file>  (371) 
/var/tmp/pbs.5076255.sched01/tmpimq9cq4v/129n8p27m2m.sdf

>  <i_m_source_file_index>  (371) 
37

>  <i_lp_mmshare_version>  (371) 
48012

>  <i_f3d_flags>  (371) 
0

>  <s_epik_input>  (371) 
W2NIXTFbY0hdW2NIXVtjSF1bY0hdYzFbQ0BIXShbQ0gzXSlbQ0gyXW4oW2NIXW4yKWMoYzIzKW5jKENsKW5jM040W0NIMl1bQ0gyXVtDSDJdW0NIMl00

>  <s_epik_cmdline>  (371) 
J2VwaWtfcHl0aG9uJywgJy1waHQnLCAnMi4wJywgJy1waCcsICc3LjAnLCAnLXRuJywgJzgnLCAnLW1hJywgJzIwMCcsICctaW1hZScsICc8aW5maWxlLm1hZT4nLCAnLW9tYWUnLCAnPG91dGZpbGUubWFlPic=

>  <r_lp_tautomer_probability>  (371) 
1

>  <r_epik_Ionization_Penalty>  (371) 
3.26799e-05

>  <r_epik_Ionization_Penalty_Charging>  (371) 
0

>  <r_epik_Ionization_Penalty_Neutral>  (371) 
3.26799e-05

>  <r_epik_State_Penalty>  (371) 
-0

>  <r_epik_Charging_Adjusted_Penalty>  (371) 
0

>  <i_epik_Tot_Q>  (371) 
0

>  <i_epik_Tot_abs_Q>  (371) 
0

>  <s_lp_Force_Field>  (371) 
OPLS3e

>  <r_lp_Energy>  (371) 
17.0853

>  <b_lp_Chiralities_Consistent>  (371) 
1

>  <s_lp_Variant>  (371) 
116:0-1

>  <s_i_glide_gridfile>  (371) 
pfpi4k_grid

>  <i_i_glide_lignum>  (371) 
37

>  <i_i_glide_rotatable_bonds>  (371) 
4

>  <r_i_docking_score>  (371) 
-3.00838

>  <r_i_glide_ligand_efficiency>  (371) 
-0.125349

>  <r_i_glide_ligand_efficiency_sa>  (371) 
-0.36157

>  <r_i_glide_ligand_efficiency_ln>  (371) 
-0.720043

>  <r_i_glide_gscore>  (371) 
-3.00838

>  <r_i_glide_lipo>  (371) 
-0.716011

>  <r_i_glide_hbond>  (371) 
0

>  <r_i_glide_metal>  (371) 
-0

>  <r_i_glide_rewards>  (371) 
-1.09677

>  <r_i_glide_evdw>  (371) 
-29.254

>  <r_i_glide_ecoul>  (371) 
-2.0285

>  <r_i_glide_erotb>  (371) 
0.648849

>  <r_i_glide_esite>  (371) 
-0.0774733

>  <r_i_glide_emodel>  (371) 
-36.0612

>  <r_i_glide_energy>  (371) 
-31.2825

>  <r_i_glide_einternal>  (371) 
2.21564

>  <r_i_glide_intrahb_reward>  (371) 
-0

>  <i_i_glide_confnum>  (371) 
4

>  <i_i_glide_posenum>  (371) 
1

>  <r_i_glide_eff_state_penalty>  (371) 
0

>  <ligand_id>  (371) 
116

>  <original_smiles>  (371) 
CC(Cn1cnc2c(N3CCCC3)nc(Cl)nc21)c1ccccc1

>  <smiles>  (371) 
[H]c1c([H])c([H])c(C([H])(C([H])([H])[H])C([H])([H])n2c([H])nc3c(N4C([H])([H])C([H])([H])C([H])([H])C4([H])[H])nc(Cl)nc32)c([H])c1[H]

$$$$
116:0:1
     RDKit          3D

 44 47  0  0  1  0  0  0  0  0999 V2000
    1.1454    2.9850    4.5621 C   0  0  0  0  0  0  0  0  0  0  0  0
    0.4622    1.7041    5.0922 C   0  0  2  0  0  0  0  0  0  0  0  0
   -0.1186    0.7940    3.9730 C   0  0  0  0  0  0  0  0  0  0  0  0
    0.8859    0.3560    3.0108 N   0  0  0  0  0  0  0  0  0  0  0  0
    1.4938    1.1282    2.0400 C   0  0  0  0  0  0  0  0  0  0  0  0
    2.4193    0.5253    1.3510 N   0  0  0  0  0  0  0  0  0  0  0  0
    2.3708   -0.7858    1.7905 C   0  0  0  0  0  0  0  0  0  0  0  0
    3.0508   -1.9739    1.4149 C   0  0  0  0  0  0  0  0  0  0  0  0
    3.9771   -2.0292    0.4190 N   0  0  0  0  0  0  0  0  0  0  0  0
    4.1773   -0.9815   -0.5720 C   0  0  0  0  0  0  0  0  0  0  0  0
    5.1327   -1.5788   -1.6047 C   0  0  0  0  0  0  0  0  0  0  0  0
    5.8996   -2.6477   -0.8196 C   0  0  0  0  0  0  0  0  0  0  0  0
    4.8872   -3.1437    0.2183 C   0  0  0  0  0  0  0  0  0  0  0  0
    2.7493   -3.1144    2.0893 N   0  0  0  0  0  0  0  0  0  0  0  0
    1.8376   -3.0992    3.0742 C   0  0  0  0  0  0  0  0  0  0  0  0
    1.5168   -4.6135    3.8329 Cl  0  0  0  0  0  0  0  0  0  0  0  0
    1.1315   -2.0534    3.5191 N   0  0  0  0  0  0  0  0  0  0  0  0
    1.4221   -0.9096    2.8393 C   0  0  0  0  0  0  0  0  0  0  0  0
   -0.5877    2.0486    6.1433 C   0  0  0  0  0  0  0  0  0  0  0  0
   -0.3102    1.8322    7.5089 C   0  0  0  0  0  0  0  0  0  0  0  0
   -1.2625    2.1582    8.4915 C   0  0  0  0  0  0  0  0  0  0  0  0
   -2.5011    2.7054    8.1146 C   0  0  0  0  0  0  0  0  0  0  0  0
   -2.7808    2.9312    6.7563 C   0  0  0  0  0  0  0  0  0  0  0  0
   -1.8288    2.6086    5.7741 C   0  0  0  0  0  0  0  0  0  0  0  0
    1.5091    3.6100    5.3794 H   0  0  0  0  0  0  0  0  0  0  0  0
    0.4508    3.5821    3.9708 H   0  0  0  0  0  0  0  0  0  0  0  0
    2.0117    2.7628    3.9388 H   0  0  0  0  0  0  0  0  0  0  0  0
    1.2410    1.1202    5.5888 H   0  0  0  0  0  0  0  0  0  0  0  0
   -0.5899   -0.0909    4.4116 H   0  0  0  0  0  0  0  0  0  0  0  0
   -0.8956    1.3104    3.4087 H   0  0  0  0  0  0  0  0  0  0  0  0
    1.2461    2.1682    1.8739 H   0  0  0  0  0  0  0  0  0  0  0  0
    3.2345   -0.6830   -1.0299 H   0  0  0  0  0  0  0  0  0  0  0  0
    4.6214   -0.1096   -0.0910 H   0  0  0  0  0  0  0  0  0  0  0  0
    4.5592   -2.0502   -2.4043 H   0  0  0  0  0  0  0  0  0  0  0  0
    5.7789   -0.8247   -2.0557 H   0  0  0  0  0  0  0  0  0  0  0  0
    6.2794   -3.4468   -1.4580 H   0  0  0  0  0  0  0  0  0  0  0  0
    6.7506   -2.1862   -0.3151 H   0  0  0  0  0  0  0  0  0  0  0  0
    5.3780   -3.4278    1.1480 H   0  0  0  0  0  0  0  0  0  0  0  0
    4.3308   -4.0017   -0.1568 H   0  0  0  0  0  0  0  0  0  0  0  0
    0.6426    1.4266    7.8083 H   0  0  0  0  0  0  0  0  0  0  0  0
   -1.0384    1.9935    9.5343 H   0  0  0  0  0  0  0  0  0  0  0  0
   -3.2301    2.9504    8.8693 H   0  0  0  0  0  0  0  0  0  0  0  0
   -3.7311    3.3407    6.4593 H   0  0  0  0  0  0  0  0  0  0  0  0
   -2.0572    2.7965    4.7372 H   0  0  0  0  0  0  0  0  0  0  0  0
  1  2  1  0
  1 25  1  0
  1 26  1  0
  1 27  1  0
  2  3  1  0
  2 19  1  0
  2 28  1  1
  3  4  1  0
  3 29  1  0
  3 30  1  0
  4 18  1  0
  4  5  1  0
  5  6  2  0
  5 31  1  0
  6  7  1  0
  7 18  2  0
  7  8  1  0
  8  9  1  0
  8 14  2  0
  9 13  1  0
  9 10  1  0
 10 11  1  0
 10 32  1  0
 10 33  1  0
 11 12  1  0
 11 34  1  0
 11 35  1  0
 12 13  1  0
 12 36  1  0
 12 37  1  0
 13 38  1  0
 13 39  1  0
 14 15  1  0
 15 16  1  0
 15 17  2  0
 17 18  1  0
 19 24  1  0
 19 20  2  0
 20 21  1  0
 20 40  1  0
 21 22  2  0
 21 41  1  0
 22 23  1  0
 22 42  1  0
 23 24  2  0
 23 43  1  0
 24 44  1  0
M  END
>  <i_m_ct_stereo_status>  (372) 
1

>  <s_m_source_file>  (372) 
/var/tmp/pbs.5076255.sched01/tmpimq9cq4v/129n8p27m2m.sdf

>  <i_m_source_file_index>  (372) 
37

>  <i_lp_mmshare_version>  (372) 
48012

>  <i_f3d_flags>  (372) 
0

>  <s_epik_input>  (372) 
W2NIXTFbY0hdW2NIXVtjSF1bY0hdYzFbQ0BIXShbQ0gzXSlbQ0gyXW4oW2NIXW4yKWMoYzIzKW5jKENsKW5jM040W0NIMl1bQ0gyXVtDSDJdW0NIMl00

>  <s_epik_cmdline>  (372) 
J2VwaWtfcHl0aG9uJywgJy1waHQnLCAnMi4wJywgJy1waCcsICc3LjAnLCAnLXRuJywgJzgnLCAnLW1hJywgJzIwMCcsICctaW1hZScsICc8aW5maWxlLm1hZT4nLCAnLW9tYWUnLCAnPG91dGZpbGUubWFlPic=

>  <r_lp_tautomer_probability>  (372) 
1

>  <r_epik_Ionization_Penalty>  (372) 
3.26799e-05

>  <r_epik_Ionization_Penalty_Charging>  (372) 
0

>  <r_epik_Ionization_Penalty_Neutral>  (372) 
3.26799e-05

>  <r_epik_State_Penalty>  (372) 
-0

>  <r_epik_Charging_Adjusted_Penalty>  (372) 
0

>  <i_epik_Tot_Q>  (372) 
0

>  <i_epik_Tot_abs_Q>  (372) 
0

>  <s_lp_Force_Field>  (372) 
OPLS3e

>  <r_lp_Energy>  (372) 
17.0853

>  <b_lp_Chiralities_Consistent>  (372) 
1

>  <s_lp_Variant>  (372) 
116:0-1

>  <s_i_glide_gridfile>  (372) 
pfpi4k_grid

>  <i_i_glide_lignum>  (372) 
37

>  <i_i_glide_rotatable_bonds>  (372) 
4

>  <r_i_docking_score>  (372) 
-2.31656

>  <r_i_glide_ligand_efficiency>  (372) 
-0.0965233

>  <r_i_glide_ligand_efficiency_sa>  (372) 
-0.278421

>  <r_i_glide_ligand_efficiency_ln>  (372) 
-0.554459

>  <r_i_glide_gscore>  (372) 
-2.31656

>  <r_i_glide_lipo>  (372) 
-0.324165

>  <r_i_glide_hbond>  (372) 
0

>  <r_i_glide_metal>  (372) 
-0

>  <r_i_glide_rewards>  (372) 
-1.08926

>  <r_i_glide_evdw>  (372) 
-24.2016

>  <r_i_glide_ecoul>  (372) 
-1.57391

>  <r_i_glide_erotb>  (372) 
0.648849

>  <r_i_glide_esite>  (372) 
-0.105818

>  <r_i_glide_emodel>  (372) 
-29.9166

>  <r_i_glide_energy>  (372) 
-25.7755

>  <r_i_glide_einternal>  (372) 
0.479942

>  <r_i_glide_intrahb_reward>  (372) 
-0

>  <i_i_glide_confnum>  (372) 
5

>  <i_i_glide_posenum>  (372) 
10

>  <r_i_glide_eff_state_penalty>  (372) 
0

>  <ligand_id>  (372) 
116

>  <original_smiles>  (372) 
CC(Cn1cnc2c(N3CCCC3)nc(Cl)nc21)c1ccccc1

>  <smiles>  (372) 
[H]c1c([H])c([H])c(C([H])(C([H])([H])[H])C([H])([H])n2c([H])nc3c(N4C([H])([H])C([H])([H])C([H])([H])C4([H])[H])nc(Cl)nc32)c([H])c1[H]

$$$$
116:0:2
     RDKit          3D

 44 47  0  0  1  0  0  0  0  0999 V2000
    2.9613   -8.9103    1.3232 C   0  0  0  0  0  0  0  0  0  0  0  0
    2.3473   -7.5743    1.7667 C   0  0  2  0  0  0  0  0  0  0  0  0
    3.3841   -6.6936    2.4984 C   0  0  0  0  0  0  0  0  0  0  0  0
    2.9305   -5.3205    2.6314 N   0  0  0  0  0  0  0  0  0  0  0  0
    2.0868   -4.8262    3.6030 C   0  0  0  0  0  0  0  0  0  0  0  0
    1.8208   -3.5543    3.5034 N   0  0  0  0  0  0  0  0  0  0  0  0
    2.5376   -3.1330    2.3902 C   0  0  0  0  0  0  0  0  0  0  0  0
    2.7012   -1.8880    1.7214 C   0  0  0  0  0  0  0  0  0  0  0  0
    2.0973   -0.7323    2.1056 N   0  0  0  0  0  0  0  0  0  0  0  0
    1.1587   -0.6298    3.2119 C   0  0  0  0  0  0  0  0  0  0  0  0
    0.5600    0.7723    3.1108 C   0  0  0  0  0  0  0  0  0  0  0  0
    1.6328    1.5791    2.3740 C   0  0  0  0  0  0  0  0  0  0  0  0
    2.2992    0.5520    1.4523 C   0  0  0  0  0  0  0  0  0  0  0  0
    3.5201   -1.8668    0.6358 N   0  0  0  0  0  0  0  0  0  0  0  0
    4.1260   -2.9758    0.2019 C   0  0  0  0  0  0  0  0  0  0  0  0
    5.1202   -2.8049   -1.1983 Cl  0  0  0  0  0  0  0  0  0  0  0  0
    4.0505   -4.2011    0.7321 N   0  0  0  0  0  0  0  0  0  0  0  0
    3.2439   -4.2339    1.8300 C   0  0  0  0  0  0  0  0  0  0  0  0
    1.0758   -7.7975    2.5807 C   0  0  0  0  0  0  0  0  0  0  0  0
    1.1435   -8.3308    3.8895 C   0  0  0  0  0  0  0  0  0  0  0  0
   -0.0331   -8.5492    4.6323 C   0  0  0  0  0  0  0  0  0  0  0  0
   -1.2874   -8.2502    4.0694 C   0  0  0  0  0  0  0  0  0  0  0  0
   -1.3649   -7.7241    2.7652 C   0  0  0  0  0  0  0  0  0  0  0  0
   -0.1873   -7.4956    2.0218 C   0  0  0  0  0  0  0  0  0  0  0  0
    2.2319   -9.5095    0.7787 H   0  0  0  0  0  0  0  0  0  0  0  0
    3.2982   -9.5055    2.1728 H   0  0  0  0  0  0  0  0  0  0  0  0
    3.8178   -8.7572    0.6648 H   0  0  0  0  0  0  0  0  0  0  0  0
    2.0659   -7.0333    0.8613 H   0  0  0  0  0  0  0  0  0  0  0  0
    3.6062   -7.0730    3.4936 H   0  0  0  0  0  0  0  0  0  0  0  0
    4.3366   -6.6916    1.9645 H   0  0  0  0  0  0  0  0  0  0  0  0
    1.6642   -5.4360    4.3885 H   0  0  0  0  0  0  0  0  0  0  0  0
    0.3786   -1.3864    3.1548 H   0  0  0  0  0  0  0  0  0  0  0  0
    1.7055   -0.7564    4.1455 H   0  0  0  0  0  0  0  0  0  0  0  0
   -0.3532    0.7399    2.5132 H   0  0  0  0  0  0  0  0  0  0  0  0
    0.3077    1.1875    4.0883 H   0  0  0  0  0  0  0  0  0  0  0  0
    1.2173    2.4303    1.8312 H   0  0  0  0  0  0  0  0  0  0  0  0
    2.3612    1.9587    3.0917 H   0  0  0  0  0  0  0  0  0  0  0  0
    3.3569    0.7780    1.3061 H   0  0  0  0  0  0  0  0  0  0  0  0
    1.8079    0.5451    0.4845 H   0  0  0  0  0  0  0  0  0  0  0  0
    2.0926   -8.5907    4.3326 H   0  0  0  0  0  0  0  0  0  0  0  0
    0.0179   -8.9704    5.6251 H   0  0  0  0  0  0  0  0  0  0  0  0
   -2.1851   -8.4620    4.6308 H   0  0  0  0  0  0  0  0  0  0  0  0
   -2.3319   -7.5263    2.3309 H   0  0  0  0  0  0  0  0  0  0  0  0
   -0.2547   -7.1247    1.0099 H   0  0  0  0  0  0  0  0  0  0  0  0
  1  2  1  0
  1 25  1  0
  1 26  1  0
  1 27  1  0
  2  3  1  0
  2 19  1  0
  2 28  1  6
  3  4  1  0
  3 29  1  0
  3 30  1  0
  4 18  1  0
  4  5  1  0
  5  6  2  0
  5 31  1  0
  6  7  1  0
  7 18  2  0
  7  8  1  0
  8  9  1  0
  8 14  2  0
  9 13  1  0
  9 10  1  0
 10 11  1  0
 10 32  1  0
 10 33  1  0
 11 12  1  0
 11 34  1  0
 11 35  1  0
 12 13  1  0
 12 36  1  0
 12 37  1  0
 13 38  1  0
 13 39  1  0
 14 15  1  0
 15 16  1  0
 15 17  2  0
 17 18  1  0
 19 24  1  0
 19 20  2  0
 20 21  1  0
 20 40  1  0
 21 22  2  0
 21 41  1  0
 22 23  1  0
 22 42  1  0
 23 24  2  0
 23 43  1  0
 24 44  1  0
M  END
>  <i_m_ct_stereo_status>  (373) 
1

>  <s_m_source_file>  (373) 
/var/tmp/pbs.5076255.sched01/tmpimq9cq4v/129n8p27m2m.sdf

>  <i_m_source_file_index>  (373) 
37

>  <i_lp_mmshare_version>  (373) 
48012

>  <i_f3d_flags>  (373) 
0

>  <s_epik_input>  (373) 
W2NIXTFbY0hdW2NIXVtjSF1bY0hdYzFbQ0BIXShbQ0gzXSlbQ0gyXW4oW2NIXW4yKWMoYzIzKW5jKENsKW5jM040W0NIMl1bQ0gyXVtDSDJdW0NIMl00

>  <s_epik_cmdline>  (373) 
J2VwaWtfcHl0aG9uJywgJy1waHQnLCAnMi4wJywgJy1waCcsICc3LjAnLCAnLXRuJywgJzgnLCAnLW1hJywgJzIwMCcsICctaW1hZScsICc8aW5maWxlLm1hZT4nLCAnLW9tYWUnLCAnPG91dGZpbGUubWFlPic=

>  <r_lp_tautomer_probability>  (373) 
1

>  <r_epik_Ionization_Penalty>  (373) 
3.26799e-05

>  <r_epik_Ionization_Penalty_Charging>  (373) 
0

>  <r_epik_Ionization_Penalty_Neutral>  (373) 
3.26799e-05

>  <r_epik_State_Penalty>  (373) 
-0

>  <r_epik_Charging_Adjusted_Penalty>  (373) 
0

>  <i_epik_Tot_Q>  (373) 
0

>  <i_epik_Tot_abs_Q>  (373) 
0

>  <s_lp_Force_Field>  (373) 
OPLS3e

>  <r_lp_Energy>  (373) 
17.0853

>  <b_lp_Chiralities_Consistent>  (373) 
1

>  <s_lp_Variant>  (373) 
116:0-1

>  <s_i_glide_gridfile>  (373) 
pfpi4k_grid

>  <i_i_glide_lignum>  (373) 
37

>  <i_i_glide_rotatable_bonds>  (373) 
4

>  <r_i_docking_score>  (373) 
-1.72426

>  <r_i_glide_ligand_efficiency>  (373) 
-0.071844

>  <r_i_glide_ligand_efficiency_sa>  (373) 
-0.207234

>  <r_i_glide_ligand_efficiency_ln>  (373) 
-0.412694

>  <r_i_glide_gscore>  (373) 
-1.72426

>  <r_i_glide_lipo>  (373) 
-0.00172932

>  <r_i_glide_hbond>  (373) 
0

>  <r_i_glide_metal>  (373) 
-0

>  <r_i_glide_rewards>  (373) 
-1.08341

>  <r_i_glide_evdw>  (373) 
-27.4654

>  <r_i_glide_ecoul>  (373) 
0.894417

>  <r_i_glide_erotb>  (373) 
0.648849

>  <r_i_glide_esite>  (373) 
-0.0488579

>  <r_i_glide_emodel>  (373) 
-29.2211

>  <r_i_glide_energy>  (373) 
-26.571

>  <r_i_glide_einternal>  (373) 
1.37288

>  <r_i_glide_intrahb_reward>  (373) 
-0

>  <i_i_glide_confnum>  (373) 
3

>  <i_i_glide_posenum>  (373) 
3

>  <r_i_glide_eff_state_penalty>  (373) 
0

>  <ligand_id>  (373) 
116

>  <original_smiles>  (373) 
CC(Cn1cnc2c(N3CCCC3)nc(Cl)nc21)c1ccccc1

>  <smiles>  (373) 
[H]c1c([H])c([H])c(C([H])(C([H])([H])[H])C([H])([H])n2c([H])nc3c(N4C([H])([H])C([H])([H])C([H])([H])C4([H])[H])nc(Cl)nc32)c([H])c1[H]

$$$$
117:0:0
     RDKit          3D

 38 41  0  0  1  0  0  0  0  0999 V2000
    4.3809   -0.0919   -3.0946 C   0  0  0  0  0  0  0  0  0  0  0  0
    3.7094   -1.3453   -2.7731 N   0  0  0  0  0  0  0  0  0  0  0  0
    3.2571   -2.1904   -3.7739 C   0  0  0  0  0  0  0  0  0  0  0  0
    2.6568   -3.3115   -3.2857 C   0  0  0  0  0  0  0  0  0  0  0  0
    2.6713   -3.3293   -1.5452 S   0  0  0  0  0  0  0  0  0  0  0  0
    3.4889   -1.7835   -1.5163 C   0  0  0  0  0  0  0  0  0  0  0  0
    3.8683   -1.0492   -0.4533 N   0  0  0  0  0  0  0  0  0  0  0  0
    3.7764   -1.4665    0.9499 C   0  0  2  0  0  0  0  0  0  0  0  0
    4.6668   -2.7112    1.2139 C   0  0  0  0  0  0  0  0  0  0  0  0
    4.6091   -3.1010    2.7010 C   0  0  1  0  0  0  0  0  0  0  0  0
    5.1424   -1.9400    3.5567 C   0  0  0  0  0  0  0  0  0  0  0  0
    4.2565   -0.7007    3.3344 C   0  0  2  0  0  0  0  0  0  0  0  0
    2.8031   -1.0054    3.7478 C   0  0  0  0  0  0  0  0  0  0  0  0
    2.2816   -2.1676    2.8913 C   0  0  2  0  0  0  0  0  0  0  0  0
    3.1553   -3.4197    3.1069 C   0  0  0  0  0  0  0  0  0  0  0  0
    2.3153   -1.7558    1.4146 C   0  0  0  0  0  0  0  0  0  0  0  0
    4.3049   -0.3062    1.8440 C   0  0  0  0  0  0  0  0  0  0  0  0
    4.4546    0.0093   -4.1823 H   0  0  0  0  0  0  0  0  0  0  0  0
    5.3714   -0.1112   -2.6409 H   0  0  0  0  0  0  0  0  0  0  0  0
    3.8162    0.7526   -2.7243 H   0  0  0  0  0  0  0  0  0  0  0  0
    3.4050   -1.8781   -4.7855 H   0  0  0  0  0  0  0  0  0  0  0  0
    2.2183   -4.1237   -3.8514 H   0  0  0  0  0  0  0  0  0  0  0  0
    4.3511   -3.5729    0.6247 H   0  0  0  0  0  0  0  0  0  0  0  0
    5.6997   -2.5054    0.9193 H   0  0  0  0  0  0  0  0  0  0  0  0
    5.2288   -3.9826    2.8615 H   0  0  0  0  0  0  0  0  0  0  0  0
    5.1663   -2.2159    4.6105 H   0  0  0  0  0  0  0  0  0  0  0  0
    6.1644   -1.7066    3.2619 H   0  0  0  0  0  0  0  0  0  0  0  0
    4.6330    0.1205    3.9442 H   0  0  0  0  0  0  0  0  0  0  0  0
    2.7404   -1.2560    4.8058 H   0  0  0  0  0  0  0  0  0  0  0  0
    2.1815   -0.1212    3.5974 H   0  0  0  0  0  0  0  0  0  0  0  0
    1.2527   -2.3912    3.1721 H   0  0  0  0  0  0  0  0  0  0  0  0
    2.7737   -4.2534    2.5180 H   0  0  0  0  0  0  0  0  0  0  0  0
    3.1109   -3.7316    4.1501 H   0  0  0  0  0  0  0  0  0  0  0  0
    1.6876   -0.8688    1.2903 H   0  0  0  0  0  0  0  0  0  0  0  0
    1.8418   -2.5622    0.8598 H   0  0  0  0  0  0  0  0  0  0  0  0
    5.3301   -0.0450    1.5719 H   0  0  0  0  0  0  0  0  0  0  0  0
    3.7100    0.5986    1.6945 H   0  0  0  0  0  0  0  0  0  0  0  0
    4.2034   -0.1085   -0.6186 H   0  0  0  0  0  0  0  0  0  0  0  0
  1  2  1  0
  1 18  1  0
  1 19  1  0
  1 20  1  0
  2  6  2  0
  2  3  1  0
  3  4  2  0
  3 21  1  0
  4  5  1  0
  4 22  1  0
  5  6  1  0
  6  7  1  0
  8  7  1  6
  7 38  1  0
  8 16  1  0
  8 17  1  0
  8  9  1  0
  9 10  1  0
  9 23  1  0
  9 24  1  0
 10 15  1  0
 10 11  1  0
 10 25  1  6
 11 12  1  0
 11 26  1  0
 11 27  1  0
 12 13  1  0
 12 17  1  0
 12 28  1  1
 13 14  1  0
 13 29  1  0
 13 30  1  0
 14 15  1  0
 14 16  1  0
 14 31  1  1
 15 32  1  0
 15 33  1  0
 16 34  1  0
 16 35  1  0
 17 36  1  0
 17 37  1  0
M  CHG  1   2   1
M  END
>  <i_m_ct_stereo_status>  (374) 
1

>  <s_m_source_file>  (374) 
/var/tmp/pbs.5076255.sched01/tmpimq9cq4v/129n8p27m2m.sdf

>  <i_m_source_file_index>  (374) 
38

>  <i_lp_mmshare_version>  (374) 
48012

>  <i_f3d_flags>  (374) 
0

>  <s_epik_input>  (374) 
W0NIM11uMVtjSF1bY0hdc2NcMT1OL0MyM1tDSDJdW0NAQEhdNFtDSDJdW0NASF0oW0NIMl0zKVtDSDJdW0NAQEhdKFtDSDJdNClbQ0gyXTI=

>  <s_epik_cmdline>  (374) 
J2VwaWtfcHl0aG9uJywgJy1waHQnLCAnMi4wJywgJy1waCcsICc3LjAnLCAnLXRuJywgJzgnLCAnLW1hJywgJzIwMCcsICctaW1hZScsICc8aW5maWxlLm1hZT4nLCAnLW9tYWUnLCAnPG91dGZpbGUubWFlPic=

>  <r_lp_tautomer_probability>  (374) 
1

>  <r_epik_Ionization_Penalty>  (374) 
0.000950296

>  <r_epik_Ionization_Penalty_Charging>  (374) 
0

>  <r_epik_Ionization_Penalty_Neutral>  (374) 
0.000950296

>  <r_epik_State_Penalty>  (374) 
0.000617231

>  <r_epik_Charging_Adjusted_Penalty>  (374) 
0.000617231

>  <i_epik_Tot_Q>  (374) 
1

>  <i_epik_Tot_abs_Q>  (374) 
1

>  <s_lp_Force_Field>  (374) 
OPLS3e

>  <r_lp_Energy>  (374) 
7.16174

>  <b_lp_Chiralities_Consistent>  (374) 
1

>  <s_lp_Variant>  (374) 
117:0-1

>  <s_i_glide_gridfile>  (374) 
pfpi4k_grid

>  <i_i_glide_lignum>  (374) 
38

>  <i_i_glide_rotatable_bonds>  (374) 
2

>  <r_i_docking_score>  (374) 
-3.46272

>  <r_i_glide_ligand_efficiency>  (374) 
-0.203689

>  <r_i_glide_ligand_efficiency_sa>  (374) 
-0.523742

>  <r_i_glide_ligand_efficiency_ln>  (374) 
-0.903346

>  <r_i_glide_gscore>  (374) 
-3.46272

>  <r_i_glide_lipo>  (374) 
-0.803166

>  <r_i_glide_hbond>  (374) 
0

>  <r_i_glide_metal>  (374) 
-0

>  <r_i_glide_rewards>  (374) 
-1.70866

>  <r_i_glide_evdw>  (374) 
-14.0022

>  <r_i_glide_ecoul>  (374) 
-4.842

>  <r_i_glide_erotb>  (374) 
0.562327

>  <r_i_glide_esite>  (374) 
-0.0868052

>  <r_i_glide_emodel>  (374) 
-24.6141

>  <r_i_glide_energy>  (374) 
-18.8442

>  <r_i_glide_einternal>  (374) 
0.30438

>  <r_i_glide_intrahb_reward>  (374) 
-0

>  <i_i_glide_confnum>  (374) 
3

>  <i_i_glide_posenum>  (374) 
1

>  <r_i_glide_eff_state_penalty>  (374) 
0

>  <ligand_id>  (374) 
117

>  <original_smiles>  (374) 
Cn1ccsc1=NC12CC3CC(CC(C3)C1)C2

>  <smiles>  (374) 
[H]c1sc(N([H])C23C([H])([H])C4([H])C([H])([H])C([H])(C([H])([H])C([H])(C4([H])[H])C2([H])[H])C3([H])[H])[n+](C([H])([H])[H])c1[H]

$$$$
117:0:1
     RDKit          3D

 38 41  0  0  1  0  0  0  0  0999 V2000
    3.2131   -2.0804   -2.3171 C   0  0  0  0  0  0  0  0  0  0  0  0
    4.3087   -2.1569   -1.3544 N   0  0  0  0  0  0  0  0  0  0  0  0
    5.5612   -2.6980   -1.7289 C   0  0  0  0  0  0  0  0  0  0  0  0
    6.4467   -2.6970   -0.7164 C   0  0  0  0  0  0  0  0  0  0  0  0
    5.7504   -2.0193    0.7033 S   0  0  0  0  0  0  0  0  0  0  0  0
    4.2027   -1.7499   -0.0821 C   0  0  0  0  0  0  0  0  0  0  0  0
    3.0348   -1.2310    0.4241 N   0  0  0  0  0  0  0  0  0  0  0  0
    2.7544   -0.7503    1.8098 C   0  0  2  0  0  0  0  0  0  0  0  0
    1.5479   -1.5397    2.3800 C   0  0  0  0  0  0  0  0  0  0  0  0
    1.2175   -1.0526    3.8198 C   0  0  1  0  0  0  0  0  0  0  0  0
    2.4350   -1.2618    4.7389 C   0  0  0  0  0  0  0  0  0  0  0  0
    3.5987   -0.4238    4.2063 C   0  0  2  0  0  0  0  0  0  0  0  0
    3.2621    1.0676    4.1303 C   0  0  0  0  0  0  0  0  0  0  0  0
    2.0410    1.2513    3.2115 C   0  0  2  0  0  0  0  0  0  0  0  0
    0.8537    0.4457    3.7803 C   0  0  0  0  0  0  0  0  0  0  0  0
    2.3661    0.7495    1.7735 C   0  0  0  0  0  0  0  0  0  0  0  0
    3.9290   -0.9032    2.8127 C   0  0  0  0  0  0  0  0  0  0  0  0
    3.5200   -2.4763   -3.2863 H   0  0  0  0  0  0  0  0  0  0  0  0
    2.9020   -1.0355   -2.4411 H   0  0  0  0  0  0  0  0  0  0  0  0
    2.3583   -2.6646   -1.9536 H   0  0  0  0  0  0  0  0  0  0  0  0
    5.6936   -3.0641   -2.7317 H   0  0  0  0  0  0  0  0  0  0  0  0
    7.4755   -3.0671   -0.6956 H   0  0  0  0  0  0  0  0  0  0  0  0
    0.6679   -1.4047    1.7382 H   0  0  0  0  0  0  0  0  0  0  0  0
    1.7598   -2.6130    2.3892 H   0  0  0  0  0  0  0  0  0  0  0  0
    0.3745   -1.6244    4.2001 H   0  0  0  0  0  0  0  0  0  0  0  0
    2.2112   -0.9830    5.7699 H   0  0  0  0  0  0  0  0  0  0  0  0
    2.7106   -2.3155    4.7539 H   0  0  0  0  0  0  0  0  0  0  0  0
    4.4784   -0.5735    4.8297 H   0  0  0  0  0  0  0  0  0  0  0  0
    3.0719    1.4686    5.1277 H   0  0  0  0  0  0  0  0  0  0  0  0
    4.1112    1.6201    3.7299 H   0  0  0  0  0  0  0  0  0  0  0  0
    1.7805    2.3064    3.1706 H   0  0  0  0  0  0  0  0  0  0  0  0
   -0.0373    0.6085    3.1735 H   0  0  0  0  0  0  0  0  0  0  0  0
    0.6225    0.7959    4.7843 H   0  0  0  0  0  0  0  0  0  0  0  0
    3.1766    1.3423    1.3481 H   0  0  0  0  0  0  0  0  0  0  0  0
    1.4937    0.9109    1.1253 H   0  0  0  0  0  0  0  0  0  0  0  0
    4.2178   -1.9504    2.9110 H   0  0  0  0  0  0  0  0  0  0  0  0
    4.7831   -0.3045    2.4926 H   0  0  0  0  0  0  0  0  0  0  0  0
    2.2075   -1.1192   -0.1975 H   0  0  0  0  0  0  0  0  0  0  0  0
  1  2  1  0
  1 18  1  0
  1 19  1  0
  1 20  1  0
  2  6  2  0
  2  3  1  0
  3  4  2  0
  3 21  1  0
  4  5  1  0
  4 22  1  0
  5  6  1  0
  6  7  1  0
  8  7  1  6
  7 38  1  0
  8 16  1  0
  8 17  1  0
  8  9  1  0
  9 10  1  0
  9 23  1  0
  9 24  1  0
 10 15  1  0
 10 11  1  0
 10 25  1  1
 11 12  1  0
 11 26  1  0
 11 27  1  0
 12 13  1  0
 12 17  1  0
 12 28  1  1
 13 14  1  0
 13 29  1  0
 13 30  1  0
 14 15  1  0
 14 16  1  0
 14 31  1  6
 15 32  1  0
 15 33  1  0
 16 34  1  0
 16 35  1  0
 17 36  1  0
 17 37  1  0
M  CHG  1   2   1
M  END
>  <i_m_ct_stereo_status>  (375) 
1

>  <s_m_source_file>  (375) 
/var/tmp/pbs.5076255.sched01/tmpimq9cq4v/129n8p27m2m.sdf

>  <i_m_source_file_index>  (375) 
38

>  <i_lp_mmshare_version>  (375) 
48012

>  <i_f3d_flags>  (375) 
0

>  <s_epik_input>  (375) 
W0NIM11uMVtjSF1bY0hdc2NcMT1OL0MyM1tDSDJdW0NAQEhdNFtDSDJdW0NASF0oW0NIMl0zKVtDSDJdW0NAQEhdKFtDSDJdNClbQ0gyXTI=

>  <s_epik_cmdline>  (375) 
J2VwaWtfcHl0aG9uJywgJy1waHQnLCAnMi4wJywgJy1waCcsICc3LjAnLCAnLXRuJywgJzgnLCAnLW1hJywgJzIwMCcsICctaW1hZScsICc8aW5maWxlLm1hZT4nLCAnLW9tYWUnLCAnPG91dGZpbGUubWFlPic=

>  <r_lp_tautomer_probability>  (375) 
1

>  <r_epik_Ionization_Penalty>  (375) 
0.000950296

>  <r_epik_Ionization_Penalty_Charging>  (375) 
0

>  <r_epik_Ionization_Penalty_Neutral>  (375) 
0.000950296

>  <r_epik_State_Penalty>  (375) 
0.000617231

>  <r_epik_Charging_Adjusted_Penalty>  (375) 
0.000617231

>  <i_epik_Tot_Q>  (375) 
1

>  <i_epik_Tot_abs_Q>  (375) 
1

>  <s_lp_Force_Field>  (375) 
OPLS3e

>  <r_lp_Energy>  (375) 
7.16174

>  <b_lp_Chiralities_Consistent>  (375) 
1

>  <s_lp_Variant>  (375) 
117:0-1

>  <s_i_glide_gridfile>  (375) 
pfpi4k_grid

>  <i_i_glide_lignum>  (375) 
38

>  <i_i_glide_rotatable_bonds>  (375) 
2

>  <r_i_docking_score>  (375) 
-3.39114

>  <r_i_glide_ligand_efficiency>  (375) 
-0.199479

>  <r_i_glide_ligand_efficiency_sa>  (375) 
-0.512916

>  <r_i_glide_ligand_efficiency_ln>  (375) 
-0.884673

>  <r_i_glide_gscore>  (375) 
-3.39114

>  <r_i_glide_lipo>  (375) 
-0.0989165

>  <r_i_glide_hbond>  (375) 
-0.16

>  <r_i_glide_metal>  (375) 
-0

>  <r_i_glide_rewards>  (375) 
-1.70866

>  <r_i_glide_evdw>  (375) 
-15.9879

>  <r_i_glide_ecoul>  (375) 
-7.14529

>  <r_i_glide_erotb>  (375) 
0.562327

>  <r_i_glide_esite>  (375) 
-0.114697

>  <r_i_glide_emodel>  (375) 
-22.0054

>  <r_i_glide_energy>  (375) 
-23.1332

>  <r_i_glide_einternal>  (375) 
12.1959

>  <r_i_glide_intrahb_reward>  (375) 
-0

>  <i_i_glide_confnum>  (375) 
3

>  <i_i_glide_posenum>  (375) 
34

>  <r_i_glide_eff_state_penalty>  (375) 
0

>  <ligand_id>  (375) 
117

>  <original_smiles>  (375) 
Cn1ccsc1=NC12CC3CC(CC(C3)C1)C2

>  <smiles>  (375) 
[H]c1sc(N([H])C23C([H])([H])C4([H])C([H])([H])C([H])(C([H])([H])C([H])(C4([H])[H])C2([H])[H])C3([H])[H])[n+](C([H])([H])[H])c1[H]

$$$$
117:0:2
     RDKit          3D

 38 41  0  0  1  0  0  0  0  0999 V2000
    3.9498    0.4908   -3.5479 C   0  0  0  0  0  0  0  0  0  0  0  0
    3.3762   -0.8006   -3.3300 N   0  0  0  0  0  0  0  0  0  0  0  0
    2.5768   -1.3164   -4.2989 C   0  0  0  0  0  0  0  0  0  0  0  0
    2.1731   -2.6136   -3.9530 C   0  0  0  0  0  0  0  0  0  0  0  0
    2.7149   -3.0717   -2.4050 S   0  0  0  0  0  0  0  0  0  0  0  0
    3.6087   -1.5839   -2.2960 C   0  0  0  0  0  0  0  0  0  0  0  0
    4.4016   -1.1371   -1.3035 N   0  0  0  0  0  0  0  0  0  0  0  0
    5.0906   -2.0307   -0.3569 C   0  0  2  0  0  0  0  0  0  0  0  0
    4.0970   -2.8570    0.5081 C   0  0  0  0  0  0  0  0  0  0  0  0
    4.8584   -3.7115    1.5304 C   0  0  1  0  0  0  0  0  0  0  0  0
    5.8391   -4.6494    0.7937 C   0  0  0  0  0  0  0  0  0  0  0  0
    6.8555   -3.8040   -0.0031 C   0  0  2  0  0  0  0  0  0  0  0  0
    7.6142   -2.8592    0.9341 C   0  0  0  0  0  0  0  0  0  0  0  0
    6.5855   -1.9325    1.6455 C   0  0  2  0  0  0  0  0  0  0  0  0
    5.6146   -2.7807    2.4753 C   0  0  0  0  0  0  0  0  0  0  0  0
    5.8593   -1.1004    0.5878 C   0  0  0  0  0  0  0  0  0  0  0  0
    6.1092   -2.9667   -1.0717 C   0  0  0  0  0  0  0  0  0  0  0  0
    3.5438    0.9259   -4.4572 H   0  0  0  0  0  0  0  0  0  0  0  0
    4.9561    0.1091   -3.6210 H   0  0  0  0  0  0  0  0  0  0  0  0
    3.8816    1.1339   -2.6921 H   0  0  0  0  0  0  0  0  0  0  0  0
    2.2582   -0.6510   -5.0777 H   0  0  0  0  0  0  0  0  0  0  0  0
    1.4127   -3.1752   -4.4867 H   0  0  0  0  0  0  0  0  0  0  0  0
    3.3920   -2.1931    1.0159 H   0  0  0  0  0  0  0  0  0  0  0  0
    3.5260   -3.6079   -0.0313 H   0  0  0  0  0  0  0  0  0  0  0  0
    4.1454   -4.3067    2.1023 H   0  0  0  0  0  0  0  0  0  0  0  0
    6.3531   -5.3039    1.5001 H   0  0  0  0  0  0  0  0  0  0  0  0
    5.2935   -5.3068    0.1162 H   0  0  0  0  0  0  0  0  0  0  0  0
    7.5942   -4.4601   -0.4598 H   0  0  0  0  0  0  0  0  0  0  0  0
    8.1535   -3.4708    1.6484 H   0  0  0  0  0  0  0  0  0  0  0  0
    8.3619   -2.2910    0.3874 H   0  0  0  0  0  0  0  0  0  0  0  0
    6.9732   -1.1689    2.3234 H   0  0  0  0  0  0  0  0  0  0  0  0
    4.9208   -2.1393    3.0242 H   0  0  0  0  0  0  0  0  0  0  0  0
    6.1334   -3.3819    3.2176 H   0  0  0  0  0  0  0  0  0  0  0  0
    6.5959   -0.4871    0.0622 H   0  0  0  0  0  0  0  0  0  0  0  0
    5.1849   -0.4088    1.1040 H   0  0  0  0  0  0  0  0  0  0  0  0
    5.6218   -3.6409   -1.7800 H   0  0  0  0  0  0  0  0  0  0  0  0
    6.8474   -2.3982   -1.6435 H   0  0  0  0  0  0  0  0  0  0  0  0
    4.6530   -0.1649   -1.3073 H   0  0  0  0  0  0  0  0  0  0  0  0
  1  2  1  0
  1 18  1  0
  1 19  1  0
  1 20  1  0
  2  6  2  0
  2  3  1  0
  3  4  2  0
  3 21  1  0
  4  5  1  0
  4 22  1  0
  5  6  1  0
  6  7  1  0
  8  7  1  6
  7 38  1  0
  8 16  1  0
  8 17  1  0
  8  9  1  0
  9 10  1  0
  9 23  1  0
  9 24  1  0
 10 15  1  0
 10 11  1  0
 10 25  1  1
 11 12  1  0
 11 26  1  0
 11 27  1  0
 12 13  1  0
 12 17  1  0
 12 28  1  6
 13 14  1  0
 13 29  1  0
 13 30  1  0
 14 15  1  0
 14 16  1  0
 14 31  1  1
 15 32  1  0
 15 33  1  0
 16 34  1  0
 16 35  1  0
 17 36  1  0
 17 37  1  0
M  CHG  1   2   1
M  END
>  <i_m_ct_stereo_status>  (376) 
1

>  <s_m_source_file>  (376) 
/var/tmp/pbs.5076255.sched01/tmpimq9cq4v/129n8p27m2m.sdf

>  <i_m_source_file_index>  (376) 
38

>  <i_lp_mmshare_version>  (376) 
48012

>  <i_f3d_flags>  (376) 
0

>  <s_epik_input>  (376) 
W0NIM11uMVtjSF1bY0hdc2NcMT1OL0MyM1tDSDJdW0NAQEhdNFtDSDJdW0NASF0oW0NIMl0zKVtDSDJdW0NAQEhdKFtDSDJdNClbQ0gyXTI=

>  <s_epik_cmdline>  (376) 
J2VwaWtfcHl0aG9uJywgJy1waHQnLCAnMi4wJywgJy1waCcsICc3LjAnLCAnLXRuJywgJzgnLCAnLW1hJywgJzIwMCcsICctaW1hZScsICc8aW5maWxlLm1hZT4nLCAnLW9tYWUnLCAnPG91dGZpbGUubWFlPic=

>  <r_lp_tautomer_probability>  (376) 
1

>  <r_epik_Ionization_Penalty>  (376) 
0.000950296

>  <r_epik_Ionization_Penalty_Charging>  (376) 
0

>  <r_epik_Ionization_Penalty_Neutral>  (376) 
0.000950296

>  <r_epik_State_Penalty>  (376) 
0.000617231

>  <r_epik_Charging_Adjusted_Penalty>  (376) 
0.000617231

>  <i_epik_Tot_Q>  (376) 
1

>  <i_epik_Tot_abs_Q>  (376) 
1

>  <s_lp_Force_Field>  (376) 
OPLS3e

>  <r_lp_Energy>  (376) 
7.16174

>  <b_lp_Chiralities_Consistent>  (376) 
1

>  <s_lp_Variant>  (376) 
117:0-1

>  <s_i_glide_gridfile>  (376) 
pfpi4k_grid

>  <i_i_glide_lignum>  (376) 
38

>  <i_i_glide_rotatable_bonds>  (376) 
2

>  <r_i_docking_score>  (376) 
-3.0869

>  <r_i_glide_ligand_efficiency>  (376) 
-0.181582

>  <r_i_glide_ligand_efficiency_sa>  (376) 
-0.466899

>  <r_i_glide_ligand_efficiency_ln>  (376) 
-0.805303

>  <r_i_glide_gscore>  (376) 
-3.0869

>  <r_i_glide_lipo>  (376) 
-0.745926

>  <r_i_glide_hbond>  (376) 
-0.0844701

>  <r_i_glide_metal>  (376) 
-0

>  <r_i_glide_rewards>  (376) 
-1.89372

>  <r_i_glide_evdw>  (376) 
2.06283

>  <r_i_glide_ecoul>  (376) 
-6.56111

>  <r_i_glide_erotb>  (376) 
0.562327

>  <r_i_glide_esite>  (376) 
-0.044082

>  <r_i_glide_emodel>  (376) 
-6.75902

>  <r_i_glide_energy>  (376) 
-4.49828

>  <r_i_glide_einternal>  (376) 
1.49836

>  <r_i_glide_intrahb_reward>  (376) 
-0

>  <i_i_glide_confnum>  (376) 
6

>  <i_i_glide_posenum>  (376) 
7

>  <r_i_glide_eff_state_penalty>  (376) 
0

>  <ligand_id>  (376) 
117

>  <original_smiles>  (376) 
Cn1ccsc1=NC12CC3CC(CC(C3)C1)C2

>  <smiles>  (376) 
[H]c1sc(N([H])C23C([H])([H])C4([H])C([H])([H])C([H])(C([H])([H])C([H])(C4([H])[H])C2([H])[H])C3([H])[H])[n+](C([H])([H])[H])c1[H]

$$$$
118:0:0
     RDKit          3D

 42 45  0  0  1  0  0  0  0  0999 V2000
    7.0742   -1.5951    0.9623 C   0  0  0  0  0  0  0  0  0  0  0  0
    5.6010   -1.4647    0.6581 C   0  0  2  0  0  0  0  0  0  0  0  0
    4.7582   -1.3101    1.9297 C   0  0  1  0  0  0  0  0  0  0  0  0
    3.2494   -1.2461    1.6711 C   0  0  0  0  0  0  0  0  0  0  0  0
    3.3221   -2.7778    1.6272 C   0  0  2  0  0  0  0  0  0  0  0  0
    4.3897   -2.5810    2.7111 C   0  0  0  0  0  0  0  0  0  0  0  0
    3.8640   -3.4195    0.3481 C   0  0  1  0  0  0  0  0  0  0  0  0
    2.9010   -3.4901   -0.8311 C   0  0  0  0  0  0  0  0  0  0  0  0
    3.8459   -3.4786   -2.0359 C   0  0  1  0  0  0  0  0  0  0  0  0
    3.1788   -3.3464   -3.4171 C   0  0  0  0  0  0  0  0  0  0  0  0
    2.6974   -1.9330   -3.6576 C   0  0  0  0  0  0  0  0  0  0  0  0
    3.8166   -0.9148   -3.4640 C   0  0  0  0  0  0  0  0  0  0  0  0
    4.4026   -1.0333   -2.0591 C   0  0  0  0  0  0  0  0  0  0  0  0
    4.9181   -2.4473   -1.6965 C   0  0  2  0  0  0  0  0  0  0  0  0
    6.2103   -2.7720   -2.4366 C   0  0  0  0  0  0  0  0  0  0  0  0
    5.1268   -2.6915   -0.1815 C   0  0  1  0  0  0  0  0  0  0  0  0
    7.2423   -2.5042    1.5404 H   0  0  0  0  0  0  0  0  0  0  0  0
    7.3961   -0.7501    1.5649 H   0  0  0  0  0  0  0  0  0  0  0  0
    7.7039   -1.6425    0.0757 H   0  0  0  0  0  0  0  0  0  0  0  0
    5.5033   -0.5370    0.1096 H   0  0  0  0  0  0  0  0  0  0  0  0
    5.0946   -0.5062    2.5897 H   0  0  0  0  0  0  0  0  0  0  0  0
    2.6739   -0.8496    2.5142 H   0  0  0  0  0  0  0  0  0  0  0  0
    2.9668   -0.7735    0.7340 H   0  0  0  0  0  0  0  0  0  0  0  0
    2.4145   -3.2404    2.0149 H   0  0  0  0  0  0  0  0  0  0  0  0
    5.1602   -3.3501    2.7342 H   0  0  0  0  0  0  0  0  0  0  0  0
    3.9730   -2.3838    3.7053 H   0  0  0  0  0  0  0  0  0  0  0  0
    4.1607   -4.4458    0.5842 H   0  0  0  0  0  0  0  0  0  0  0  0
    2.2872   -4.3922   -0.7917 H   0  0  0  0  0  0  0  0  0  0  0  0
    2.2191   -2.6457   -0.8253 H   0  0  0  0  0  0  0  0  0  0  0  0
    4.3335   -4.4535   -2.0241 H   0  0  0  0  0  0  0  0  0  0  0  0
    3.8684   -3.6491   -4.2030 H   0  0  0  0  0  0  0  0  0  0  0  0
    2.3136   -4.0122   -3.4923 H   0  0  0  0  0  0  0  0  0  0  0  0
    2.2798   -1.8140   -4.6532 H   0  0  0  0  0  0  0  0  0  0  0  0
    1.8936   -1.7799   -2.9412 H   0  0  0  0  0  0  0  0  0  0  0  0
    4.5913   -1.0567   -4.2157 H   0  0  0  0  0  0  0  0  0  0  0  0
    3.4236    0.0936   -3.6096 H   0  0  0  0  0  0  0  0  0  0  0  0
    5.1891   -0.2865   -1.9650 H   0  0  0  0  0  0  0  0  0  0  0  0
    3.6176   -0.7426   -1.3640 H   0  0  0  0  0  0  0  0  0  0  0  0
    6.9940   -2.0719   -2.1904 H   0  0  0  0  0  0  0  0  0  0  0  0
    6.0562   -2.7347   -3.5119 H   0  0  0  0  0  0  0  0  0  0  0  0
    6.5850   -3.7628   -2.2169 H   0  0  0  0  0  0  0  0  0  0  0  0
    5.9084   -3.4527   -0.0816 H   0  0  0  0  0  0  0  0  0  0  0  0
  1  2  1  0
  1 17  1  0
  1 18  1  0
  1 19  1  0
  2 16  1  0
  2  3  1  0
  2 20  1  6
  3  6  1  0
  3  4  1  0
  3 21  1  1
  4  5  1  0
  4 22  1  0
  4 23  1  0
  5  6  1  0
  5  7  1  0
  5 24  1  1
  6 25  1  0
  6 26  1  0
  7 16  1  0
  7  8  1  0
  7 27  1  1
  8  9  1  0
  8 28  1  0
  8 29  1  0
  9 14  1  0
  9 10  1  0
  9 30  1  6
 10 11  1  0
 10 31  1  0
 10 32  1  0
 11 12  1  0
 11 33  1  0
 11 34  1  0
 12 13  1  0
 12 35  1  0
 12 36  1  0
 13 14  1  0
 13 37  1  0
 13 38  1  0
 14 15  1  6
 14 16  1  0
 15 39  1  0
 15 40  1  0
 15 41  1  0
 16 42  1  6
M  END
>  <i_m_ct_stereo_status>  (377) 
1

>  <s_m_source_file>  (377) 
/var/tmp/pbs.5076255.sched01/tmpimq9cq4v/129n8p27m2m.sdf

>  <i_m_source_file_index>  (377) 
39

>  <i_lp_mmshare_version>  (377) 
48012

>  <i_f3d_flags>  (377) 
0

>  <s_epik_input>  (377) 
W0NIM11bQ0BASF0oW0NAQEhdMTIpW0NASF0oW0NIMl0zKVtDSDJdW0NASF0zW0NASF0xW0NIMl1bQ0BIXShbQ0BdMjRbQ0gzXSlbQ0gyXVtDSDJdW0NIMl1bQ0gyXTQ=

>  <s_epik_cmdline>  (377) 
J2VwaWtfcHl0aG9uJywgJy1waHQnLCAnMi4wJywgJy1waCcsICc3LjAnLCAnLXRuJywgJzgnLCAnLW1hJywgJzIwMCcsICctaW1hZScsICc8aW5maWxlLm1hZT4nLCAnLW9tYWUnLCAnPG91dGZpbGUubWFlPic=

>  <r_lp_tautomer_probability>  (377) 
1

>  <r_epik_Ionization_Penalty>  (377) 
0

>  <r_epik_Ionization_Penalty_Charging>  (377) 
0

>  <r_epik_Ionization_Penalty_Neutral>  (377) 
0

>  <r_epik_State_Penalty>  (377) 
-0

>  <r_epik_Charging_Adjusted_Penalty>  (377) 
0

>  <i_epik_Tot_Q>  (377) 
0

>  <i_epik_Tot_abs_Q>  (377) 
0

>  <s_lp_Force_Field>  (377) 
OPLS3e

>  <r_lp_Energy>  (377) 
40.6933

>  <b_lp_Chiralities_Consistent>  (377) 
1

>  <s_lp_Variant>  (377) 
118:0-1

>  <s_i_glide_gridfile>  (377) 
pfpi4k_grid

>  <i_i_glide_lignum>  (377) 
39

>  <i_i_glide_rotatable_bonds>  (377) 
0

>  <r_i_docking_score>  (377) 
-3.70041

>  <r_i_glide_ligand_efficiency>  (377) 
-0.231276

>  <r_i_glide_ligand_efficiency_sa>  (377) 
-0.582778

>  <r_i_glide_ligand_efficiency_ln>  (377) 
-0.980868

>  <r_i_glide_gscore>  (377) 
-3.70041

>  <r_i_glide_lipo>  (377) 
-0.818074

>  <r_i_glide_hbond>  (377) 
0

>  <r_i_glide_metal>  (377) 
-0

>  <r_i_glide_rewards>  (377) 
-1.92015

>  <r_i_glide_evdw>  (377) 
-17.7585

>  <r_i_glide_ecoul>  (377) 
-0.495082

>  <r_i_glide_erotb>  (377) 
0

>  <r_i_glide_esite>  (377) 
0

>  <r_i_glide_emodel>  (377) 
-21.0625

>  <r_i_glide_energy>  (377) 
-18.2535

>  <r_i_glide_einternal>  (377) 
0

>  <r_i_glide_intrahb_reward>  (377) 
-0

>  <i_i_glide_confnum>  (377) 
2

>  <i_i_glide_posenum>  (377) 
4

>  <r_i_glide_eff_state_penalty>  (377) 
0

>  <ligand_id>  (377) 
118

>  <original_smiles>  (377) 
CC1C2CC(C2)C2CC3CCCCC3(C)C12

>  <smiles>  (377) 
[H]C([H])([H])C1([H])C2([H])C([H])([H])C([H])(C2([H])[H])C2([H])C([H])([H])C3([H])C([H])([H])C([H])([H])C([H])([H])C([H])([H])C3(C([H])([H])[H])C12[H]

$$$$
118:0:1
     RDKit          3D

 42 45  0  0  1  0  0  0  0  0999 V2000
    7.3692   -3.8539    0.5642 C   0  0  0  0  0  0  0  0  0  0  0  0
    6.0553   -3.0530    0.5307 C   0  0  2  0  0  0  0  0  0  0  0  0
    5.4071   -2.9770    1.8952 C   0  0  1  0  0  0  0  0  0  0  0  0
    4.0578   -2.2290    1.9651 C   0  0  0  0  0  0  0  0  0  0  0  0
    3.4734   -3.5704    1.4721 C   0  0  2  0  0  0  0  0  0  0  0  0
    4.5565   -4.1639    2.3956 C   0  0  0  0  0  0  0  0  0  0  0  0
    3.6169   -3.9469    0.0153 C   0  0  1  0  0  0  0  0  0  0  0  0
    2.6454   -3.2684   -0.9432 C   0  0  0  0  0  0  0  0  0  0  0  0
    3.4211   -3.1942   -2.2560 C   0  0  1  0  0  0  0  0  0  0  0  0
    2.7929   -2.3661   -3.3852 C   0  0  0  0  0  0  0  0  0  0  0  0
    3.0016   -0.8687   -3.1780 C   0  0  0  0  0  0  0  0  0  0  0  0
    4.4368   -0.5318   -2.8999 C   0  0  0  0  0  0  0  0  0  0  0  0
    4.9636   -1.2999   -1.6923 C   0  0  0  0  0  0  0  0  0  0  0  0
    4.8445   -2.8327   -1.8451 C   0  0  2  0  0  0  0  0  0  0  0  0
    5.8154   -3.3317   -2.8949 C   0  0  0  0  0  0  0  0  0  0  0  0
    5.0442   -3.6331   -0.5208 C   0  0  1  0  0  0  0  0  0  0  0  0
    7.2133   -4.8898    0.8667 H   0  0  0  0  0  0  0  0  0  0  0  0
    8.0724   -3.4087    1.2711 H   0  0  0  0  0  0  0  0  0  0  0  0
    7.8535   -3.8569   -0.4144 H   0  0  0  0  0  0  0  0  0  0  0  0
    6.3441   -2.0490    0.2701 H   0  0  0  0  0  0  0  0  0  0  0  0
    6.0697   -2.6115    2.6939 H   0  0  0  0  0  0  0  0  0  0  0  0
    3.7521   -1.9361    2.9654 H   0  0  0  0  0  0  0  0  0  0  0  0
    3.9618   -1.4136    1.2440 H   0  0  0  0  0  0  0  0  0  0  0  0
    2.4712   -3.7270    1.8950 H   0  0  0  0  0  0  0  0  0  0  0  0
    4.9262   -5.1350    2.0494 H   0  0  0  0  0  0  0  0  0  0  0  0
    4.3162   -4.1414    3.4545 H   0  0  0  0  0  0  0  0  0  0  0  0
    3.4582   -5.0221   -0.0871 H   0  0  0  0  0  0  0  0  0  0  0  0
    1.7049   -3.8033   -1.0429 H   0  0  0  0  0  0  0  0  0  0  0  0
    2.4329   -2.2807   -0.5661 H   0  0  0  0  0  0  0  0  0  0  0  0
    3.4669   -4.2081   -2.6299 H   0  0  0  0  0  0  0  0  0  0  0  0
    3.2411   -2.6500   -4.3324 H   0  0  0  0  0  0  0  0  0  0  0  0
    1.7313   -2.6009   -3.4775 H   0  0  0  0  0  0  0  0  0  0  0  0
    2.6330   -0.3133   -4.0451 H   0  0  0  0  0  0  0  0  0  0  0  0
    2.3870   -0.5418   -2.3343 H   0  0  0  0  0  0  0  0  0  0  0  0
    5.0161   -0.7440   -3.7899 H   0  0  0  0  0  0  0  0  0  0  0  0
    4.5117    0.5431   -2.7232 H   0  0  0  0  0  0  0  0  0  0  0  0
    6.0000   -1.0111   -1.5538 H   0  0  0  0  0  0  0  0  0  0  0  0
    4.4224   -0.9509   -0.8182 H   0  0  0  0  0  0  0  0  0  0  0  0
    6.8533   -3.1294   -2.6279 H   0  0  0  0  0  0  0  0  0  0  0  0
    5.6180   -2.9022   -3.8669 H   0  0  0  0  0  0  0  0  0  0  0  0
    5.6917   -4.3964   -3.0258 H   0  0  0  0  0  0  0  0  0  0  0  0
    5.4252   -4.6195   -0.7955 H   0  0  0  0  0  0  0  0  0  0  0  0
  1  2  1  0
  1 17  1  0
  1 18  1  0
  1 19  1  0
  2 16  1  0
  2  3  1  0
  2 20  1  6
  3  6  1  0
  3  4  1  0
  3 21  1  1
  4  5  1  0
  4 22  1  0
  4 23  1  0
  5  6  1  0
  5  7  1  0
  5 24  1  1
  6 25  1  0
  6 26  1  0
  7 16  1  0
  7  8  1  0
  7 27  1  1
  8  9  1  0
  8 28  1  0
  8 29  1  0
  9 14  1  0
  9 10  1  0
  9 30  1  6
 10 11  1  0
 10 31  1  0
 10 32  1  0
 11 12  1  0
 11 33  1  0
 11 34  1  0
 12 13  1  0
 12 35  1  0
 12 36  1  0
 13 14  1  0
 13 37  1  0
 13 38  1  0
 14 15  1  6
 14 16  1  0
 15 39  1  0
 15 40  1  0
 15 41  1  0
 16 42  1  6
M  END
>  <i_m_ct_stereo_status>  (378) 
1

>  <s_m_source_file>  (378) 
/var/tmp/pbs.5076255.sched01/tmpimq9cq4v/129n8p27m2m.sdf

>  <i_m_source_file_index>  (378) 
39

>  <i_lp_mmshare_version>  (378) 
48012

>  <i_f3d_flags>  (378) 
0

>  <s_epik_input>  (378) 
W0NIM11bQ0BASF0oW0NAQEhdMTIpW0NASF0oW0NIMl0zKVtDSDJdW0NASF0zW0NASF0xW0NIMl1bQ0BIXShbQ0BdMjRbQ0gzXSlbQ0gyXVtDSDJdW0NIMl1bQ0gyXTQ=

>  <s_epik_cmdline>  (378) 
J2VwaWtfcHl0aG9uJywgJy1waHQnLCAnMi4wJywgJy1waCcsICc3LjAnLCAnLXRuJywgJzgnLCAnLW1hJywgJzIwMCcsICctaW1hZScsICc8aW5maWxlLm1hZT4nLCAnLW9tYWUnLCAnPG91dGZpbGUubWFlPic=

>  <r_lp_tautomer_probability>  (378) 
1

>  <r_epik_Ionization_Penalty>  (378) 
0

>  <r_epik_Ionization_Penalty_Charging>  (378) 
0

>  <r_epik_Ionization_Penalty_Neutral>  (378) 
0

>  <r_epik_State_Penalty>  (378) 
-0

>  <r_epik_Charging_Adjusted_Penalty>  (378) 
0

>  <i_epik_Tot_Q>  (378) 
0

>  <i_epik_Tot_abs_Q>  (378) 
0

>  <s_lp_Force_Field>  (378) 
OPLS3e

>  <r_lp_Energy>  (378) 
40.6933

>  <b_lp_Chiralities_Consistent>  (378) 
1

>  <s_lp_Variant>  (378) 
118:0-1

>  <s_i_glide_gridfile>  (378) 
pfpi4k_grid

>  <i_i_glide_lignum>  (378) 
39

>  <i_i_glide_rotatable_bonds>  (378) 
0

>  <r_i_docking_score>  (378) 
-3.67117

>  <r_i_glide_ligand_efficiency>  (378) 
-0.229448

>  <r_i_glide_ligand_efficiency_sa>  (378) 
-0.578173

>  <r_i_glide_ligand_efficiency_ln>  (378) 
-0.973117

>  <r_i_glide_gscore>  (378) 
-3.67117

>  <r_i_glide_lipo>  (378) 
-0.874741

>  <r_i_glide_hbond>  (378) 
0

>  <r_i_glide_metal>  (378) 
-0

>  <r_i_glide_rewards>  (378) 
-1.92015

>  <r_i_glide_evdw>  (378) 
-16.5901

>  <r_i_glide_ecoul>  (378) 
-0.311817

>  <r_i_glide_erotb>  (378) 
0

>  <r_i_glide_esite>  (378) 
0

>  <r_i_glide_emodel>  (378) 
-19.6558

>  <r_i_glide_energy>  (378) 
-16.9019

>  <r_i_glide_einternal>  (378) 
0

>  <r_i_glide_intrahb_reward>  (378) 
-0

>  <i_i_glide_confnum>  (378) 
1

>  <i_i_glide_posenum>  (378) 
13

>  <r_i_glide_eff_state_penalty>  (378) 
0

>  <ligand_id>  (378) 
118

>  <original_smiles>  (378) 
CC1C2CC(C2)C2CC3CCCCC3(C)C12

>  <smiles>  (378) 
[H]C([H])([H])C1([H])C2([H])C([H])([H])C([H])(C2([H])[H])C2([H])C([H])([H])C3([H])C([H])([H])C([H])([H])C([H])([H])C([H])([H])C3(C([H])([H])[H])C12[H]

$$$$
119:0:0
     RDKit          3D

 54 58  0  0  1  0  0  0  0  0999 V2000
    2.0010   -4.8160    3.2924 C   0  0  0  0  0  0  0  0  0  0  0  0
    2.9090   -5.0563    2.3238 C   0  0  0  0  0  0  0  0  0  0  0  0
    4.2576   -5.6892    2.6339 C   0  0  1  0  0  0  0  0  0  0  0  0
    4.3928   -7.1619    2.1667 C   0  0  1  0  0  0  0  0  0  0  0  0
    3.5383   -8.0701    3.0289 C   0  0  0  0  0  0  0  0  0  0  0  0
    4.6316   -7.6340    0.7537 C   0  0  0  0  0  0  0  0  0  0  0  0
    5.7616   -7.6654    1.7452 C   0  0  1  0  0  0  0  0  0  0  0  0
    6.9157   -6.7078    1.5632 C   0  0  0  0  0  0  0  0  0  0  0  0
    6.7481   -5.4579    2.4273 C   0  0  0  0  0  0  0  0  0  0  0  0
    5.4027   -4.7015    2.2405 C   0  0  2  0  0  0  0  0  0  0  0  0
    5.3932   -3.5680    3.2954 C   0  0  0  0  0  0  0  0  0  0  0  0
    5.2490   -4.1224    0.7767 C   0  0  2  0  0  0  0  0  0  0  0  0
    6.3512   -3.0861    0.3751 C   0  0  1  0  0  0  0  0  0  0  0  0
    6.8515   -3.4050   -0.9061 O   0  0  0  0  0  0  0  0  0  0  0  0
    5.9368   -1.5961    0.3478 C   0  0  0  0  0  0  0  0  0  0  0  0
    4.4748   -1.3549   -0.0599 C   0  0  2  0  0  0  0  0  0  0  0  0
    3.5707   -2.1800    0.8492 C   0  0  0  0  0  0  0  0  0  0  0  0
    3.8111   -3.6302    0.3596 C   0  0  2  0  0  0  0  0  0  0  0  0
    2.7018   -4.5943    0.8947 C   0  0  1  0  0  0  0  0  0  0  0  0
    2.4473   -5.7281    0.0840 O   0  0  0  0  0  0  0  0  0  0  0  0
    3.7271   -3.3776   -1.1858 C   0  0  1  0  0  0  0  0  0  0  0  0
    2.4198   -3.5708   -1.7029 O   0  0  0  0  0  0  0  0  0  0  0  0
    4.1658   -1.9135   -1.4540 C   0  0  1  0  0  0  0  0  0  0  0  0
    3.1756   -1.1194   -2.0883 O   0  0  0  0  0  0  0  0  0  0  0  0
    1.0757   -4.3109    3.0763 H   0  0  0  0  0  0  0  0  0  0  0  0
    2.1895   -5.1088    4.3103 H   0  0  0  0  0  0  0  0  0  0  0  0
    4.2925   -5.7688    3.7256 H   0  0  0  0  0  0  0  0  0  0  0  0
    3.7093   -9.1096    2.7453 H   0  0  0  0  0  0  0  0  0  0  0  0
    2.4805   -7.8488    2.8883 H   0  0  0  0  0  0  0  0  0  0  0  0
    3.8024   -7.9577    4.0753 H   0  0  0  0  0  0  0  0  0  0  0  0
    4.2245   -8.6047    0.4840 H   0  0  0  0  0  0  0  0  0  0  0  0
    4.6939   -6.9301   -0.0641 H   0  0  0  0  0  0  0  0  0  0  0  0
    6.0518   -8.6518    2.0999 H   0  0  0  0  0  0  0  0  0  0  0  0
    7.8415   -7.2227    1.8311 H   0  0  0  0  0  0  0  0  0  0  0  0
    7.0132   -6.4435    0.5047 H   0  0  0  0  0  0  0  0  0  0  0  0
    6.8128   -5.7843    3.4651 H   0  0  0  0  0  0  0  0  0  0  0  0
    7.6013   -4.8075    2.2761 H   0  0  0  0  0  0  0  0  0  0  0  0
    6.0399   -2.7477    3.0122 H   0  0  0  0  0  0  0  0  0  0  0  0
    5.7348   -3.9270    4.2683 H   0  0  0  0  0  0  0  0  0  0  0  0
    4.4016   -3.1500    3.4859 H   0  0  0  0  0  0  0  0  0  0  0  0
    5.4180   -4.9761    0.1351 H   0  0  0  0  0  0  0  0  0  0  0  0
    7.2130   -3.1680    1.0292 H   0  0  0  0  0  0  0  0  0  0  0  0
    7.2903   -4.2413   -0.8308 H   0  0  0  0  0  0  0  0  0  0  0  0
    6.0822   -1.1759    1.3459 H   0  0  0  0  0  0  0  0  0  0  0  0
    6.6087   -1.0415   -0.3028 H   0  0  0  0  0  0  0  0  0  0  0  0
    4.2552   -0.2868    0.0007 H   0  0  0  0  0  0  0  0  0  0  0  0
    3.7610   -1.9884    1.8974 H   0  0  0  0  0  0  0  0  0  0  0  0
    2.5405   -1.8782    0.6696 H   0  0  0  0  0  0  0  0  0  0  0  0
    1.8119   -3.9965    0.8744 H   0  0  0  0  0  0  0  0  0  0  0  0
    2.6452   -5.5155   -0.8227 H   0  0  0  0  0  0  0  0  0  0  0  0
    4.3894   -4.0581   -1.7318 H   0  0  0  0  0  0  0  0  0  0  0  0
    2.4471   -4.3248   -2.2843 H   0  0  0  0  0  0  0  0  0  0  0  0
    5.0386   -1.8716   -2.0999 H   0  0  0  0  0  0  0  0  0  0  0  0
    2.3763   -1.1392   -1.5580 H   0  0  0  0  0  0  0  0  0  0  0  0
  1  2  2  0
  1 25  1  0
  1 26  1  0
  2 19  1  0
  2  3  1  0
  3 10  1  0
  3  4  1  0
  3 27  1  1
  4  7  1  0
  4  5  1  1
  4  6  1  0
  5 28  1  0
  5 29  1  0
  5 30  1  0
  6  7  1  0
  6 31  1  0
  6 32  1  0
  7  8  1  0
  7 33  1  1
  8  9  1  0
  8 34  1  0
  8 35  1  0
  9 10  1  0
  9 36  1  0
  9 37  1  0
 10 11  1  1
 10 12  1  0
 11 38  1  0
 11 39  1  0
 11 40  1  0
 12 18  1  0
 12 13  1  0
 12 41  1  6
 13 14  1  0
 13 15  1  0
 13 42  1  1
 14 43  1  0
 15 16  1  0
 15 44  1  0
 15 45  1  0
 16 23  1  0
 16 17  1  0
 16 46  1  6
 18 17  1  1
 17 47  1  0
 17 48  1  0
 18 19  1  0
 18 21  1  0
 19 20  1  0
 19 49  1  1
 20 50  1  0
 21 22  1  0
 21 23  1  0
 21 51  1  6
 22 52  1  0
 23 24  1  0
 23 53  1  6
 24 54  1  0
M  END
>  <i_m_ct_stereo_status>  (379) 
1

>  <s_m_source_file>  (379) 
/var/tmp/pbs.5076255.sched01/tmpimq9cq4v/129n8p27m2m.sdf

>  <i_m_source_file_index>  (379) 
40

>  <i_lp_mmshare_version>  (379) 
48012

>  <i_f3d_flags>  (379) 
0

>  <s_epik_input>  (379) 
W0NIMl0xW0NIMl1bQ0BIXShbQ0gyXTIpW0NAQF0yKFtDSDNdKVtDQEhdKEMoPVtDSDJdKVtDQEBIXTNbT0hdKVtDQF0xKFtDSDNdKVtDQEBIXShbQ0BAXTM0NSlbQ0BASF0oW09IXSlbQ0gyXVtDQEhdKFtDSDJdNClbQ0BIXShbT0hdKVtDQEBIXTVbT0hd

>  <s_epik_cmdline>  (379) 
J2VwaWtfcHl0aG9uJywgJy1waHQnLCAnMi4wJywgJy1waCcsICc3LjAnLCAnLXRuJywgJzgnLCAnLW1hJywgJzIwMCcsICctaW1hZScsICc8aW5maWxlLm1hZT4nLCAnLW9tYWUnLCAnPG91dGZpbGUubWFlPic=

>  <r_lp_tautomer_probability>  (379) 
1

>  <r_epik_Ionization_Penalty>  (379) 
1.04588e-06

>  <r_epik_Ionization_Penalty_Charging>  (379) 
0

>  <r_epik_Ionization_Penalty_Neutral>  (379) 
1.04588e-06

>  <r_epik_State_Penalty>  (379) 
-0

>  <r_epik_Charging_Adjusted_Penalty>  (379) 
0

>  <i_epik_Tot_Q>  (379) 
0

>  <i_epik_Tot_abs_Q>  (379) 
0

>  <s_lp_Force_Field>  (379) 
OPLS3e

>  <r_lp_Energy>  (379) 
65.2119

>  <b_lp_Chiralities_Consistent>  (379) 
1

>  <s_lp_Variant>  (379) 
119:0-1

>  <s_i_glide_gridfile>  (379) 
pfpi4k_grid

>  <i_i_glide_lignum>  (379) 
40

>  <i_i_glide_rotatable_bonds>  (379) 
4

>  <r_i_docking_score>  (379) 
-4.25482

>  <r_i_glide_ligand_efficiency>  (379) 
-0.177284

>  <r_i_glide_ligand_efficiency_sa>  (379) 
-0.511376

>  <r_i_glide_ligand_efficiency_ln>  (379) 
-1.01837

>  <r_i_glide_gscore>  (379) 
-4.25482

>  <r_i_glide_lipo>  (379) 
-0.561724

>  <r_i_glide_hbond>  (379) 
0

>  <r_i_glide_metal>  (379) 
-0

>  <r_i_glide_rewards>  (379) 
-1.12875

>  <r_i_glide_evdw>  (379) 
-21.5403

>  <r_i_glide_ecoul>  (379) 
-9.91554

>  <r_i_glide_erotb>  (379) 
0

>  <r_i_glide_esite>  (379) 
0

>  <r_i_glide_emodel>  (379) 
-37.9915

>  <r_i_glide_energy>  (379) 
-31.4559

>  <r_i_glide_einternal>  (379) 
2.20466

>  <r_i_glide_intrahb_reward>  (379) 
-0

>  <i_i_glide_confnum>  (379) 
2

>  <i_i_glide_posenum>  (379) 
15

>  <r_i_glide_eff_state_penalty>  (379) 
0

>  <ligand_id>  (379) 
119

>  <original_smiles>  (379) 
C=C1C2C3(C)CC3CCC2(C)C2C(O)CC3CC2(C1O)C(O)C3O

>  <smiles>  (379) 
[H]OC1([H])C(=C([H])[H])C2([H])C3(C([H])([H])[H])C([H])([H])C3([H])C([H])([H])C([H])([H])C2(C([H])([H])[H])C2([H])C([H])(O[H])C([H])([H])C3([H])C([H])([H])C12C([H])(O[H])C3([H])O[H]

$$$$
119:0:1
     RDKit          3D

 54 58  0  0  1  0  0  0  0  0999 V2000
    1.8768   -4.3756    3.2303 C   0  0  0  0  0  0  0  0  0  0  0  0
    2.7917   -4.7489    2.3284 C   0  0  0  0  0  0  0  0  0  0  0  0
    4.0409   -5.5216    2.7257 C   0  0  1  0  0  0  0  0  0  0  0  0
    4.0431   -7.0139    2.3135 C   0  0  1  0  0  0  0  0  0  0  0  0
    3.0413   -7.7929    3.1434 C   0  0  0  0  0  0  0  0  0  0  0  0
    4.3328   -7.5672    0.9378 C   0  0  0  0  0  0  0  0  0  0  0  0
    5.3757   -7.6934    2.0129 C   0  0  1  0  0  0  0  0  0  0  0  0
    6.6396   -6.8849    1.8746 C   0  0  0  0  0  0  0  0  0  0  0  0
    6.5617   -5.5943    2.6909 C   0  0  0  0  0  0  0  0  0  0  0  0
    5.3250   -4.6928    2.3934 C   0  0  2  0  0  0  0  0  0  0  0  0
    5.3885   -3.5298    3.4209 C   0  0  0  0  0  0  0  0  0  0  0  0
    5.3208   -4.1476    0.9028 C   0  0  2  0  0  0  0  0  0  0  0  0
    6.5689   -3.2596    0.5516 C   0  0  1  0  0  0  0  0  0  0  0  0
    7.1704   -3.6717   -0.6621 O   0  0  0  0  0  0  0  0  0  0  0  0
    6.3299   -1.7347    0.4684 C   0  0  0  0  0  0  0  0  0  0  0  0
    4.9342   -1.3516   -0.0530 C   0  0  2  0  0  0  0  0  0  0  0  0
    3.8781   -2.0312    0.8149 C   0  0  0  0  0  0  0  0  0  0  0  0
    3.9644   -3.5175    0.3815 C   0  0  2  0  0  0  0  0  0  0  0  0
    2.7058   -4.3177    0.8721 C   0  0  1  0  0  0  0  0  0  0  0  0
    2.3883   -5.4621    0.1015 O   0  0  0  0  0  0  0  0  0  0  0  0
    4.0211   -3.3369   -1.1814 C   0  0  1  0  0  0  0  0  0  0  0  0
    2.7563   -3.4446   -1.8158 O   0  0  0  0  0  0  0  0  0  0  0  0
    4.6506   -1.9319   -1.4460 C   0  0  1  0  0  0  0  0  0  0  0  0
    3.7801   -1.0672   -2.1519 O   0  0  0  0  0  0  0  0  0  0  0  0
    1.0187   -3.7746    2.9475 H   0  0  0  0  0  0  0  0  0  0  0  0
    1.9699   -4.6584    4.2743 H   0  0  0  0  0  0  0  0  0  0  0  0
    4.0064   -5.5725    3.8168 H   0  0  0  0  0  0  0  0  0  0  0  0
    3.1044   -8.8604    2.9047 H   0  0  0  0  0  0  0  0  0  0  0  0
    2.0229   -7.4577    2.9317 H   0  0  0  0  0  0  0  0  0  0  0  0
    3.2501   -7.6757    4.2049 H   0  0  0  0  0  0  0  0  0  0  0  0
    3.8372   -8.5003    0.6663 H   0  0  0  0  0  0  0  0  0  0  0  0
    4.5286   -6.9090    0.1048 H   0  0  0  0  0  0  0  0  0  0  0  0
    5.5253   -8.6965    2.4117 H   0  0  0  0  0  0  0  0  0  0  0  0
    7.4782   -7.4881    2.2209 H   0  0  0  0  0  0  0  0  0  0  0  0
    6.8336   -6.6687    0.8243 H   0  0  0  0  0  0  0  0  0  0  0  0
    6.5217   -5.8871    3.7424 H   0  0  0  0  0  0  0  0  0  0  0  0
    7.5015   -5.0614    2.5839 H   0  0  0  0  0  0  0  0  0  0  0  0
    6.1372   -2.8001    3.1497 H   0  0  0  0  0  0  0  0  0  0  0  0
    5.6363   -3.8949    4.4181 H   0  0  0  0  0  0  0  0  0  0  0  0
    4.4434   -2.9999    3.5364 H   0  0  0  0  0  0  0  0  0  0  0  0
    5.4452   -5.0375    0.3061 H   0  0  0  0  0  0  0  0  0  0  0  0
    7.3577   -3.4176    1.2768 H   0  0  0  0  0  0  0  0  0  0  0  0
    6.5178   -3.7135   -1.3312 H   0  0  0  0  0  0  0  0  0  0  0  0
    6.4632   -1.2989    1.4623 H   0  0  0  0  0  0  0  0  0  0  0  0
    7.1085   -1.2873   -0.1428 H   0  0  0  0  0  0  0  0  0  0  0  0
    4.8388   -0.2624   -0.0361 H   0  0  0  0  0  0  0  0  0  0  0  0
    4.0330   -1.8284    1.8696 H   0  0  0  0  0  0  0  0  0  0  0  0
    2.9039   -1.6101    0.5646 H   0  0  0  0  0  0  0  0  0  0  0  0
    1.8503   -3.6539    0.7720 H   0  0  0  0  0  0  0  0  0  0  0  0
    2.6523   -5.3096   -0.8038 H   0  0  0  0  0  0  0  0  0  0  0  0
    4.6610   -4.0997   -1.6387 H   0  0  0  0  0  0  0  0  0  0  0  0
    2.7012   -4.2872   -2.2858 H   0  0  0  0  0  0  0  0  0  0  0  0
    5.5678   -1.9873   -2.0352 H   0  0  0  0  0  0  0  0  0  0  0  0
    2.9361   -1.1125   -1.7319 H   0  0  0  0  0  0  0  0  0  0  0  0
  1  2  2  0
  1 25  1  0
  1 26  1  0
  2 19  1  0
  2  3  1  0
  3 10  1  0
  3  4  1  0
  3 27  1  1
  4  7  1  0
  4  5  1  1
  4  6  1  0
  5 28  1  0
  5 29  1  0
  5 30  1  0
  6  7  1  0
  6 31  1  0
  6 32  1  0
  7  8  1  0
  7 33  1  1
  8  9  1  0
  8 34  1  0
  8 35  1  0
  9 10  1  0
  9 36  1  0
  9 37  1  0
 10 11  1  1
 10 12  1  0
 11 38  1  0
 11 39  1  0
 11 40  1  0
 12 18  1  0
 12 13  1  0
 12 41  1  6
 13 14  1  0
 13 15  1  0
 13 42  1  1
 14 43  1  0
 15 16  1  0
 15 44  1  0
 15 45  1  0
 16 23  1  0
 16 17  1  0
 16 46  1  6
 18 17  1  1
 17 47  1  0
 17 48  1  0
 18 19  1  0
 18 21  1  0
 19 20  1  0
 19 49  1  1
 20 50  1  0
 21 22  1  0
 21 23  1  0
 21 51  1  6
 22 52  1  0
 23 24  1  0
 23 53  1  6
 24 54  1  0
M  END
>  <i_m_ct_stereo_status>  (380) 
1

>  <s_m_source_file>  (380) 
/var/tmp/pbs.5076255.sched01/tmpimq9cq4v/129n8p27m2m.sdf

>  <i_m_source_file_index>  (380) 
40

>  <i_lp_mmshare_version>  (380) 
48012

>  <i_f3d_flags>  (380) 
0

>  <s_epik_input>  (380) 
W0NIMl0xW0NIMl1bQ0BIXShbQ0gyXTIpW0NAQF0yKFtDSDNdKVtDQEhdKEMoPVtDSDJdKVtDQEBIXTNbT0hdKVtDQF0xKFtDSDNdKVtDQEBIXShbQ0BAXTM0NSlbQ0BASF0oW09IXSlbQ0gyXVtDQEhdKFtDSDJdNClbQ0BIXShbT0hdKVtDQEBIXTVbT0hd

>  <s_epik_cmdline>  (380) 
J2VwaWtfcHl0aG9uJywgJy1waHQnLCAnMi4wJywgJy1waCcsICc3LjAnLCAnLXRuJywgJzgnLCAnLW1hJywgJzIwMCcsICctaW1hZScsICc8aW5maWxlLm1hZT4nLCAnLW9tYWUnLCAnPG91dGZpbGUubWFlPic=

>  <r_lp_tautomer_probability>  (380) 
1

>  <r_epik_Ionization_Penalty>  (380) 
1.04588e-06

>  <r_epik_Ionization_Penalty_Charging>  (380) 
0

>  <r_epik_Ionization_Penalty_Neutral>  (380) 
1.04588e-06

>  <r_epik_State_Penalty>  (380) 
-0

>  <r_epik_Charging_Adjusted_Penalty>  (380) 
0

>  <i_epik_Tot_Q>  (380) 
0

>  <i_epik_Tot_abs_Q>  (380) 
0

>  <s_lp_Force_Field>  (380) 
OPLS3e

>  <r_lp_Energy>  (380) 
65.2119

>  <b_lp_Chiralities_Consistent>  (380) 
1

>  <s_lp_Variant>  (380) 
119:0-1

>  <s_i_glide_gridfile>  (380) 
pfpi4k_grid

>  <i_i_glide_lignum>  (380) 
40

>  <i_i_glide_rotatable_bonds>  (380) 
4

>  <r_i_docking_score>  (380) 
-4.13852

>  <r_i_glide_ligand_efficiency>  (380) 
-0.172438

>  <r_i_glide_ligand_efficiency_sa>  (380) 
-0.497398

>  <r_i_glide_ligand_efficiency_ln>  (380) 
-0.990538

>  <r_i_glide_gscore>  (380) 
-4.13852

>  <r_i_glide_lipo>  (380) 
-0.484319

>  <r_i_glide_hbond>  (380) 
0

>  <r_i_glide_metal>  (380) 
-0

>  <r_i_glide_rewards>  (380) 
-1.12875

>  <r_i_glide_evdw>  (380) 
-23.2327

>  <r_i_glide_ecoul>  (380) 
-9.0921

>  <r_i_glide_erotb>  (380) 
0

>  <r_i_glide_esite>  (380) 
0

>  <r_i_glide_emodel>  (380) 
-38.8545

>  <r_i_glide_energy>  (380) 
-32.3248

>  <r_i_glide_einternal>  (380) 
1.82154

>  <r_i_glide_intrahb_reward>  (380) 
-0

>  <i_i_glide_confnum>  (380) 
2

>  <i_i_glide_posenum>  (380) 
28

>  <r_i_glide_eff_state_penalty>  (380) 
0

>  <ligand_id>  (380) 
119

>  <original_smiles>  (380) 
C=C1C2C3(C)CC3CCC2(C)C2C(O)CC3CC2(C1O)C(O)C3O

>  <smiles>  (380) 
[H]OC1([H])C(=C([H])[H])C2([H])C3(C([H])([H])[H])C([H])([H])C3([H])C([H])([H])C([H])([H])C2(C([H])([H])[H])C2([H])C([H])(O[H])C([H])([H])C3([H])C([H])([H])C12C([H])(O[H])C3([H])O[H]

$$$$
119:0:2
     RDKit          3D

 54 58  0  0  1  0  0  0  0  0999 V2000
    1.8471   -4.2233    3.2615 C   0  0  0  0  0  0  0  0  0  0  0  0
    2.7572   -4.5939    2.3433 C   0  0  0  0  0  0  0  0  0  0  0  0
    3.9843   -5.4210    2.7252 C   0  0  1  0  0  0  0  0  0  0  0  0
    3.9403   -6.9069    2.2775 C   0  0  1  0  0  0  0  0  0  0  0  0
    2.9030   -7.6761    3.0806 C   0  0  0  0  0  0  0  0  0  0  0  0
    4.2212   -7.4289    0.8874 C   0  0  0  0  0  0  0  0  0  0  0  0
    5.2541   -7.6133    1.9592 C   0  0  1  0  0  0  0  0  0  0  0  0
    6.5377   -6.8333    1.8436 C   0  0  0  0  0  0  0  0  0  0  0  0
    6.4978   -5.5652    2.6973 C   0  0  0  0  0  0  0  0  0  0  0  0
    5.2908   -4.6164    2.4147 C   0  0  2  0  0  0  0  0  0  0  0  0
    5.3841   -3.4907    3.4771 C   0  0  0  0  0  0  0  0  0  0  0  0
    5.3031   -4.0274    0.9434 C   0  0  2  0  0  0  0  0  0  0  0  0
    6.5834   -3.1773    0.6109 C   0  0  1  0  0  0  0  0  0  0  0  0
    7.1761   -3.5756   -0.6114 O   0  0  0  0  0  0  0  0  0  0  0  0
    6.3892   -1.6415    0.5823 C   0  0  0  0  0  0  0  0  0  0  0  0
    5.0072   -1.1972    0.0626 C   0  0  2  0  0  0  0  0  0  0  0  0
    3.9291   -1.8621    0.9134 C   0  0  0  0  0  0  0  0  0  0  0  0
    3.9702   -3.3313    0.4416 C   0  0  2  0  0  0  0  0  0  0  0  0
    2.6950   -4.1118    0.9057 C   0  0  1  0  0  0  0  0  0  0  0  0
    2.3801   -5.2146    0.0824 O   0  0  0  0  0  0  0  0  0  0  0  0
    4.0263   -3.1015   -1.1161 C   0  0  1  0  0  0  0  0  0  0  0  0
    2.7534   -3.1459   -1.7511 O   0  0  0  0  0  0  0  0  0  0  0  0
    4.7136   -1.7281   -1.3483 C   0  0  1  0  0  0  0  0  0  0  0  0
    3.8987   -0.8233   -2.0615 O   0  0  0  0  0  0  0  0  0  0  0  0
    1.0134   -3.5937    2.9921 H   0  0  0  0  0  0  0  0  0  0  0  0
    1.9313   -4.5374    4.2901 H   0  0  0  0  0  0  0  0  0  0  0  0
    3.9484   -5.4987    3.8160 H   0  0  0  0  0  0  0  0  0  0  0  0
    2.9363   -8.7332    2.8121 H   0  0  0  0  0  0  0  0  0  0  0  0
    1.8999   -7.3038    2.8720 H   0  0  0  0  0  0  0  0  0  0  0  0
    3.1086   -7.5955    4.1468 H   0  0  0  0  0  0  0  0  0  0  0  0
    3.7022   -8.3352    0.5861 H   0  0  0  0  0  0  0  0  0  0  0  0
    4.4346   -6.7510    0.0741 H   0  0  0  0  0  0  0  0  0  0  0  0
    5.3748   -8.6255    2.3304 H   0  0  0  0  0  0  0  0  0  0  0  0
    7.3615   -7.4696    2.1710 H   0  0  0  0  0  0  0  0  0  0  0  0
    6.7422   -6.5938    0.8010 H   0  0  0  0  0  0  0  0  0  0  0  0
    6.4483   -5.8892    3.7411 H   0  0  0  0  0  0  0  0  0  0  0  0
    7.4552   -5.0606    2.6084 H   0  0  0  0  0  0  0  0  0  0  0  0
    6.1598   -2.7714    3.2348 H   0  0  0  0  0  0  0  0  0  0  0  0
    5.6183   -3.8900    4.4678 H   0  0  0  0  0  0  0  0  0  0  0  0
    4.4569   -2.9344    3.6099 H   0  0  0  0  0  0  0  0  0  0  0  0
    5.3955   -4.9063    0.3181 H   0  0  0  0  0  0  0  0  0  0  0  0
    7.3693   -3.3800    1.3341 H   0  0  0  0  0  0  0  0  0  0  0  0
    6.5221   -3.5544   -1.2959 H   0  0  0  0  0  0  0  0  0  0  0  0
    6.5315   -1.2427    1.5875 H   0  0  0  0  0  0  0  0  0  0  0  0
    7.1869   -1.1918   -0.0092 H   0  0  0  0  0  0  0  0  0  0  0  0
    4.9477   -0.1073    0.1151 H   0  0  0  0  0  0  0  0  0  0  0  0
    4.0867   -1.7016    1.9746 H   0  0  0  0  0  0  0  0  0  0  0  0
    2.9645   -1.4084    0.6796 H   0  0  0  0  0  0  0  0  0  0  0  0
    1.8494   -3.4332    0.8170 H   0  0  0  0  0  0  0  0  0  0  0  0
    2.5889   -4.9815   -0.8200 H   0  0  0  0  0  0  0  0  0  0  0  0
    4.6208   -3.8864   -1.5838 H   0  0  0  0  0  0  0  0  0  0  0  0
    2.2308   -2.3964   -1.4863 H   0  0  0  0  0  0  0  0  0  0  0  0
    5.6316   -1.8164   -1.9254 H   0  0  0  0  0  0  0  0  0  0  0  0
    3.0998   -0.6800   -1.5684 H   0  0  0  0  0  0  0  0  0  0  0  0
  1  2  2  0
  1 25  1  0
  1 26  1  0
  2 19  1  0
  2  3  1  0
  3 10  1  0
  3  4  1  0
  3 27  1  1
  4  7  1  0
  4  5  1  1
  4  6  1  0
  5 28  1  0
  5 29  1  0
  5 30  1  0
  6  7  1  0
  6 31  1  0
  6 32  1  0
  7  8  1  0
  7 33  1  1
  8  9  1  0
  8 34  1  0
  8 35  1  0
  9 10  1  0
  9 36  1  0
  9 37  1  0
 10 11  1  1
 10 12  1  0
 11 38  1  0
 11 39  1  0
 11 40  1  0
 12 18  1  0
 12 13  1  0
 12 41  1  6
 13 14  1  0
 13 15  1  0
 13 42  1  1
 14 43  1  0
 15 16  1  0
 15 44  1  0
 15 45  1  0
 16 23  1  0
 16 17  1  0
 16 46  1  6
 18 17  1  1
 17 47  1  0
 17 48  1  0
 18 19  1  0
 18 21  1  0
 19 20  1  0
 19 49  1  1
 20 50  1  0
 21 22  1  0
 21 23  1  0
 21 51  1  6
 22 52  1  0
 23 24  1  0
 23 53  1  6
 24 54  1  0
M  END
>  <i_m_ct_stereo_status>  (381) 
1

>  <s_m_source_file>  (381) 
/var/tmp/pbs.5076255.sched01/tmpimq9cq4v/129n8p27m2m.sdf

>  <i_m_source_file_index>  (381) 
40

>  <i_lp_mmshare_version>  (381) 
48012

>  <i_f3d_flags>  (381) 
0

>  <s_epik_input>  (381) 
W0NIMl0xW0NIMl1bQ0BIXShbQ0gyXTIpW0NAQF0yKFtDSDNdKVtDQEhdKEMoPVtDSDJdKVtDQEBIXTNbT0hdKVtDQF0xKFtDSDNdKVtDQEBIXShbQ0BAXTM0NSlbQ0BASF0oW09IXSlbQ0gyXVtDQEhdKFtDSDJdNClbQ0BIXShbT0hdKVtDQEBIXTVbT0hd

>  <s_epik_cmdline>  (381) 
J2VwaWtfcHl0aG9uJywgJy1waHQnLCAnMi4wJywgJy1waCcsICc3LjAnLCAnLXRuJywgJzgnLCAnLW1hJywgJzIwMCcsICctaW1hZScsICc8aW5maWxlLm1hZT4nLCAnLW9tYWUnLCAnPG91dGZpbGUubWFlPic=

>  <r_lp_tautomer_probability>  (381) 
1

>  <r_epik_Ionization_Penalty>  (381) 
1.04588e-06

>  <r_epik_Ionization_Penalty_Charging>  (381) 
0

>  <r_epik_Ionization_Penalty_Neutral>  (381) 
1.04588e-06

>  <r_epik_State_Penalty>  (381) 
-0

>  <r_epik_Charging_Adjusted_Penalty>  (381) 
0

>  <i_epik_Tot_Q>  (381) 
0

>  <i_epik_Tot_abs_Q>  (381) 
0

>  <s_lp_Force_Field>  (381) 
OPLS3e

>  <r_lp_Energy>  (381) 
65.2119

>  <b_lp_Chiralities_Consistent>  (381) 
1

>  <s_lp_Variant>  (381) 
119:0-1

>  <s_i_glide_gridfile>  (381) 
pfpi4k_grid

>  <i_i_glide_lignum>  (381) 
40

>  <i_i_glide_rotatable_bonds>  (381) 
4

>  <r_i_docking_score>  (381) 
-3.659

>  <r_i_glide_ligand_efficiency>  (381) 
-0.152458

>  <r_i_glide_ligand_efficiency_sa>  (381) 
-0.439766

>  <r_i_glide_ligand_efficiency_ln>  (381) 
-0.875767

>  <r_i_glide_gscore>  (381) 
-3.659

>  <r_i_glide_lipo>  (381) 
-0.530997

>  <r_i_glide_hbond>  (381) 
0

>  <r_i_glide_metal>  (381) 
-0

>  <r_i_glide_rewards>  (381) 
-1.12875

>  <r_i_glide_evdw>  (381) 
-23.0534

>  <r_i_glide_ecoul>  (381) 
-5.64388

>  <r_i_glide_erotb>  (381) 
0

>  <r_i_glide_esite>  (381) 
0

>  <r_i_glide_emodel>  (381) 
-35.0665

>  <r_i_glide_energy>  (381) 
-28.6973

>  <r_i_glide_einternal>  (381) 
0.882648

>  <r_i_glide_intrahb_reward>  (381) 
-0

>  <i_i_glide_confnum>  (381) 
1

>  <i_i_glide_posenum>  (381) 
18

>  <r_i_glide_eff_state_penalty>  (381) 
0

>  <ligand_id>  (381) 
119

>  <original_smiles>  (381) 
C=C1C2C3(C)CC3CCC2(C)C2C(O)CC3CC2(C1O)C(O)C3O

>  <smiles>  (381) 
[H]OC1([H])C(=C([H])[H])C2([H])C3(C([H])([H])[H])C([H])([H])C3([H])C([H])([H])C([H])([H])C2(C([H])([H])[H])C2([H])C([H])(O[H])C([H])([H])C3([H])C([H])([H])C12C([H])(O[H])C3([H])O[H]

$$$$
