0:0:0
     RDKit          3D

 39 42  0  0  1  0  0  0  0  0999 V2000
   -1.6511   -8.6148    2.3699 C   0  0  0  0  0  0  0  0  0  0  0  0
   -0.5307   -7.6555    2.7035 C   0  0  0  0  0  0  0  0  0  0  0  0
   -0.4848   -7.0375    3.9702 C   0  0  0  0  0  0  0  0  0  0  0  0
    0.5632   -6.1463    4.2813 C   0  0  0  0  0  0  0  0  0  0  0  0
    1.5756   -5.8735    3.3350 C   0  0  0  0  0  0  0  0  0  0  0  0
    2.7190   -4.9360    3.6986 C   0  0  0  0  0  0  0  0  0  0  0  0
    3.2307   -4.1852    2.5600 N   0  0  0  0  0  0  0  0  0  0  0  0
    2.6447   -3.1363    1.9477 C   0  0  0  0  0  0  0  0  0  0  0  0
    3.2914   -2.5804    0.9259 N   0  0  0  0  0  0  0  0  0  0  0  0
    4.4372   -3.3543    0.8693 C   0  0  0  0  0  0  0  0  0  0  0  0
    5.5844   -3.3272    0.0379 C   0  0  0  0  0  0  0  0  0  0  0  0
    5.8147   -2.4141   -0.9641 O   0  0  0  0  0  0  0  0  0  0  0  0
    4.8435   -2.1950   -1.9130 C   0  0  0  0  0  0  0  0  0  0  0  0
    4.1017   -3.2417   -2.4973 C   0  0  0  0  0  0  0  0  0  0  0  0
    3.1796   -2.9415   -3.5163 C   0  0  0  0  0  0  0  0  0  0  0  0
    3.0364   -1.5998   -3.9152 C   0  0  0  0  0  0  0  0  0  0  0  0
    3.7497   -0.5921   -3.3744 N   0  0  0  0  0  0  0  0  0  0  0  0
    4.6068   -0.8879   -2.3767 C   0  0  0  0  0  0  0  0  0  0  0  0
    6.5780   -4.2145    0.2675 N   0  0  0  0  0  0  0  0  0  0  0  0
    6.4285   -5.1217    1.2397 C   0  0  0  0  0  0  0  0  0  0  0  0
    5.4071   -5.2876    2.0856 N   0  0  0  0  0  0  0  0  0  0  0  0
    4.4259   -4.3654    1.8720 C   0  0  0  0  0  0  0  0  0  0  0  0
    1.5291   -6.5070    2.0724 C   0  0  0  0  0  0  0  0  0  0  0  0
    0.4752   -7.3830    1.7555 C   0  0  0  0  0  0  0  0  0  0  0  0
   -2.5850   -8.2458    2.7841 H   0  0  0  0  0  0  0  0  0  0  0  0
   -1.4572   -9.6015    2.7892 H   0  0  0  0  0  0  0  0  0  0  0  0
   -1.7671   -8.7221    1.2921 H   0  0  0  0  0  0  0  0  0  0  0  0
   -1.2488   -7.2525    4.7058 H   0  0  0  0  0  0  0  0  0  0  0  0
    0.5943   -5.6872    5.2590 H   0  0  0  0  0  0  0  0  0  0  0  0
    2.3857   -4.2192    4.4512 H   0  0  0  0  0  0  0  0  0  0  0  0
    3.5328   -5.5119    4.1414 H   0  0  0  0  0  0  0  0  0  0  0  0
    1.6862   -2.7576    2.2689 H   0  0  0  0  0  0  0  0  0  0  0  0
    4.2439   -4.2575   -2.1700 H   0  0  0  0  0  0  0  0  0  0  0  0
    2.5923   -3.7226   -3.9764 H   0  0  0  0  0  0  0  0  0  0  0  0
    2.3447   -1.3230   -4.6932 H   0  0  0  0  0  0  0  0  0  0  0  0
    5.1601   -0.0580   -1.9719 H   0  0  0  0  0  0  0  0  0  0  0  0
    7.2535   -5.8078    1.3570 H   0  0  0  0  0  0  0  0  0  0  0  0
    2.3042   -6.3402    1.3392 H   0  0  0  0  0  0  0  0  0  0  0  0
    0.4569   -7.8585    0.7861 H   0  0  0  0  0  0  0  0  0  0  0  0
  1  2  1  0
  1 25  1  0
  1 26  1  0
  1 27  1  0
  2 24  2  0
  2  3  1  0
  3  4  2  0
  3 28  1  0
  4  5  1  0
  4 29  1  0
  5  6  1  0
  5 23  2  0
  6  7  1  0
  6 30  1  0
  6 31  1  0
  7 22  1  0
  7  8  1  0
  8  9  2  0
  8 32  1  0
  9 10  1  0
 10 22  2  0
 10 11  1  0
 11 12  1  0
 11 19  2  0
 12 13  1  0
 13 18  1  0
 13 14  2  0
 14 15  1  0
 14 33  1  0
 15 16  2  0
 15 34  1  0
 16 17  1  0
 16 35  1  0
 17 18  2  0
 18 36  1  0
 19 20  1  0
 20 21  2  0
 20 37  1  0
 21 22  1  0
 23 24  1  0
 23 38  1  0
 24 39  1  0
M  END
>  <i_m_ct_stereo_status>  (1) 
1

>  <s_m_source_file>  (1) 
/var/tmp/pbs.5076255.sched01/tmps52fw2z9/0bkrl5082.sdf

>  <i_m_source_file_index>  (1) 
1

>  <i_lp_mmshare_version>  (1) 
48012

>  <i_f3d_flags>  (1) 
0

>  <s_epik_input>  (1) 
W0NIM11jMVtjSF1bY0hdYyhbY0hdW2NIXTEpW0NIMl1uKFtjSF1uMiljKGMyMyluW2NIXW5jM09jNFtjSF1bY0hdW2NIXW5bY0hdNA==

>  <s_epik_cmdline>  (1) 
J2VwaWtfcHl0aG9uJywgJy1waHQnLCAnMi4wJywgJy1waCcsICc3LjAnLCAnLXRuJywgJzgnLCAnLW1hJywgJzIwMCcsICctaW1hZScsICc8aW5maWxlLm1hZT4nLCAnLW9tYWUnLCAnPG91dGZpbGUubWFlPic=

>  <r_lp_tautomer_probability>  (1) 
1

>  <r_epik_Ionization_Penalty>  (1) 
0.000841616

>  <r_epik_Ionization_Penalty_Charging>  (1) 
0

>  <r_epik_Ionization_Penalty_Neutral>  (1) 
0.000841616

>  <r_epik_State_Penalty>  (1) 
0.000541136

>  <r_epik_Charging_Adjusted_Penalty>  (1) 
0.000541136

>  <i_epik_Tot_Q>  (1) 
0

>  <i_epik_Tot_abs_Q>  (1) 
0

>  <s_lp_Force_Field>  (1) 
OPLS3e

>  <r_lp_Energy>  (1) 
38.0095

>  <b_lp_Chiralities_Consistent>  (1) 
1

>  <s_lp_Variant>  (1) 
0:0-1

>  <s_i_glide_gridfile>  (1) 
pfpi4k_grid

>  <i_i_glide_lignum>  (1) 
1

>  <i_i_glide_rotatable_bonds>  (1) 
4

>  <r_i_docking_score>  (1) 
-3.2744

>  <r_i_glide_ligand_efficiency>  (1) 
-0.136433

>  <r_i_glide_ligand_efficiency_sa>  (1) 
-0.393542

>  <r_i_glide_ligand_efficiency_ln>  (1) 
-0.783715

>  <r_i_glide_gscore>  (1) 
-3.2744

>  <r_i_glide_lipo>  (1) 
-0.572512

>  <r_i_glide_hbond>  (1) 
0

>  <r_i_glide_metal>  (1) 
-0

>  <r_i_glide_rewards>  (1) 
-1.39278

>  <r_i_glide_evdw>  (1) 
-31.9681

>  <r_i_glide_ecoul>  (1) 
-2.9541

>  <r_i_glide_erotb>  (1) 
0.739946

>  <r_i_glide_esite>  (1) 
-0.00753241

>  <r_i_glide_emodel>  (1) 
-41.5107

>  <r_i_glide_energy>  (1) 
-34.9222

>  <r_i_glide_einternal>  (1) 
0.814364

>  <r_i_glide_intrahb_reward>  (1) 
-0

>  <i_i_glide_confnum>  (1) 
3

>  <i_i_glide_posenum>  (1) 
3

>  <r_i_glide_eff_state_penalty>  (1) 
0

>  <ligand_id>  (1) 
0

>  <original_smiles>  (1) 
Cc1ccc(Cn2cnc3c(Oc4cccnc4)ncnc32)cc1

>  <smiles>  (1) 
[H]c1nc(Oc2c([H])nc([H])c([H])c2[H])c2nc([H])n(C([H])([H])c3c([H])c([H])c(C([H])([H])[H])c([H])c3[H])c2n1

$$$$
0:0:1
     RDKit          3D

 39 42  0  0  1  0  0  0  0  0999 V2000
    2.9846    0.0499   -5.0881 C   0  0  0  0  0  0  0  0  0  0  0  0
    3.4690   -0.8213   -3.9434 C   0  0  0  0  0  0  0  0  0  0  0  0
    3.1778   -2.1995   -3.9202 C   0  0  0  0  0  0  0  0  0  0  0  0
    3.6213   -2.9958   -2.8454 C   0  0  0  0  0  0  0  0  0  0  0  0
    4.3642   -2.4291   -1.7886 C   0  0  0  0  0  0  0  0  0  0  0  0
    4.8796   -3.2942   -0.6531 C   0  0  0  0  0  0  0  0  0  0  0  0
    4.0207   -3.2449    0.5163 N   0  0  0  0  0  0  0  0  0  0  0  0
    3.1528   -4.1926    0.9161 C   0  0  0  0  0  0  0  0  0  0  0  0
    2.4911   -3.9943    2.0549 N   0  0  0  0  0  0  0  0  0  0  0  0
    2.9757   -2.7560    2.4316 C   0  0  0  0  0  0  0  0  0  0  0  0
    2.7355   -1.9346    3.5544 C   0  0  0  0  0  0  0  0  0  0  0  0
    1.8951   -2.2855    4.5843 O   0  0  0  0  0  0  0  0  0  0  0  0
    0.6619   -1.6860    4.7092 C   0  0  0  0  0  0  0  0  0  0  0  0
    0.3241   -0.4264    4.1535 C   0  0  0  0  0  0  0  0  0  0  0  0
   -0.9588    0.0993    4.3937 C   0  0  0  0  0  0  0  0  0  0  0  0
   -1.8601   -0.6502    5.1664 C   0  0  0  0  0  0  0  0  0  0  0  0
   -1.5629   -1.8572    5.6915 N   0  0  0  0  0  0  0  0  0  0  0  0
   -0.3265   -2.3508    5.4653 C   0  0  0  0  0  0  0  0  0  0  0  0
    3.4202   -0.7753    3.6716 N   0  0  0  0  0  0  0  0  0  0  0  0
    4.2815   -0.4207    2.7123 C   0  0  0  0  0  0  0  0  0  0  0  0
    4.6199   -1.0833    1.6030 N   0  0  0  0  0  0  0  0  0  0  0  0
    3.9324   -2.2592    1.4958 C   0  0  0  0  0  0  0  0  0  0  0  0
    4.6569   -1.0535   -1.8166 C   0  0  0  0  0  0  0  0  0  0  0  0
    4.2120   -0.2568   -2.8906 C   0  0  0  0  0  0  0  0  0  0  0  0
    1.9788   -0.2452   -5.3914 H   0  0  0  0  0  0  0  0  0  0  0  0
    3.6482   -0.0479   -5.9476 H   0  0  0  0  0  0  0  0  0  0  0  0
    2.9539    1.1013   -4.7969 H   0  0  0  0  0  0  0  0  0  0  0  0
    2.6036   -2.6547   -4.7106 H   0  0  0  0  0  0  0  0  0  0  0  0
    3.3956   -4.0474   -2.8526 H   0  0  0  0  0  0  0  0  0  0  0  0
    4.9756   -4.3287   -0.9877 H   0  0  0  0  0  0  0  0  0  0  0  0
    5.8736   -2.9588   -0.3593 H   0  0  0  0  0  0  0  0  0  0  0  0
    3.0170   -5.1015    0.3533 H   0  0  0  0  0  0  0  0  0  0  0  0
    1.0203    0.1505    3.5630 H   0  0  0  0  0  0  0  0  0  0  0  0
   -1.2483    1.0597    3.9931 H   0  0  0  0  0  0  0  0  0  0  0  0
   -2.8515   -0.2775    5.3730 H   0  0  0  0  0  0  0  0  0  0  0  0
   -0.1148   -3.3122    5.9125 H   0  0  0  0  0  0  0  0  0  0  0  0
    4.7809    0.5226    2.8712 H   0  0  0  0  0  0  0  0  0  0  0  0
    5.2257   -0.5977   -1.0193 H   0  0  0  0  0  0  0  0  0  0  0  0
    4.4308    0.7994   -2.9051 H   0  0  0  0  0  0  0  0  0  0  0  0
  1  2  1  0
  1 25  1  0
  1 26  1  0
  1 27  1  0
  2 24  2  0
  2  3  1  0
  3  4  2  0
  3 28  1  0
  4  5  1  0
  4 29  1  0
  5  6  1  0
  5 23  2  0
  6  7  1  0
  6 30  1  0
  6 31  1  0
  7 22  1  0
  7  8  1  0
  8  9  2  0
  8 32  1  0
  9 10  1  0
 10 22  2  0
 10 11  1  0
 11 12  1  0
 11 19  2  0
 12 13  1  0
 13 18  1  0
 13 14  2  0
 14 15  1  0
 14 33  1  0
 15 16  2  0
 15 34  1  0
 16 17  1  0
 16 35  1  0
 17 18  2  0
 18 36  1  0
 19 20  1  0
 20 21  2  0
 20 37  1  0
 21 22  1  0
 23 24  1  0
 23 38  1  0
 24 39  1  0
M  END
>  <i_m_ct_stereo_status>  (2) 
1

>  <s_m_source_file>  (2) 
/var/tmp/pbs.5076255.sched01/tmps52fw2z9/0bkrl5082.sdf

>  <i_m_source_file_index>  (2) 
1

>  <i_lp_mmshare_version>  (2) 
48012

>  <i_f3d_flags>  (2) 
0

>  <s_epik_input>  (2) 
W0NIM11jMVtjSF1bY0hdYyhbY0hdW2NIXTEpW0NIMl1uKFtjSF1uMiljKGMyMyluW2NIXW5jM09jNFtjSF1bY0hdW2NIXW5bY0hdNA==

>  <s_epik_cmdline>  (2) 
J2VwaWtfcHl0aG9uJywgJy1waHQnLCAnMi4wJywgJy1waCcsICc3LjAnLCAnLXRuJywgJzgnLCAnLW1hJywgJzIwMCcsICctaW1hZScsICc8aW5maWxlLm1hZT4nLCAnLW9tYWUnLCAnPG91dGZpbGUubWFlPic=

>  <r_lp_tautomer_probability>  (2) 
1

>  <r_epik_Ionization_Penalty>  (2) 
0.000841616

>  <r_epik_Ionization_Penalty_Charging>  (2) 
0

>  <r_epik_Ionization_Penalty_Neutral>  (2) 
0.000841616

>  <r_epik_State_Penalty>  (2) 
0.000541136

>  <r_epik_Charging_Adjusted_Penalty>  (2) 
0.000541136

>  <i_epik_Tot_Q>  (2) 
0

>  <i_epik_Tot_abs_Q>  (2) 
0

>  <s_lp_Force_Field>  (2) 
OPLS3e

>  <r_lp_Energy>  (2) 
38.0095

>  <b_lp_Chiralities_Consistent>  (2) 
1

>  <s_lp_Variant>  (2) 
0:0-1

>  <s_i_glide_gridfile>  (2) 
pfpi4k_grid

>  <i_i_glide_lignum>  (2) 
1

>  <i_i_glide_rotatable_bonds>  (2) 
4

>  <r_i_docking_score>  (2) 
-3.14123

>  <r_i_glide_ligand_efficiency>  (2) 
-0.130885

>  <r_i_glide_ligand_efficiency_sa>  (2) 
-0.377536

>  <r_i_glide_ligand_efficiency_ln>  (2) 
-0.75184

>  <r_i_glide_gscore>  (2) 
-3.14123

>  <r_i_glide_lipo>  (2) 
-0.614052

>  <r_i_glide_hbond>  (2) 
0

>  <r_i_glide_metal>  (2) 
-0

>  <r_i_glide_rewards>  (2) 
-1.34246

>  <r_i_glide_evdw>  (2) 
-29.1224

>  <r_i_glide_ecoul>  (2) 
-3.06739

>  <r_i_glide_erotb>  (2) 
0.739946

>  <r_i_glide_esite>  (2) 
-0.0084285

>  <r_i_glide_emodel>  (2) 
-38.3404

>  <r_i_glide_energy>  (2) 
-32.1898

>  <r_i_glide_einternal>  (2) 
0.993737

>  <r_i_glide_intrahb_reward>  (2) 
-0

>  <i_i_glide_confnum>  (2) 
3

>  <i_i_glide_posenum>  (2) 
1

>  <r_i_glide_eff_state_penalty>  (2) 
0

>  <ligand_id>  (2) 
0

>  <original_smiles>  (2) 
Cc1ccc(Cn2cnc3c(Oc4cccnc4)ncnc32)cc1

>  <smiles>  (2) 
[H]c1nc(Oc2c([H])nc([H])c([H])c2[H])c2nc([H])n(C([H])([H])c3c([H])c([H])c(C([H])([H])[H])c([H])c3[H])c2n1

$$$$
0:0:2
     RDKit          3D

 39 42  0  0  1  0  0  0  0  0999 V2000
   -1.8569   -8.9863    2.4154 C   0  0  0  0  0  0  0  0  0  0  0  0
   -0.9037   -7.8919    2.8202 C   0  0  0  0  0  0  0  0  0  0  0  0
    0.0503   -7.4381    1.8921 C   0  0  0  0  0  0  0  0  0  0  0  0
    0.9584   -6.4268    2.2311 C   0  0  0  0  0  0  0  0  0  0  0  0
    0.9388   -5.8535    3.5295 C   0  0  0  0  0  0  0  0  0  0  0  0
    1.9307   -4.7762    3.9721 C   0  0  0  0  0  0  0  0  0  0  0  0
    2.6269   -4.0981    2.8750 N   0  0  0  0  0  0  0  0  0  0  0  0
    3.4536   -4.6415    1.9586 C   0  0  0  0  0  0  0  0  0  0  0  0
    3.9464   -3.8421    1.0165 N   0  0  0  0  0  0  0  0  0  0  0  0
    3.4435   -2.6124    1.4172 C   0  0  0  0  0  0  0  0  0  0  0  0
    3.6085   -1.2990    0.9101 C   0  0  0  0  0  0  0  0  0  0  0  0
    4.3247   -0.9703   -0.2164 O   0  0  0  0  0  0  0  0  0  0  0  0
    5.5440   -1.5678   -0.4249 C   0  0  0  0  0  0  0  0  0  0  0  0
    6.5985   -1.4259    0.4985 C   0  0  0  0  0  0  0  0  0  0  0  0
    7.8535   -1.9806    0.1890 C   0  0  0  0  0  0  0  0  0  0  0  0
    8.0010   -2.6753   -1.0275 C   0  0  0  0  0  0  0  0  0  0  0  0
    6.9941   -2.8235   -1.9122 N   0  0  0  0  0  0  0  0  0  0  0  0
    5.7911   -2.2915   -1.6096 C   0  0  0  0  0  0  0  0  0  0  0  0
    3.0181   -0.2663    1.5598 N   0  0  0  0  0  0  0  0  0  0  0  0
    2.2837   -0.5355    2.6455 C   0  0  0  0  0  0  0  0  0  0  0  0
    2.0251   -1.7084    3.2326 N   0  0  0  0  0  0  0  0  0  0  0  0
    2.6393   -2.7380    2.5800 C   0  0  0  0  0  0  0  0  0  0  0  0
   -0.0255   -6.3067    4.4628 C   0  0  0  0  0  0  0  0  0  0  0  0
   -0.9497   -7.3179    4.1113 C   0  0  0  0  0  0  0  0  0  0  0  0
   -1.3480   -9.7322    1.8028 H   0  0  0  0  0  0  0  0  0  0  0  0
   -2.6642   -8.5647    1.8226 H   0  0  0  0  0  0  0  0  0  0  0  0
   -2.2775   -9.4781    3.2885 H   0  0  0  0  0  0  0  0  0  0  0  0
    0.0998   -7.8688    0.9039 H   0  0  0  0  0  0  0  0  0  0  0  0
    1.6480   -6.1488    1.4577 H   0  0  0  0  0  0  0  0  0  0  0  0
    1.3976   -4.0298    4.5668 H   0  0  0  0  0  0  0  0  0  0  0  0
    2.6824   -5.2004    4.6410 H   0  0  0  0  0  0  0  0  0  0  0  0
    3.6832   -5.7027    1.9590 H   0  0  0  0  0  0  0  0  0  0  0  0
    6.4454   -0.8747    1.4174 H   0  0  0  0  0  0  0  0  0  0  0  0
    8.6926   -1.8613    0.8579 H   0  0  0  0  0  0  0  0  0  0  0  0
    8.9531   -3.0919   -1.3001 H   0  0  0  0  0  0  0  0  0  0  0  0
    5.0221   -2.4303   -2.3516 H   0  0  0  0  0  0  0  0  0  0  0  0
    1.8345    0.3294    3.1117 H   0  0  0  0  0  0  0  0  0  0  0  0
   -0.0633   -5.8853    5.4573 H   0  0  0  0  0  0  0  0  0  0  0  0
   -1.6850   -7.6606    4.8303 H   0  0  0  0  0  0  0  0  0  0  0  0
  1  2  1  0
  1 25  1  0
  1 26  1  0
  1 27  1  0
  2 24  2  0
  2  3  1  0
  3  4  2  0
  3 28  1  0
  4  5  1  0
  4 29  1  0
  5  6  1  0
  5 23  2  0
  6  7  1  0
  6 30  1  0
  6 31  1  0
  7 22  1  0
  7  8  1  0
  8  9  2  0
  8 32  1  0
  9 10  1  0
 10 22  2  0
 10 11  1  0
 11 12  1  0
 11 19  2  0
 12 13  1  0
 13 18  1  0
 13 14  2  0
 14 15  1  0
 14 33  1  0
 15 16  2  0
 15 34  1  0
 16 17  1  0
 16 35  1  0
 17 18  2  0
 18 36  1  0
 19 20  1  0
 20 21  2  0
 20 37  1  0
 21 22  1  0
 23 24  1  0
 23 38  1  0
 24 39  1  0
M  END
>  <i_m_ct_stereo_status>  (3) 
1

>  <s_m_source_file>  (3) 
/var/tmp/pbs.5076255.sched01/tmps52fw2z9/0bkrl5082.sdf

>  <i_m_source_file_index>  (3) 
1

>  <i_lp_mmshare_version>  (3) 
48012

>  <i_f3d_flags>  (3) 
0

>  <s_epik_input>  (3) 
W0NIM11jMVtjSF1bY0hdYyhbY0hdW2NIXTEpW0NIMl1uKFtjSF1uMiljKGMyMyluW2NIXW5jM09jNFtjSF1bY0hdW2NIXW5bY0hdNA==

>  <s_epik_cmdline>  (3) 
J2VwaWtfcHl0aG9uJywgJy1waHQnLCAnMi4wJywgJy1waCcsICc3LjAnLCAnLXRuJywgJzgnLCAnLW1hJywgJzIwMCcsICctaW1hZScsICc8aW5maWxlLm1hZT4nLCAnLW9tYWUnLCAnPG91dGZpbGUubWFlPic=

>  <r_lp_tautomer_probability>  (3) 
1

>  <r_epik_Ionization_Penalty>  (3) 
0.000841616

>  <r_epik_Ionization_Penalty_Charging>  (3) 
0

>  <r_epik_Ionization_Penalty_Neutral>  (3) 
0.000841616

>  <r_epik_State_Penalty>  (3) 
0.000541136

>  <r_epik_Charging_Adjusted_Penalty>  (3) 
0.000541136

>  <i_epik_Tot_Q>  (3) 
0

>  <i_epik_Tot_abs_Q>  (3) 
0

>  <s_lp_Force_Field>  (3) 
OPLS3e

>  <r_lp_Energy>  (3) 
38.0095

>  <b_lp_Chiralities_Consistent>  (3) 
1

>  <s_lp_Variant>  (3) 
0:0-1

>  <s_i_glide_gridfile>  (3) 
pfpi4k_grid

>  <i_i_glide_lignum>  (3) 
1

>  <i_i_glide_rotatable_bonds>  (3) 
4

>  <r_i_docking_score>  (3) 
-2.4889

>  <r_i_glide_ligand_efficiency>  (3) 
-0.103704

>  <r_i_glide_ligand_efficiency_sa>  (3) 
-0.299134

>  <r_i_glide_ligand_efficiency_ln>  (3) 
-0.595707

>  <r_i_glide_gscore>  (3) 
-2.4889

>  <r_i_glide_lipo>  (3) 
-0.287995

>  <r_i_glide_hbond>  (3) 
-0.0360609

>  <r_i_glide_metal>  (3) 
-0

>  <r_i_glide_rewards>  (3) 
-1.24963

>  <r_i_glide_evdw>  (3) 
-30.4882

>  <r_i_glide_ecoul>  (3) 
-0.72552

>  <r_i_glide_erotb>  (3) 
0.739946

>  <r_i_glide_esite>  (3) 
-0.021916

>  <r_i_glide_emodel>  (3) 
-34.8232

>  <r_i_glide_energy>  (3) 
-31.2137

>  <r_i_glide_einternal>  (3) 
2.64567

>  <r_i_glide_intrahb_reward>  (3) 
-0

>  <i_i_glide_confnum>  (3) 
2

>  <i_i_glide_posenum>  (3) 
4

>  <r_i_glide_eff_state_penalty>  (3) 
0

>  <ligand_id>  (3) 
0

>  <original_smiles>  (3) 
Cc1ccc(Cn2cnc3c(Oc4cccnc4)ncnc32)cc1

>  <smiles>  (3) 
[H]c1nc(Oc2c([H])nc([H])c([H])c2[H])c2nc([H])n(C([H])([H])c3c([H])c([H])c(C([H])([H])[H])c([H])c3[H])c2n1

$$$$
1:0:0
     RDKit          3D

 23 24  0  0  1  0  0  0  0  0999 V2000
    6.1139   -6.9415    1.6618 O   0  0  0  0  0  0  0  0  0  0  0  0
    4.8944   -6.7808    1.6929 C   0  0  0  0  0  0  0  0  0  0  0  0
    4.0297   -7.6408    2.6143 C   0  0  0  0  0  0  0  0  0  0  0  0
    3.0224   -8.7894    1.6885 Cl  0  0  0  0  0  0  0  0  0  0  0  0
    4.2136   -5.7681    0.8912 C   0  0  0  0  0  0  0  0  0  0  0  0
    4.8002   -4.8986    0.0154 C   0  0  0  0  0  0  0  0  0  0  0  0
    3.6919   -4.1550   -0.4917 C   0  0  0  0  0  0  0  0  0  0  0  0
    3.6744   -3.0765   -1.4868 C   0  0  0  0  0  0  0  0  0  0  0  0
    2.7270   -3.0602   -2.5409 C   0  0  0  0  0  0  0  0  0  0  0  0
    2.7438   -2.0414   -3.5152 C   0  0  0  0  0  0  0  0  0  0  0  0
    3.6832   -1.0019   -3.4202 C   0  0  0  0  0  0  0  0  0  0  0  0
    4.6154   -1.0025   -2.3640 C   0  0  0  0  0  0  0  0  0  0  0  0
    4.6251   -2.0415   -1.4124 C   0  0  0  0  0  0  0  0  0  0  0  0
    2.5554   -4.5497    0.0682 N   0  0  0  0  0  0  0  0  0  0  0  0
    2.8759   -5.5867    0.9479 O   0  0  0  0  0  0  0  0  0  0  0  0
    4.6362   -8.2155    3.3158 H   0  0  0  0  0  0  0  0  0  0  0  0
    3.3616   -7.0033    3.1933 H   0  0  0  0  0  0  0  0  0  0  0  0
    5.8494   -4.8352   -0.2350 H   0  0  0  0  0  0  0  0  0  0  0  0
    1.9918   -3.8478   -2.6183 H   0  0  0  0  0  0  0  0  0  0  0  0
    2.0186   -2.0490   -4.3155 H   0  0  0  0  0  0  0  0  0  0  0  0
    3.6733   -0.1980   -4.1423 H   0  0  0  0  0  0  0  0  0  0  0  0
    5.3284   -0.1990   -2.2861 H   0  0  0  0  0  0  0  0  0  0  0  0
    5.3411   -2.0402   -0.6054 H   0  0  0  0  0  0  0  0  0  0  0  0
  1  2  2  0
  2  3  1  0
  2  5  1  0
  3  4  1  0
  3 16  1  0
  3 17  1  0
  5 15  1  0
  5  6  2  0
  6  7  1  0
  6 18  1  0
  7  8  1  0
  7 14  2  0
  8 13  1  0
  8  9  2  0
  9 10  1  0
  9 19  1  0
 10 11  2  0
 10 20  1  0
 11 12  1  0
 11 21  1  0
 12 13  2  0
 12 22  1  0
 13 23  1  0
 14 15  1  0
M  END
>  <i_m_ct_stereo_status>  (4) 
1

>  <s_m_source_file>  (4) 
/var/tmp/pbs.5076255.sched01/tmps52fw2z9/0bkrl5082.sdf

>  <i_m_source_file_index>  (4) 
2

>  <i_lp_mmshare_version>  (4) 
48012

>  <i_f3d_flags>  (4) 
0

>  <s_epik_input>  (4) 
Q2xbQ0gyXUMoPU8pYzFbY0hdYyhubzEpLWMyW2NIXVtjSF1bY0hdW2NIXVtjSF0y

>  <s_epik_cmdline>  (4) 
J2VwaWtfcHl0aG9uJywgJy1waHQnLCAnMi4wJywgJy1waCcsICc3LjAnLCAnLXRuJywgJzgnLCAnLW1hJywgJzIwMCcsICctaW1hZScsICc8aW5maWxlLm1hZT4nLCAnLW9tYWUnLCAnPG91dGZpbGUubWFlPic=

>  <r_lp_tautomer_probability>  (4) 
1

>  <r_epik_Ionization_Penalty>  (4) 
9.23407e-13

>  <r_epik_Ionization_Penalty_Charging>  (4) 
0

>  <r_epik_Ionization_Penalty_Neutral>  (4) 
9.23407e-13

>  <r_epik_State_Penalty>  (4) 
-0

>  <r_epik_Charging_Adjusted_Penalty>  (4) 
0

>  <i_epik_Tot_Q>  (4) 
0

>  <i_epik_Tot_abs_Q>  (4) 
0

>  <s_lp_Force_Field>  (4) 
OPLS3e

>  <r_lp_Energy>  (4) 
14.2494

>  <b_lp_Chiralities_Consistent>  (4) 
1

>  <s_lp_Variant>  (4) 
1:0-1

>  <s_i_glide_gridfile>  (4) 
pfpi4k_grid

>  <i_i_glide_lignum>  (4) 
2

>  <i_i_glide_rotatable_bonds>  (4) 
3

>  <r_i_docking_score>  (4) 
-3.00699

>  <r_i_glide_ligand_efficiency>  (4) 
-0.200466

>  <r_i_glide_ligand_efficiency_sa>  (4) 
-0.494392

>  <r_i_glide_ligand_efficiency_ln>  (4) 
-0.810936

>  <r_i_glide_gscore>  (4) 
-3.00699

>  <r_i_glide_lipo>  (4) 
-0.454534

>  <r_i_glide_hbond>  (4) 
0

>  <r_i_glide_metal>  (4) 
-0

>  <r_i_glide_rewards>  (4) 
-1.97707

>  <r_i_glide_evdw>  (4) 
-21.5036

>  <r_i_glide_ecoul>  (4) 
-0.803335

>  <r_i_glide_erotb>  (4) 
0.687353

>  <r_i_glide_esite>  (4) 
-0.0670596

>  <r_i_glide_emodel>  (4) 
-25.3903

>  <r_i_glide_energy>  (4) 
-22.307

>  <r_i_glide_einternal>  (4) 
2.0823

>  <r_i_glide_intrahb_reward>  (4) 
-0

>  <i_i_glide_confnum>  (4) 
5

>  <i_i_glide_posenum>  (4) 
4

>  <r_i_glide_eff_state_penalty>  (4) 
0

>  <ligand_id>  (4) 
1

>  <original_smiles>  (4) 
O=C(CCl)c1cc(-c2ccccc2)no1

>  <smiles>  (4) 
[H]c1c(-c2c([H])c([H])c([H])c([H])c2[H])noc1C(=O)C([H])([H])Cl

$$$$
1:0:1
     RDKit          3D

 23 24  0  0  1  0  0  0  0  0999 V2000
    2.5072   -7.4694    2.8203 O   0  0  0  0  0  0  0  0  0  0  0  0
    3.3800   -6.7795    2.2961 C   0  0  0  0  0  0  0  0  0  0  0  0
    4.8185   -6.9233    2.7805 C   0  0  0  0  0  0  0  0  0  0  0  0
    5.7822   -7.9417    1.6780 Cl  0  0  0  0  0  0  0  0  0  0  0  0
    3.0547   -5.8444    1.2226 C   0  0  0  0  0  0  0  0  0  0  0  0
    3.8581   -4.8681    0.6916 C   0  0  0  0  0  0  0  0  0  0  0  0
    3.0232   -4.2570   -0.2977 C   0  0  0  0  0  0  0  0  0  0  0  0
    3.3284   -3.1549   -1.2274 C   0  0  0  0  0  0  0  0  0  0  0  0
    4.2986   -2.1831   -0.8910 C   0  0  0  0  0  0  0  0  0  0  0  0
    4.5982   -1.1287   -1.7824 C   0  0  0  0  0  0  0  0  0  0  0  0
    3.9467   -1.0425   -3.0276 C   0  0  0  0  0  0  0  0  0  0  0  0
    2.9927   -2.0139   -3.3782 C   0  0  0  0  0  0  0  0  0  0  0  0
    2.6817   -3.0573   -2.4827 C   0  0  0  0  0  0  0  0  0  0  0  0
    1.8245   -4.8316   -0.3201 N   0  0  0  0  0  0  0  0  0  0  0  0
    1.8298   -5.8453    0.6435 O   0  0  0  0  0  0  0  0  0  0  0  0
    5.3070   -5.9541    2.8752 H   0  0  0  0  0  0  0  0  0  0  0  0
    4.8251   -7.4023    3.7626 H   0  0  0  0  0  0  0  0  0  0  0  0
    4.8781   -4.6382    0.9544 H   0  0  0  0  0  0  0  0  0  0  0  0
    4.8012   -2.2365    0.0655 H   0  0  0  0  0  0  0  0  0  0  0  0
    5.3148   -0.3727   -1.4975 H   0  0  0  0  0  0  0  0  0  0  0  0
    4.1619   -0.2229   -3.7017 H   0  0  0  0  0  0  0  0  0  0  0  0
    2.4755   -1.9523   -4.3226 H   0  0  0  0  0  0  0  0  0  0  0  0
    1.9450   -3.7952   -2.7695 H   0  0  0  0  0  0  0  0  0  0  0  0
  1  2  2  0
  2  3  1  0
  2  5  1  0
  3  4  1  0
  3 16  1  0
  3 17  1  0
  5 15  1  0
  5  6  2  0
  6  7  1  0
  6 18  1  0
  7  8  1  0
  7 14  2  0
  8 13  1  0
  8  9  2  0
  9 10  1  0
  9 19  1  0
 10 11  2  0
 10 20  1  0
 11 12  1  0
 11 21  1  0
 12 13  2  0
 12 22  1  0
 13 23  1  0
 14 15  1  0
M  END
>  <i_m_ct_stereo_status>  (5) 
1

>  <s_m_source_file>  (5) 
/var/tmp/pbs.5076255.sched01/tmps52fw2z9/0bkrl5082.sdf

>  <i_m_source_file_index>  (5) 
2

>  <i_lp_mmshare_version>  (5) 
48012

>  <i_f3d_flags>  (5) 
0

>  <s_epik_input>  (5) 
Q2xbQ0gyXUMoPU8pYzFbY0hdYyhubzEpLWMyW2NIXVtjSF1bY0hdW2NIXVtjSF0y

>  <s_epik_cmdline>  (5) 
J2VwaWtfcHl0aG9uJywgJy1waHQnLCAnMi4wJywgJy1waCcsICc3LjAnLCAnLXRuJywgJzgnLCAnLW1hJywgJzIwMCcsICctaW1hZScsICc8aW5maWxlLm1hZT4nLCAnLW9tYWUnLCAnPG91dGZpbGUubWFlPic=

>  <r_lp_tautomer_probability>  (5) 
1

>  <r_epik_Ionization_Penalty>  (5) 
9.23407e-13

>  <r_epik_Ionization_Penalty_Charging>  (5) 
0

>  <r_epik_Ionization_Penalty_Neutral>  (5) 
9.23407e-13

>  <r_epik_State_Penalty>  (5) 
-0

>  <r_epik_Charging_Adjusted_Penalty>  (5) 
0

>  <i_epik_Tot_Q>  (5) 
0

>  <i_epik_Tot_abs_Q>  (5) 
0

>  <s_lp_Force_Field>  (5) 
OPLS3e

>  <r_lp_Energy>  (5) 
14.2494

>  <b_lp_Chiralities_Consistent>  (5) 
1

>  <s_lp_Variant>  (5) 
1:0-1

>  <s_i_glide_gridfile>  (5) 
pfpi4k_grid

>  <i_i_glide_lignum>  (5) 
2

>  <i_i_glide_rotatable_bonds>  (5) 
3

>  <r_i_docking_score>  (5) 
-2.90872

>  <r_i_glide_ligand_efficiency>  (5) 
-0.193914

>  <r_i_glide_ligand_efficiency_sa>  (5) 
-0.478234

>  <r_i_glide_ligand_efficiency_ln>  (5) 
-0.784433

>  <r_i_glide_gscore>  (5) 
-2.90872

>  <r_i_glide_lipo>  (5) 
-0.330524

>  <r_i_glide_hbond>  (5) 
0

>  <r_i_glide_metal>  (5) 
-0

>  <r_i_glide_rewards>  (5) 
-1.90537

>  <r_i_glide_evdw>  (5) 
-18.196

>  <r_i_glide_ecoul>  (5) 
-1.96077

>  <r_i_glide_erotb>  (5) 
0.687353

>  <r_i_glide_esite>  (5) 
-0.156256

>  <r_i_glide_emodel>  (5) 
-21.1146

>  <r_i_glide_energy>  (5) 
-20.1568

>  <r_i_glide_einternal>  (5) 
6.05353

>  <r_i_glide_intrahb_reward>  (5) 
-0

>  <i_i_glide_confnum>  (5) 
4

>  <i_i_glide_posenum>  (5) 
27

>  <r_i_glide_eff_state_penalty>  (5) 
0

>  <ligand_id>  (5) 
1

>  <original_smiles>  (5) 
O=C(CCl)c1cc(-c2ccccc2)no1

>  <smiles>  (5) 
[H]c1c(-c2c([H])c([H])c([H])c([H])c2[H])noc1C(=O)C([H])([H])Cl

$$$$
1:0:2
     RDKit          3D

 23 24  0  0  1  0  0  0  0  0999 V2000
    0.7146   -6.9450    1.5403 O   0  0  0  0  0  0  0  0  0  0  0  0
    1.8220   -6.5781    1.9411 C   0  0  0  0  0  0  0  0  0  0  0  0
    2.4479   -7.1915    3.1924 C   0  0  0  0  0  0  0  0  0  0  0  0
    1.9110   -6.3552    4.6766 Cl  0  0  0  0  0  0  0  0  0  0  0  0
    2.5715   -5.5221    1.2738 C   0  0  0  0  0  0  0  0  0  0  0  0
    2.2365   -4.9326    0.0887 C   0  0  0  0  0  0  0  0  0  0  0  0
    3.2586   -3.9481   -0.0784 C   0  0  0  0  0  0  0  0  0  0  0  0
    3.4698   -2.9812   -1.1686 C   0  0  0  0  0  0  0  0  0  0  0  0
    2.7084   -3.0569   -2.3591 C   0  0  0  0  0  0  0  0  0  0  0  0
    2.9216   -2.1512   -3.4195 C   0  0  0  0  0  0  0  0  0  0  0  0
    3.8837   -1.1308   -3.2937 C   0  0  0  0  0  0  0  0  0  0  0  0
    4.6395   -1.0391   -2.1076 C   0  0  0  0  0  0  0  0  0  0  0  0
    4.4348   -1.9534   -1.0557 C   0  0  0  0  0  0  0  0  0  0  0  0
    4.1085   -3.9676    0.9422 N   0  0  0  0  0  0  0  0  0  0  0  0
    3.6789   -4.9690    1.8152 O   0  0  0  0  0  0  0  0  0  0  0  0
    2.2097   -8.2510    3.2957 H   0  0  0  0  0  0  0  0  0  0  0  0
    3.5345   -7.1033    3.1454 H   0  0  0  0  0  0  0  0  0  0  0  0
    1.4133   -5.1732   -0.5673 H   0  0  0  0  0  0  0  0  0  0  0  0
    1.9673   -3.8341   -2.4804 H   0  0  0  0  0  0  0  0  0  0  0  0
    2.3240   -2.2319   -4.3164 H   0  0  0  0  0  0  0  0  0  0  0  0
    4.0326   -0.4190   -4.0912 H   0  0  0  0  0  0  0  0  0  0  0  0
    5.3689   -0.2541   -1.9940 H   0  0  0  0  0  0  0  0  0  0  0  0
    5.0254   -1.8554   -0.1544 H   0  0  0  0  0  0  0  0  0  0  0  0
  1  2  2  0
  2  3  1  0
  2  5  1  0
  3  4  1  0
  3 16  1  0
  3 17  1  0
  5 15  1  0
  5  6  2  0
  6  7  1  0
  6 18  1  0
  7  8  1  0
  7 14  2  0
  8 13  1  0
  8  9  2  0
  9 10  1  0
  9 19  1  0
 10 11  2  0
 10 20  1  0
 11 12  1  0
 11 21  1  0
 12 13  2  0
 12 22  1  0
 13 23  1  0
 14 15  1  0
M  END
>  <i_m_ct_stereo_status>  (6) 
1

>  <s_m_source_file>  (6) 
/var/tmp/pbs.5076255.sched01/tmps52fw2z9/0bkrl5082.sdf

>  <i_m_source_file_index>  (6) 
2

>  <i_lp_mmshare_version>  (6) 
48012

>  <i_f3d_flags>  (6) 
0

>  <s_epik_input>  (6) 
Q2xbQ0gyXUMoPU8pYzFbY0hdYyhubzEpLWMyW2NIXVtjSF1bY0hdW2NIXVtjSF0y

>  <s_epik_cmdline>  (6) 
J2VwaWtfcHl0aG9uJywgJy1waHQnLCAnMi4wJywgJy1waCcsICc3LjAnLCAnLXRuJywgJzgnLCAnLW1hJywgJzIwMCcsICctaW1hZScsICc8aW5maWxlLm1hZT4nLCAnLW9tYWUnLCAnPG91dGZpbGUubWFlPic=

>  <r_lp_tautomer_probability>  (6) 
1

>  <r_epik_Ionization_Penalty>  (6) 
9.23407e-13

>  <r_epik_Ionization_Penalty_Charging>  (6) 
0

>  <r_epik_Ionization_Penalty_Neutral>  (6) 
9.23407e-13

>  <r_epik_State_Penalty>  (6) 
-0

>  <r_epik_Charging_Adjusted_Penalty>  (6) 
0

>  <i_epik_Tot_Q>  (6) 
0

>  <i_epik_Tot_abs_Q>  (6) 
0

>  <s_lp_Force_Field>  (6) 
OPLS3e

>  <r_lp_Energy>  (6) 
14.2494

>  <b_lp_Chiralities_Consistent>  (6) 
1

>  <s_lp_Variant>  (6) 
1:0-1

>  <s_i_glide_gridfile>  (6) 
pfpi4k_grid

>  <i_i_glide_lignum>  (6) 
2

>  <i_i_glide_rotatable_bonds>  (6) 
3

>  <r_i_docking_score>  (6) 
-2.74492

>  <r_i_glide_ligand_efficiency>  (6) 
-0.182995

>  <r_i_glide_ligand_efficiency_sa>  (6) 
-0.451303

>  <r_i_glide_ligand_efficiency_ln>  (6) 
-0.740259

>  <r_i_glide_gscore>  (6) 
-2.74492

>  <r_i_glide_lipo>  (6) 
-0.299107

>  <r_i_glide_hbond>  (6) 
0

>  <r_i_glide_metal>  (6) 
-0

>  <r_i_glide_rewards>  (6) 
-1.89791

>  <r_i_glide_evdw>  (6) 
-20.4848

>  <r_i_glide_ecoul>  (6) 
-1.216

>  <r_i_glide_erotb>  (6) 
0.687353

>  <r_i_glide_esite>  (6) 
-0.0286125

>  <r_i_glide_emodel>  (6) 
-25.0207

>  <r_i_glide_energy>  (6) 
-21.7008

>  <r_i_glide_einternal>  (6) 
0.715993

>  <r_i_glide_intrahb_reward>  (6) 
-0

>  <i_i_glide_confnum>  (6) 
3

>  <i_i_glide_posenum>  (6) 
24

>  <r_i_glide_eff_state_penalty>  (6) 
0

>  <ligand_id>  (6) 
1

>  <original_smiles>  (6) 
O=C(CCl)c1cc(-c2ccccc2)no1

>  <smiles>  (6) 
[H]c1c(-c2c([H])c([H])c([H])c([H])c2[H])noc1C(=O)C([H])([H])Cl

$$$$
2:0:0
     RDKit          3D

 92 96  0  0  1  0  0  0  0  0999 V2000
   -3.0988    3.4684    8.5294 C   0  0  0  0  0  0  0  0  0  0  0  0
   -2.0469    2.4295    8.1510 C   0  0  0  0  0  0  0  0  0  0  0  0
   -2.3842    1.3449    7.6935 O   0  0  0  0  0  0  0  0  0  0  0  0
   -0.7907    2.8580    8.3031 O   0  0  0  0  0  0  0  0  0  0  0  0
    0.3082    1.9779    8.0396 C   0  0  2  0  0  0  0  0  0  0  0  0
    1.5330    2.4223    8.8148 C   0  0  0  0  0  0  0  0  0  0  0  0
    2.6358    1.5165    8.2709 C   0  0  1  0  0  0  0  0  0  0  0  0
    2.6637    0.2138    9.0994 C   0  0  0  0  0  0  0  0  0  0  0  0
    2.3325    1.4515    6.7226 C   0  0  2  0  0  0  0  0  0  0  0  0
    0.7982    1.7740    6.5706 C   0  0  2  0  0  0  0  0  0  0  0  0
    0.4869    2.8860    5.5235 C   0  0  1  0  0  0  0  0  0  0  0  0
   -0.9756    2.8590    4.9979 C   0  0  0  0  0  0  0  0  0  0  0  0
    0.6898    4.1554    6.1008 O   0  0  0  0  0  0  0  0  0  0  0  0
    1.4177    2.8391    4.2968 C   0  0  0  0  0  0  0  0  0  0  0  0
    1.7039    1.4252    3.7123 C   0  0  1  0  0  0  0  0  0  0  0  0
    1.7998    1.6933    2.3210 O   0  0  0  0  0  0  0  0  0  0  0  0
    2.9733    0.6165    4.2278 C   0  0  1  0  0  0  0  0  0  0  0  0
    3.9712    1.6253    4.1571 O   0  0  0  0  0  0  0  0  0  0  0  0
    3.0426    0.3310    5.8140 C   0  0  1  0  0  0  0  0  0  0  0  0
    4.5436    0.3257    6.3040 C   0  0  0  0  0  0  0  0  0  0  0  0
    2.5095   -1.1026    6.0724 C   0  0  1  0  0  0  0  0  0  0  0  0
    1.1181   -1.2226    5.8497 O   0  0  0  0  0  0  0  0  0  0  0  0
    3.3179   -2.2181    5.3577 C   0  0  1  0  0  0  0  0  0  0  0  0
    2.5068   -3.3765    5.3675 O   0  0  0  0  0  0  0  0  0  0  0  0
    4.0341   -1.8858    3.9837 C   0  0  1  0  0  0  0  0  0  0  0  0
    4.4517   -3.1942    3.1369 C   0  0  2  0  0  0  0  0  0  0  0  0
    5.0546   -4.2150    4.1532 C   0  0  0  0  0  0  0  0  0  0  0  0
    5.5869   -2.9720    2.0752 C   0  0  0  0  0  0  0  0  0  0  0  0
    5.9086   -4.1873    1.1867 C   0  0  0  0  0  0  0  0  0  0  0  0
    4.6533   -4.6952    0.4667 C   0  0  1  0  0  0  0  0  0  0  0  0
    5.0041   -5.8436   -0.2685 O   0  0  0  0  0  0  0  0  0  0  0  0
    3.4638   -4.9961    1.4250 C   0  0  0  0  0  0  0  0  0  0  0  0
    2.2240   -5.3100    0.5623 C   0  0  0  0  0  0  0  0  0  0  0  0
    3.7185   -6.2794    2.2589 C   0  0  0  0  0  0  0  0  0  0  0  0
    3.1965   -3.7380    2.3517 C   0  0  2  0  0  0  0  0  0  0  0  0
    2.5501   -2.5486    1.5902 C   0  0  0  0  0  0  0  0  0  0  0  0
    2.1676   -1.3044    2.4312 C   0  0  1  0  0  0  0  0  0  0  0  0
    1.0614   -1.6666    3.2217 O   0  0  0  0  0  0  0  0  0  0  0  0
    3.3547   -0.6544    3.2370 C   0  0  1  0  0  0  0  0  0  0  0  0
    4.3071   -0.0789    2.1324 C   0  0  0  0  0  0  0  0  0  0  0  0
   -2.9276    4.3641    7.9348 H   0  0  0  0  0  0  0  0  0  0  0  0
   -3.0397    3.7222    9.5863 H   0  0  0  0  0  0  0  0  0  0  0  0
   -4.1073    3.1022    8.3149 H   0  0  0  0  0  0  0  0  0  0  0  0
    0.0490    0.9896    8.4222 H   0  0  0  0  0  0  0  0  0  0  0  0
    1.7569    3.4638    8.5960 H   0  0  0  0  0  0  0  0  0  0  0  0
    1.3809    2.3301    9.8924 H   0  0  0  0  0  0  0  0  0  0  0  0
    3.5937    2.0132    8.4416 H   0  0  0  0  0  0  0  0  0  0  0  0
    1.7573   -0.3743    8.9700 H   0  0  0  0  0  0  0  0  0  0  0  0
    2.7452    0.4482   10.1608 H   0  0  0  0  0  0  0  0  0  0  0  0
    3.5251   -0.4114    8.8823 H   0  0  0  0  0  0  0  0  0  0  0  0
    2.8332    2.3723    6.4118 H   0  0  0  0  0  0  0  0  0  0  0  0
    0.2585    0.9056    6.2199 H   0  0  0  0  0  0  0  0  0  0  0  0
   -1.2048    1.8986    4.5236 H   0  0  0  0  0  0  0  0  0  0  0  0
   -1.1501    3.6285    4.2370 H   0  0  0  0  0  0  0  0  0  0  0  0
   -1.7201    3.0278    5.7877 H   0  0  0  0  0  0  0  0  0  0  0  0
    0.6190    4.8165    5.4215 H   0  0  0  0  0  0  0  0  0  0  0  0
    0.9378    3.4430    3.5292 H   0  0  0  0  0  0  0  0  0  0  0  0
    2.3383    3.3894    4.4837 H   0  0  0  0  0  0  0  0  0  0  0  0
    0.8091    0.8125    3.8366 H   0  0  0  0  0  0  0  0  0  0  0  0
    2.3643    2.4499    2.1903 H   0  0  0  0  0  0  0  0  0  0  0  0
    4.0693    1.8977    3.2447 H   0  0  0  0  0  0  0  0  0  0  0  0
    5.2649    0.0529    5.5399 H   0  0  0  0  0  0  0  0  0  0  0  0
    4.7229   -0.3561    7.1279 H   0  0  0  0  0  0  0  0  0  0  0  0
    4.8709    1.3142    6.6273 H   0  0  0  0  0  0  0  0  0  0  0  0
    2.6166   -1.3408    7.1233 H   0  0  0  0  0  0  0  0  0  0  0  0
    0.9711   -1.1563    4.9025 H   0  0  0  0  0  0  0  0  0  0  0  0
    4.1313   -2.4613    6.0414 H   0  0  0  0  0  0  0  0  0  0  0  0
    1.7672   -3.2102    4.7891 H   0  0  0  0  0  0  0  0  0  0  0  0
    5.0111   -1.5097    4.2685 H   0  0  0  0  0  0  0  0  0  0  0  0
    5.7944   -4.8846    3.7304 H   0  0  0  0  0  0  0  0  0  0  0  0
    4.3061   -4.8541    4.6150 H   0  0  0  0  0  0  0  0  0  0  0  0
    5.5994   -3.7107    4.9517 H   0  0  0  0  0  0  0  0  0  0  0  0
    5.3394   -2.2148    1.3552 H   0  0  0  0  0  0  0  0  0  0  0  0
    6.5033   -2.6179    2.5382 H   0  0  0  0  0  0  0  0  0  0  0  0
    6.6368   -3.8897    0.4335 H   0  0  0  0  0  0  0  0  0  0  0  0
    6.3903   -4.9945    1.7314 H   0  0  0  0  0  0  0  0  0  0  0  0
    4.3536   -3.9342   -0.2579 H   0  0  0  0  0  0  0  0  0  0  0  0
    4.3441   -5.9738   -0.9427 H   0  0  0  0  0  0  0  0  0  0  0  0
    1.3420   -5.4000    1.1938 H   0  0  0  0  0  0  0  0  0  0  0  0
    2.3357   -6.2555    0.0357 H   0  0  0  0  0  0  0  0  0  0  0  0
    2.0580   -4.5629   -0.2109 H   0  0  0  0  0  0  0  0  0  0  0  0
    3.0609   -6.3329    3.1265 H   0  0  0  0  0  0  0  0  0  0  0  0
    4.7419   -6.3667    2.6070 H   0  0  0  0  0  0  0  0  0  0  0  0
    3.5435   -7.1862    1.6779 H   0  0  0  0  0  0  0  0  0  0  0  0
    2.4463   -4.0778    3.0590 H   0  0  0  0  0  0  0  0  0  0  0  0
    3.1663   -2.2711    0.7407 H   0  0  0  0  0  0  0  0  0  0  0  0
    1.6318   -2.8660    1.1221 H   0  0  0  0  0  0  0  0  0  0  0  0
    1.7856   -0.6009    1.6980 H   0  0  0  0  0  0  0  0  0  0  0  0
    0.3373   -1.8508    2.6329 H   0  0  0  0  0  0  0  0  0  0  0  0
    4.2358   -0.5642    1.1680 H   0  0  0  0  0  0  0  0  0  0  0  0
    5.3496   -0.0982    2.4464 H   0  0  0  0  0  0  0  0  0  0  0  0
    4.0797    0.9357    1.8362 H   0  0  0  0  0  0  0  0  0  0  0  0
  1  2  1  0
  1 41  1  0
  1 42  1  0
  1 43  1  0
  2  3  2  0
  2  4  1  0
  4  5  1  0
  5 10  1  0
  5  6  1  0
  5 44  1  1
  6  7  1  0
  6 45  1  0
  6 46  1  0
  7  8  1  0
  7  9  1  0
  7 47  1  6
  8 48  1  0
  8 49  1  0
  8 50  1  0
  9 19  1  0
  9 10  1  0
  9 51  1  6
 10 11  1  0
 10 52  1  6
 11 12  1  0
 11 13  1  1
 11 14  1  0
 12 53  1  0
 12 54  1  0
 12 55  1  0
 13 56  1  0
 14 15  1  0
 14 57  1  0
 14 58  1  0
 15 16  1  0
 15 17  1  0
 15 59  1  6
 16 60  1  0
 17 39  1  0
 17 18  1  1
 17 19  1  0
 18 61  1  0
 19 20  1  1
 19 21  1  0
 20 62  1  0
 20 63  1  0
 20 64  1  0
 21 22  1  0
 21 23  1  0
 21 65  1  1
 22 66  1  0
 23 24  1  0
 23 25  1  0
 23 67  1  1
 24 68  1  0
 25 39  1  0
 25 26  1  0
 25 69  1  1
 26 35  1  0
 26 27  1  1
 26 28  1  0
 27 70  1  0
 27 71  1  0
 27 72  1  0
 28 29  1  0
 28 73  1  0
 28 74  1  0
 29 30  1  0
 29 75  1  0
 29 76  1  0
 30 31  1  0
 30 32  1  0
 30 77  1  6
 31 78  1  0
 32 33  1  0
 32 34  1  0
 32 35  1  0
 33 79  1  0
 33 80  1  0
 33 81  1  0
 34 82  1  0
 34 83  1  0
 34 84  1  0
 35 36  1  0
 35 85  1  1
 36 37  1  0
 36 86  1  0
 36 87  1  0
 37 38  1  0
 37 39  1  0
 37 88  1  6
 38 89  1  0
 39 40  1  6
 40 90  1  0
 40 91  1  0
 40 92  1  0
M  END
>  <i_m_ct_stereo_status>  (7) 
1

>  <s_m_source_file>  (7) 
/var/tmp/pbs.5076255.sched01/tmps52fw2z9/0bkrl5082.sdf

>  <i_m_source_file_index>  (7) 
3

>  <i_lp_mmshare_version>  (7) 
48012

>  <i_f3d_flags>  (7) 
0

>  <s_epik_input>  (7) 
W0NIM11DKD1PKU9bQ0BIXShbQ0gyXVtDQEhdMVtDSDNdKVtDQEBIXShbQ0BAXShbQ0gzXSkoW09IXSlbQ0gyXVtDQEhdMltPSF0pW0NAQEhdMVtDQF0oW0NIM10pKFtDQF0yM1tPSF0pW0NAQEhdKFtPSF0pW0NAQEhdKFtPSF0pW0NASF00W0NAQF01KFtDSDNdKVtDQEhdKEMoW0NIM10pKFtDSDNdKVtDQEhdKFtPSF0pW0NIMl1bQ0gyXTUpW0NIMl1bQ0BASF0oW09IXSlbQ0BAXTM0W0NIM10=

>  <s_epik_cmdline>  (7) 
J2VwaWtfcHl0aG9uJywgJy1waHQnLCAnMi4wJywgJy1waCcsICc3LjAnLCAnLXRuJywgJzgnLCAnLW1hJywgJzIwMCcsICctaW1hZScsICc8aW5maWxlLm1hZT4nLCAnLW9tYWUnLCAnPG91dGZpbGUubWFlPic=

>  <r_lp_tautomer_probability>  (7) 
1

>  <r_epik_Ionization_Penalty>  (7) 
5.86576e-06

>  <r_epik_Ionization_Penalty_Charging>  (7) 
0

>  <r_epik_Ionization_Penalty_Neutral>  (7) 
5.86576e-06

>  <r_epik_State_Penalty>  (7) 
-0

>  <r_epik_Charging_Adjusted_Penalty>  (7) 
0

>  <i_epik_Tot_Q>  (7) 
0

>  <i_epik_Tot_abs_Q>  (7) 
0

>  <s_epik_Chemistry_Notes>  (7) 
This compound has an ester and may undergo hydrolysis at high or low pH.

>  <s_lp_Force_Field>  (7) 
OPLS3e

>  <r_lp_Energy>  (7) 
137.769

>  <b_lp_Chiralities_Consistent>  (7) 
1

>  <s_lp_Variant>  (7) 
2:0-1

>  <s_i_glide_gridfile>  (7) 
pfpi4k_grid

>  <i_i_glide_lignum>  (7) 
3

>  <i_i_glide_rotatable_bonds>  (7) 
9

>  <r_i_docking_score>  (7) 
-4.51844

>  <r_i_glide_ligand_efficiency>  (7) 
-0.112961

>  <r_i_glide_ligand_efficiency_sa>  (7) 
-0.386321

>  <r_i_glide_ligand_efficiency_ln>  (7) 
-0.963649

>  <r_i_glide_gscore>  (7) 
-4.51844

>  <r_i_glide_lipo>  (7) 
-0.333049

>  <r_i_glide_hbond>  (7) 
-0.366739

>  <r_i_glide_metal>  (7) 
-0

>  <r_i_glide_rewards>  (7) 
-1

>  <r_i_glide_evdw>  (7) 
-24.6844

>  <r_i_glide_ecoul>  (7) 
-10.9004

>  <r_i_glide_erotb>  (7) 
0.0644164

>  <r_i_glide_esite>  (7) 
-0.0137871

>  <r_i_glide_emodel>  (7) 
-56.573

>  <r_i_glide_energy>  (7) 
-35.5848

>  <r_i_glide_einternal>  (7) 
2.07151

>  <r_i_glide_intrahb_reward>  (7) 
-1

>  <i_i_glide_confnum>  (7) 
2

>  <i_i_glide_posenum>  (7) 
16

>  <r_i_glide_eff_state_penalty>  (7) 
0

>  <ligand_id>  (7) 
2

>  <original_smiles>  (7) 
CC(=O)OC1CC(C)C2C1C(C)(O)CC(O)C1(O)C2(C)C(O)C(O)C2C3(C)CCC(O)C(C)(C)C3CC(O)C21C

>  <smiles>  (7) 
[H]OC1([H])C([H])(O[H])C2(C([H])([H])[H])C3([H])C([H])(C([H])([H])[H])C([H])([H])C([H])(OC(=O)C([H])([H])[H])C3([H])C(O[H])(C([H])([H])[H])C([H])([H])C([H])(O[H])C2(O[H])C2(C([H])([H])[H])C([H])(O[H])C([H])([H])C3([H])C(C([H])([H])[H])(C([H])([H])[H])C([H])(O[H])C([H])([H])C([H])([H])C3(C([H])([H])[H])C12[H]

$$$$
2:0:1
     RDKit          3D

 92 96  0  0  1  0  0  0  0  0999 V2000
   -2.5711    3.1665    5.4044 C   0  0  0  0  0  0  0  0  0  0  0  0
   -1.6107    2.0808    5.8816 C   0  0  0  0  0  0  0  0  0  0  0  0
   -2.0090    1.0918    6.5063 O   0  0  0  0  0  0  0  0  0  0  0  0
   -0.3366    2.3329    5.5055 O   0  0  0  0  0  0  0  0  0  0  0  0
    0.7283    1.4192    5.7835 C   0  0  2  0  0  0  0  0  0  0  0  0
    1.9026    2.1444    6.4049 C   0  0  0  0  0  0  0  0  0  0  0  0
    2.9954    1.0779    6.4035 C   0  0  1  0  0  0  0  0  0  0  0  0
    2.8823    0.2520    7.7086 C   0  0  0  0  0  0  0  0  0  0  0  0
    2.8235    0.3678    5.0116 C   0  0  2  0  0  0  0  0  0  0  0  0
    1.3215    0.6098    4.5989 C   0  0  2  0  0  0  0  0  0  0  0  0
    1.1369    1.1858    3.1663 C   0  0  1  0  0  0  0  0  0  0  0  0
   -0.3005    0.9539    2.6311 C   0  0  0  0  0  0  0  0  0  0  0  0
    1.3574    2.5860    3.1549 O   0  0  0  0  0  0  0  0  0  0  0  0
    2.1429    0.5930    2.1589 C   0  0  0  0  0  0  0  0  0  0  0  0
    2.3963   -0.9412    2.2532 C   0  0  1  0  0  0  0  0  0  0  0  0
    2.6381   -1.3050    0.8807 O   0  0  0  0  0  0  0  0  0  0  0  0
    3.5936   -1.4740    3.1714 C   0  0  1  0  0  0  0  0  0  0  0  0
    4.6466   -0.6357    2.7138 O   0  0  0  0  0  0  0  0  0  0  0  0
    3.5293   -1.0441    4.7247 C   0  0  1  0  0  0  0  0  0  0  0  0
    4.9786   -0.8571    5.3057 C   0  0  0  0  0  0  0  0  0  0  0  0
    2.9164   -2.2151    5.5528 C   0  0  1  0  0  0  0  0  0  0  0  0
    1.5393   -2.3823    5.3456 O   0  0  0  0  0  0  0  0  0  0  0  0
    3.7027   -3.5534    5.4340 C   0  0  1  0  0  0  0  0  0  0  0  0
    2.8261   -4.5796    5.8564 O   0  0  0  0  0  0  0  0  0  0  0  0
    4.5391   -3.8520    4.1265 C   0  0  1  0  0  0  0  0  0  0  0  0
    4.9445   -5.4078    3.9591 C   0  0  2  0  0  0  0  0  0  0  0  0
    5.4099   -5.8976    5.3640 C   0  0  0  0  0  0  0  0  0  0  0  0
    6.1840   -5.6745    3.0420 C   0  0  0  0  0  0  0  0  0  0  0  0
    6.5054   -7.1585    2.7688 C   0  0  0  0  0  0  0  0  0  0  0  0
    5.2860   -7.9084    2.2118 C   0  0  1  0  0  0  0  0  0  0  0  0
    5.6372   -9.2707    2.0990 O   0  0  0  0  0  0  0  0  0  0  0  0
    4.0071   -7.7565    3.0857 C   0  0  0  0  0  0  0  0  0  0  0  0
    2.8172   -8.3957    2.3311 C   0  0  0  0  0  0  0  0  0  0  0  0
    4.1186   -8.5612    4.4067 C   0  0  0  0  0  0  0  0  0  0  0  0
    3.7257   -6.2230    3.3662 C   0  0  2  0  0  0  0  0  0  0  0  0
    3.1745   -5.4792    2.1227 C   0  0  0  0  0  0  0  0  0  0  0  0
    2.8479   -3.9717    2.3134 C   0  0  1  0  0  0  0  0  0  0  0  0
    1.6879   -3.8893    3.0911 O   0  0  0  0  0  0  0  0  0  0  0  0
    3.9998   -3.0537    2.8606 C   0  0  1  0  0  0  0  0  0  0  0  0
    5.0669   -3.0220    1.7095 C   0  0  0  0  0  0  0  0  0  0  0  0
   -2.5512    3.2324    4.3163 H   0  0  0  0  0  0  0  0  0  0  0  0
   -2.2828    4.1360    5.8076 H   0  0  0  0  0  0  0  0  0  0  0  0
   -3.6014    2.9542    5.7084 H   0  0  0  0  0  0  0  0  0  0  0  0
    0.4132    0.6865    6.5257 H   0  0  0  0  0  0  0  0  0  0  0  0
    2.1984    2.9841    5.7730 H   0  0  0  0  0  0  0  0  0  0  0  0
    1.6543    2.5307    7.3931 H   0  0  0  0  0  0  0  0  0  0  0  0
    3.9577    1.5869    6.4411 H   0  0  0  0  0  0  0  0  0  0  0  0
    1.9616   -0.3237    7.7541 H   0  0  0  0  0  0  0  0  0  0  0  0
    2.8894    0.9204    8.5673 H   0  0  0  0  0  0  0  0  0  0  0  0
    3.7258   -0.4136    7.8632 H   0  0  0  0  0  0  0  0  0  0  0  0
    3.3840    1.0618    4.3784 H   0  0  0  0  0  0  0  0  0  0  0  0
    0.7652   -0.3172    4.5996 H   0  0  0  0  0  0  0  0  0  0  0  0
   -0.5256   -0.1112    2.5770 H   0  0  0  0  0  0  0  0  0  0  0  0
   -0.4395    1.3732    1.6328 H   0  0  0  0  0  0  0  0  0  0  0  0
   -1.0586    1.4044    3.2613 H   0  0  0  0  0  0  0  0  0  0  0  0
    1.0354    2.9468    2.3302 H   0  0  0  0  0  0  0  0  0  0  0  0
    1.7530    0.8315    1.1703 H   0  0  0  0  0  0  0  0  0  0  0  0
    3.0797    1.1487    2.1949 H   0  0  0  0  0  0  0  0  0  0  0  0
    1.4645   -1.4017    2.5653 H   0  0  0  0  0  0  0  0  0  0  0  0
    1.9172   -1.0522    0.3054 H   0  0  0  0  0  0  0  0  0  0  0  0
    4.6324   -0.6854    1.7653 H   0  0  0  0  0  0  0  0  0  0  0  0
    5.7375   -1.4526    4.8045 H   0  0  0  0  0  0  0  0  0  0  0  0
    5.0476   -1.1227    6.3547 H   0  0  0  0  0  0  0  0  0  0  0  0
    5.3308    0.1714    5.2055 H   0  0  0  0  0  0  0  0  0  0  0  0
    2.9651   -1.9882    6.6069 H   0  0  0  0  0  0  0  0  0  0  0  0
    1.4382   -2.8292    4.4976 H   0  0  0  0  0  0  0  0  0  0  0  0
    4.4504   -3.5031    6.2272 H   0  0  0  0  0  0  0  0  0  0  0  0
    2.1707   -4.7046    5.1663 H   0  0  0  0  0  0  0  0  0  0  0  0
    5.5093   -3.4071    4.3164 H   0  0  0  0  0  0  0  0  0  0  0  0
    6.1441   -6.6974    5.3356 H   0  0  0  0  0  0  0  0  0  0  0  0
    4.5947   -6.2616    5.9839 H   0  0  0  0  0  0  0  0  0  0  0  0
    5.9238   -5.1071    5.9137 H   0  0  0  0  0  0  0  0  0  0  0  0
    6.0563   -5.2794    2.0481 H   0  0  0  0  0  0  0  0  0  0  0  0
    7.0677   -5.1857    3.4551 H   0  0  0  0  0  0  0  0  0  0  0  0
    7.3137   -7.2130    2.0423 H   0  0  0  0  0  0  0  0  0  0  0  0
    6.8923   -7.6668    3.6490 H   0  0  0  0  0  0  0  0  0  0  0  0
    5.0822   -7.5306    1.2088 H   0  0  0  0  0  0  0  0  0  0  0  0
    6.3389   -9.3569    1.4657 H   0  0  0  0  0  0  0  0  0  0  0  0
    1.8736   -8.1669    2.8298 H   0  0  0  0  0  0  0  0  0  0  0  0
    2.9097   -9.4855    2.2906 H   0  0  0  0  0  0  0  0  0  0  0  0
    2.7605   -8.0626    1.2954 H   0  0  0  0  0  0  0  0  0  0  0  0
    3.3835   -8.2271    5.1422 H   0  0  0  0  0  0  0  0  0  0  0  0
    5.1062   -8.5031    4.8560 H   0  0  0  0  0  0  0  0  0  0  0  0
    3.9424   -9.6290    4.2506 H   0  0  0  0  0  0  0  0  0  0  0  0
    2.9107   -6.2289    4.0821 H   0  0  0  0  0  0  0  0  0  0  0  0
    3.8657   -5.6022    1.2921 H   0  0  0  0  0  0  0  0  0  0  0  0
    2.2501   -5.9487    1.7791 H   0  0  0  0  0  0  0  0  0  0  0  0
    2.5493   -3.6495    1.3212 H   0  0  0  0  0  0  0  0  0  0  0  0
    1.1894   -3.1593    2.7366 H   0  0  0  0  0  0  0  0  0  0  0  0
    5.0428   -3.8830    1.0524 H   0  0  0  0  0  0  0  0  0  0  0  0
    6.0779   -2.9075    2.1022 H   0  0  0  0  0  0  0  0  0  0  0  0
    4.9248   -2.2297    0.9777 H   0  0  0  0  0  0  0  0  0  0  0  0
  1  2  1  0
  1 41  1  0
  1 42  1  0
  1 43  1  0
  2  3  2  0
  2  4  1  0
  4  5  1  0
  5 10  1  0
  5  6  1  0
  5 44  1  1
  6  7  1  0
  6 45  1  0
  6 46  1  0
  7  8  1  0
  7  9  1  0
  7 47  1  6
  8 48  1  0
  8 49  1  0
  8 50  1  0
  9 19  1  0
  9 10  1  0
  9 51  1  6
 10 11  1  0
 10 52  1  6
 11 12  1  0
 11 13  1  1
 11 14  1  0
 12 53  1  0
 12 54  1  0
 12 55  1  0
 13 56  1  0
 14 15  1  0
 14 57  1  0
 14 58  1  0
 15 16  1  0
 15 17  1  0
 15 59  1  1
 16 60  1  0
 17 39  1  0
 17 18  1  6
 17 19  1  0
 18 61  1  0
 19 20  1  1
 19 21  1  0
 20 62  1  0
 20 63  1  0
 20 64  1  0
 21 22  1  0
 21 23  1  0
 21 65  1  1
 22 66  1  0
 23 24  1  0
 23 25  1  0
 23 67  1  1
 24 68  1  0
 25 39  1  0
 25 26  1  0
 25 69  1  1
 26 35  1  0
 26 27  1  1
 26 28  1  0
 27 70  1  0
 27 71  1  0
 27 72  1  0
 28 29  1  0
 28 73  1  0
 28 74  1  0
 29 30  1  0
 29 75  1  0
 29 76  1  0
 30 31  1  0
 30 32  1  0
 30 77  1  6
 31 78  1  0
 32 33  1  0
 32 34  1  0
 32 35  1  0
 33 79  1  0
 33 80  1  0
 33 81  1  0
 34 82  1  0
 34 83  1  0
 34 84  1  0
 35 36  1  0
 35 85  1  1
 36 37  1  0
 36 86  1  0
 36 87  1  0
 37 38  1  0
 37 39  1  0
 37 88  1  6
 38 89  1  0
 39 40  1  6
 40 90  1  0
 40 91  1  0
 40 92  1  0
M  END
>  <i_m_ct_stereo_status>  (8) 
1

>  <s_m_source_file>  (8) 
/var/tmp/pbs.5076255.sched01/tmps52fw2z9/0bkrl5082.sdf

>  <i_m_source_file_index>  (8) 
3

>  <i_lp_mmshare_version>  (8) 
48012

>  <i_f3d_flags>  (8) 
0

>  <s_epik_input>  (8) 
W0NIM11DKD1PKU9bQ0BIXShbQ0gyXVtDQEhdMVtDSDNdKVtDQEBIXShbQ0BAXShbQ0gzXSkoW09IXSlbQ0gyXVtDQEhdMltPSF0pW0NAQEhdMVtDQF0oW0NIM10pKFtDQF0yM1tPSF0pW0NAQEhdKFtPSF0pW0NAQEhdKFtPSF0pW0NASF00W0NAQF01KFtDSDNdKVtDQEhdKEMoW0NIM10pKFtDSDNdKVtDQEhdKFtPSF0pW0NIMl1bQ0gyXTUpW0NIMl1bQ0BASF0oW09IXSlbQ0BAXTM0W0NIM10=

>  <s_epik_cmdline>  (8) 
J2VwaWtfcHl0aG9uJywgJy1waHQnLCAnMi4wJywgJy1waCcsICc3LjAnLCAnLXRuJywgJzgnLCAnLW1hJywgJzIwMCcsICctaW1hZScsICc8aW5maWxlLm1hZT4nLCAnLW9tYWUnLCAnPG91dGZpbGUubWFlPic=

>  <r_lp_tautomer_probability>  (8) 
1

>  <r_epik_Ionization_Penalty>  (8) 
5.86576e-06

>  <r_epik_Ionization_Penalty_Charging>  (8) 
0

>  <r_epik_Ionization_Penalty_Neutral>  (8) 
5.86576e-06

>  <r_epik_State_Penalty>  (8) 
-0

>  <r_epik_Charging_Adjusted_Penalty>  (8) 
0

>  <i_epik_Tot_Q>  (8) 
0

>  <i_epik_Tot_abs_Q>  (8) 
0

>  <s_epik_Chemistry_Notes>  (8) 
This compound has an ester and may undergo hydrolysis at high or low pH.

>  <s_lp_Force_Field>  (8) 
OPLS3e

>  <r_lp_Energy>  (8) 
137.769

>  <b_lp_Chiralities_Consistent>  (8) 
1

>  <s_lp_Variant>  (8) 
2:0-1

>  <s_i_glide_gridfile>  (8) 
pfpi4k_grid

>  <i_i_glide_lignum>  (8) 
3

>  <i_i_glide_rotatable_bonds>  (8) 
9

>  <r_i_docking_score>  (8) 
-3.60787

>  <r_i_glide_ligand_efficiency>  (8) 
-0.0901969

>  <r_i_glide_ligand_efficiency_sa>  (8) 
-0.308469

>  <r_i_glide_ligand_efficiency_ln>  (8) 
-0.769453

>  <r_i_glide_gscore>  (8) 
-3.60787

>  <r_i_glide_lipo>  (8) 
-0.131588

>  <r_i_glide_hbond>  (8) 
-0.0810084

>  <r_i_glide_metal>  (8) 
-0

>  <r_i_glide_rewards>  (8) 
-0.5

>  <r_i_glide_evdw>  (8) 
-28.4148

>  <r_i_glide_ecoul>  (8) 
-10.2203

>  <r_i_glide_erotb>  (8) 
0.0644164

>  <r_i_glide_esite>  (8) 
-0.00590043

>  <r_i_glide_emodel>  (8) 
-51.9079

>  <r_i_glide_energy>  (8) 
-38.6352

>  <r_i_glide_einternal>  (8) 
1.74549

>  <r_i_glide_intrahb_reward>  (8) 
-0.5

>  <i_i_glide_confnum>  (8) 
4

>  <i_i_glide_posenum>  (8) 
12

>  <r_i_glide_eff_state_penalty>  (8) 
0

>  <ligand_id>  (8) 
2

>  <original_smiles>  (8) 
CC(=O)OC1CC(C)C2C1C(C)(O)CC(O)C1(O)C2(C)C(O)C(O)C2C3(C)CCC(O)C(C)(C)C3CC(O)C21C

>  <smiles>  (8) 
[H]OC1([H])C([H])(O[H])C2(C([H])([H])[H])C3([H])C([H])(C([H])([H])[H])C([H])([H])C([H])(OC(=O)C([H])([H])[H])C3([H])C(O[H])(C([H])([H])[H])C([H])([H])C([H])(O[H])C2(O[H])C2(C([H])([H])[H])C([H])(O[H])C([H])([H])C3([H])C(C([H])([H])[H])(C([H])([H])[H])C([H])(O[H])C([H])([H])C([H])([H])C3(C([H])([H])[H])C12[H]

$$$$
2:0:2
     RDKit          3D

 92 96  0  0  1  0  0  0  0  0999 V2000
    1.7461   -8.3588    1.6736 C   0  0  0  0  0  0  0  0  0  0  0  0
    1.8510   -6.8938    1.2889 C   0  0  0  0  0  0  0  0  0  0  0  0
    0.8431   -6.2343    0.9133 O   0  0  0  0  0  0  0  0  0  0  0  0
    3.0860   -6.4120    1.3692 O   0  0  0  0  0  0  0  0  0  0  0  0
    3.3376   -5.0149    1.2135 C   0  0  2  0  0  0  0  0  0  0  0  0
    4.7374   -4.7524    0.6864 C   0  0  0  0  0  0  0  0  0  0  0  0
    4.9050   -3.2480    0.9136 C   0  0  1  0  0  0  0  0  0  0  0  0
    4.3688   -2.4911   -0.3195 C   0  0  0  0  0  0  0  0  0  0  0  0
    4.2409   -3.0124    2.3293 C   0  0  2  0  0  0  0  0  0  0  0  0
    3.2122   -4.1833    2.5203 C   0  0  2  0  0  0  0  0  0  0  0  0
    3.3636   -4.9367    3.8756 C   0  0  1  0  0  0  0  0  0  0  0  0
    2.0992   -5.7116    4.3641 C   0  0  0  0  0  0  0  0  0  0  0  0
    4.4172   -5.8643    3.7973 O   0  0  0  0  0  0  0  0  0  0  0  0
    3.7433   -3.9970    5.0197 C   0  0  0  0  0  0  0  0  0  0  0  0
    2.9427   -2.6701    5.0691 C   0  0  1  0  0  0  0  0  0  0  0  0
    2.8145   -2.5092    6.4683 O   0  0  0  0  0  0  0  0  0  0  0  0
    3.5689   -1.3833    4.3903 C   0  0  1  0  0  0  0  0  0  0  0  0
    4.8848   -1.4351    4.9234 O   0  0  0  0  0  0  0  0  0  0  0  0
    3.8886   -1.5243    2.8187 C   0  0  1  0  0  0  0  0  0  0  0  0
    5.1513   -0.6854    2.4332 C   0  0  0  0  0  0  0  0  0  0  0  0
    2.7234   -0.8852    2.0287 C   0  0  1  0  0  0  0  0  0  0  0  0
    1.5627   -1.6586    2.1236 O   0  0  0  0  0  0  0  0  0  0  0  0
    2.4413    0.6035    2.3383 C   0  0  1  0  0  0  0  0  0  0  0  0
    1.1004    0.8353    1.9386 O   0  0  0  0  0  0  0  0  0  0  0  0
    2.8161    1.1606    3.7727 C   0  0  1  0  0  0  0  0  0  0  0  0
    2.1300    2.5746    4.1244 C   0  0  2  0  0  0  0  0  0  0  0  0
    2.2371    3.4399    2.8460 C   0  0  0  0  0  0  0  0  0  0  0  0
    2.8676    3.4276    5.2081 C   0  0  0  0  0  0  0  0  0  0  0  0
    2.1421    4.7213    5.6356 C   0  0  0  0  0  0  0  0  0  0  0  0
    0.6918    4.4545    6.0763 C   0  0  1  0  0  0  0  0  0  0  0  0
    0.0688    5.6853    6.3660 O   0  0  0  0  0  0  0  0  0  0  0  0
   -0.1398    3.6587    5.0274 C   0  0  0  0  0  0  0  0  0  0  0  0
   -1.5006    3.2801    5.6546 C   0  0  0  0  0  0  0  0  0  0  0  0
   -0.4960    4.5320    3.8038 C   0  0  0  0  0  0  0  0  0  0  0  0
    0.6426    2.3528    4.6032 C   0  0  2  0  0  0  0  0  0  0  0  0
    0.6247    1.2587    5.7011 C   0  0  0  0  0  0  0  0  0  0  0  0
    1.3197   -0.0775    5.3525 C   0  0  1  0  0  0  0  0  0  0  0  0
    0.4430   -0.7186    4.4652 O   0  0  0  0  0  0  0  0  0  0  0  0
    2.8295    0.0182    4.8771 C   0  0  1  0  0  0  0  0  0  0  0  0
    3.6201    0.4916    6.1487 C   0  0  0  0  0  0  0  0  0  0  0  0
    2.1735   -8.5081    2.6608 H   0  0  0  0  0  0  0  0  0  0  0  0
    2.2889   -9.0123    0.9793 H   0  0  0  0  0  0  0  0  0  0  0  0
    0.7097   -8.7111    1.6821 H   0  0  0  0  0  0  0  0  0  0  0  0
    2.6699   -4.5821    0.4612 H   0  0  0  0  0  0  0  0  0  0  0  0
    5.4689   -5.2921    1.2830 H   0  0  0  0  0  0  0  0  0  0  0  0
    4.8553   -5.0626   -0.3585 H   0  0  0  0  0  0  0  0  0  0  0  0
    5.9743   -3.0328    0.9701 H   0  0  0  0  0  0  0  0  0  0  0  0
    3.2956   -2.6209   -0.4477 H   0  0  0  0  0  0  0  0  0  0  0  0
    4.8486   -2.8736   -1.2189 H   0  0  0  0  0  0  0  0  0  0  0  0
    4.5988   -1.4292   -0.3063 H   0  0  0  0  0  0  0  0  0  0  0  0
    5.0875   -3.2869    2.9660 H   0  0  0  0  0  0  0  0  0  0  0  0
    2.1969   -3.8199    2.5134 H   0  0  0  0  0  0  0  0  0  0  0  0
    1.2374   -5.0418    4.4599 H   0  0  0  0  0  0  0  0  0  0  0  0
    2.2533   -6.1594    5.3584 H   0  0  0  0  0  0  0  0  0  0  0  0
    1.8002   -6.5425    3.6933 H   0  0  0  0  0  0  0  0  0  0  0  0
    4.2097   -6.4896    3.1018 H   0  0  0  0  0  0  0  0  0  0  0  0
    3.5645   -4.5509    5.9326 H   0  0  0  0  0  0  0  0  0  0  0  0
    4.8176   -3.8335    5.0666 H   0  0  0  0  0  0  0  0  0  0  0  0
    1.9342   -2.8281    4.6729 H   0  0  0  0  0  0  0  0  0  0  0  0
    2.3371   -1.6993    6.6502 H   0  0  0  0  0  0  0  0  0  0  0  0
    5.3568   -0.6744    4.5782 H   0  0  0  0  0  0  0  0  0  0  0  0
    5.3147    0.1804    3.0667 H   0  0  0  0  0  0  0  0  0  0  0  0
    5.0852   -0.3000    1.4216 H   0  0  0  0  0  0  0  0  0  0  0  0
    6.0676   -1.2768    2.4995 H   0  0  0  0  0  0  0  0  0  0  0  0
    2.9357   -0.9049    0.9695 H   0  0  0  0  0  0  0  0  0  0  0  0
    1.0194   -1.4061    1.3770 H   0  0  0  0  0  0  0  0  0  0  0  0
    3.0578    1.1683    1.6375 H   0  0  0  0  0  0  0  0  0  0  0  0
    1.0106    0.6241    1.0057 H   0  0  0  0  0  0  0  0  0  0  0  0
    3.8560    1.4577    3.6817 H   0  0  0  0  0  0  0  0  0  0  0  0
    2.2660    4.5076    3.0204 H   0  0  0  0  0  0  0  0  0  0  0  0
    1.4165    3.2598    2.1565 H   0  0  0  0  0  0  0  0  0  0  0  0
    3.1707    3.2525    2.3251 H   0  0  0  0  0  0  0  0  0  0  0  0
    2.9705    2.8970    6.1363 H   0  0  0  0  0  0  0  0  0  0  0  0
    3.8845    3.6603    4.8783 H   0  0  0  0  0  0  0  0  0  0  0  0
    2.6777    5.1614    6.4748 H   0  0  0  0  0  0  0  0  0  0  0  0
    2.1701    5.4816    4.8611 H   0  0  0  0  0  0  0  0  0  0  0  0
    0.7214    3.8846    7.0070 H   0  0  0  0  0  0  0  0  0  0  0  0
    0.3117    6.3005    5.6723 H   0  0  0  0  0  0  0  0  0  0  0  0
   -2.0435    2.5831    5.0106 H   0  0  0  0  0  0  0  0  0  0  0  0
   -2.1364    4.1597    5.7917 H   0  0  0  0  0  0  0  0  0  0  0  0
   -1.3842    2.8383    6.6409 H   0  0  0  0  0  0  0  0  0  0  0  0
   -0.8051    3.9149    2.9576 H   0  0  0  0  0  0  0  0  0  0  0  0
    0.3178    5.1687    3.4772 H   0  0  0  0  0  0  0  0  0  0  0  0
   -1.3247    5.2044    4.0218 H   0  0  0  0  0  0  0  0  0  0  0  0
    0.0562    1.9576    3.7783 H   0  0  0  0  0  0  0  0  0  0  0  0
    1.0340    1.6705    6.6181 H   0  0  0  0  0  0  0  0  0  0  0  0
   -0.4049    0.9967    5.9470 H   0  0  0  0  0  0  0  0  0  0  0  0
    1.2708   -0.6374    6.2821 H   0  0  0  0  0  0  0  0  0  0  0  0
    0.5647   -0.3271    3.5974 H   0  0  0  0  0  0  0  0  0  0  0  0
    3.0220    1.0302    6.8692 H   0  0  0  0  0  0  0  0  0  0  0  0
    4.4892    1.0976    5.8904 H   0  0  0  0  0  0  0  0  0  0  0  0
    3.9913   -0.3170    6.7779 H   0  0  0  0  0  0  0  0  0  0  0  0
  1  2  1  0
  1 41  1  0
  1 42  1  0
  1 43  1  0
  2  3  2  0
  2  4  1  0
  4  5  1  0
  5 10  1  0
  5  6  1  0
  5 44  1  6
  6  7  1  0
  6 45  1  0
  6 46  1  0
  7  8  1  0
  7  9  1  0
  7 47  1  1
  8 48  1  0
  8 49  1  0
  8 50  1  0
  9 19  1  0
  9 10  1  0
  9 51  1  1
 10 11  1  0
 10 52  1  1
 11 12  1  0
 11 13  1  6
 11 14  1  0
 12 53  1  0
 12 54  1  0
 12 55  1  0
 13 56  1  0
 14 15  1  0
 14 57  1  0
 14 58  1  0
 15 16  1  0
 15 17  1  0
 15 59  1  6
 16 60  1  0
 17 39  1  0
 17 18  1  1
 17 19  1  0
 18 61  1  0
 19 20  1  1
 19 21  1  0
 20 62  1  0
 20 63  1  0
 20 64  1  0
 21 22  1  0
 21 23  1  0
 21 65  1  6
 22 66  1  0
 23 24  1  0
 23 25  1  0
 23 67  1  6
 24 68  1  0
 25 39  1  0
 25 26  1  0
 25 69  1  6
 26 35  1  0
 26 27  1  6
 26 28  1  0
 27 70  1  0
 27 71  1  0
 27 72  1  0
 28 29  1  0
 28 73  1  0
 28 74  1  0
 29 30  1  0
 29 75  1  0
 29 76  1  0
 30 31  1  0
 30 32  1  0
 30 77  1  1
 31 78  1  0
 32 33  1  0
 32 34  1  0
 32 35  1  0
 33 79  1  0
 33 80  1  0
 33 81  1  0
 34 82  1  0
 34 83  1  0
 34 84  1  0
 35 36  1  0
 35 85  1  6
 36 37  1  0
 36 86  1  0
 36 87  1  0
 37 38  1  0
 37 39  1  0
 37 88  1  1
 38 89  1  0
 39 40  1  1
 40 90  1  0
 40 91  1  0
 40 92  1  0
M  END
>  <i_m_ct_stereo_status>  (9) 
1

>  <s_m_source_file>  (9) 
/var/tmp/pbs.5076255.sched01/tmps52fw2z9/0bkrl5082.sdf

>  <i_m_source_file_index>  (9) 
3

>  <i_lp_mmshare_version>  (9) 
48012

>  <i_f3d_flags>  (9) 
0

>  <s_epik_input>  (9) 
W0NIM11DKD1PKU9bQ0BIXShbQ0gyXVtDQEhdMVtDSDNdKVtDQEBIXShbQ0BAXShbQ0gzXSkoW09IXSlbQ0gyXVtDQEhdMltPSF0pW0NAQEhdMVtDQF0oW0NIM10pKFtDQF0yM1tPSF0pW0NAQEhdKFtPSF0pW0NAQEhdKFtPSF0pW0NASF00W0NAQF01KFtDSDNdKVtDQEhdKEMoW0NIM10pKFtDSDNdKVtDQEhdKFtPSF0pW0NIMl1bQ0gyXTUpW0NIMl1bQ0BASF0oW09IXSlbQ0BAXTM0W0NIM10=

>  <s_epik_cmdline>  (9) 
J2VwaWtfcHl0aG9uJywgJy1waHQnLCAnMi4wJywgJy1waCcsICc3LjAnLCAnLXRuJywgJzgnLCAnLW1hJywgJzIwMCcsICctaW1hZScsICc8aW5maWxlLm1hZT4nLCAnLW9tYWUnLCAnPG91dGZpbGUubWFlPic=

>  <r_lp_tautomer_probability>  (9) 
1

>  <r_epik_Ionization_Penalty>  (9) 
5.86576e-06

>  <r_epik_Ionization_Penalty_Charging>  (9) 
0

>  <r_epik_Ionization_Penalty_Neutral>  (9) 
5.86576e-06

>  <r_epik_State_Penalty>  (9) 
-0

>  <r_epik_Charging_Adjusted_Penalty>  (9) 
0

>  <i_epik_Tot_Q>  (9) 
0

>  <i_epik_Tot_abs_Q>  (9) 
0

>  <s_epik_Chemistry_Notes>  (9) 
This compound has an ester and may undergo hydrolysis at high or low pH.

>  <s_lp_Force_Field>  (9) 
OPLS3e

>  <r_lp_Energy>  (9) 
137.769

>  <b_lp_Chiralities_Consistent>  (9) 
1

>  <s_lp_Variant>  (9) 
2:0-1

>  <s_i_glide_gridfile>  (9) 
pfpi4k_grid

>  <i_i_glide_lignum>  (9) 
3

>  <i_i_glide_rotatable_bonds>  (9) 
9

>  <r_i_docking_score>  (9) 
-3.42766

>  <r_i_glide_ligand_efficiency>  (9) 
-0.0856916

>  <r_i_glide_ligand_efficiency_sa>  (9) 
-0.293061

>  <r_i_glide_ligand_efficiency_ln>  (9) 
-0.73102

>  <r_i_glide_gscore>  (9) 
-3.42766

>  <r_i_glide_lipo>  (9) 
-0.215713

>  <r_i_glide_hbond>  (9) 
-0.16

>  <r_i_glide_metal>  (9) 
-0

>  <r_i_glide_rewards>  (9) 
-0.5

>  <r_i_glide_evdw>  (9) 
-33.5502

>  <r_i_glide_ecoul>  (9) 
-6.04119

>  <r_i_glide_erotb>  (9) 
0.0644164

>  <r_i_glide_esite>  (9) 
-0.0326794

>  <r_i_glide_emodel>  (9) 
-51.9423

>  <r_i_glide_energy>  (9) 
-39.5914

>  <r_i_glide_einternal>  (9) 
2.46531

>  <r_i_glide_intrahb_reward>  (9) 
-0.5

>  <i_i_glide_confnum>  (9) 
2

>  <i_i_glide_posenum>  (9) 
1

>  <r_i_glide_eff_state_penalty>  (9) 
0

>  <ligand_id>  (9) 
2

>  <original_smiles>  (9) 
CC(=O)OC1CC(C)C2C1C(C)(O)CC(O)C1(O)C2(C)C(O)C(O)C2C3(C)CCC(O)C(C)(C)C3CC(O)C21C

>  <smiles>  (9) 
[H]OC1([H])C([H])(O[H])C2(C([H])([H])[H])C3([H])C([H])(C([H])([H])[H])C([H])([H])C([H])(OC(=O)C([H])([H])[H])C3([H])C(O[H])(C([H])([H])[H])C([H])([H])C([H])(O[H])C2(O[H])C2(C([H])([H])[H])C([H])(O[H])C([H])([H])C3([H])C(C([H])([H])[H])(C([H])([H])[H])C([H])(O[H])C([H])([H])C([H])([H])C3(C([H])([H])[H])C12[H]

$$$$
3:0:0
     RDKit          3D

 20 20  0  0  1  0  0  0  0  0999 V2000
    3.1821   -0.8550   -3.9718 C   0  0  0  0  0  0  0  0  0  0  0  0
    3.2331   -2.0510   -3.0047 C   0  0  2  0  0  0  0  0  0  0  0  0
    3.0499   -1.6387   -1.6122 N   0  0  0  0  0  0  0  0  0  0  0  0
    3.5825   -2.7124   -0.7752 C   0  0  0  0  0  0  0  0  0  0  0  0
    4.8162   -3.2214   -1.5376 C   0  0  1  0  0  0  0  0  0  0  0  0
    5.0203   -4.6107   -1.3300 O   0  0  0  0  0  0  0  0  0  0  0  0
    4.5767   -2.7980   -3.0108 C   0  0  1  0  0  0  0  0  0  0  0  0
    4.5623   -3.8622   -3.9376 O   0  0  0  0  0  0  0  0  0  0  0  0
    3.2793   -1.1735   -5.0102 H   0  0  0  0  0  0  0  0  0  0  0  0
    3.9766   -0.1331   -3.7732 H   0  0  0  0  0  0  0  0  0  0  0  0
    2.2368   -0.3109   -3.9004 H   0  0  0  0  0  0  0  0  0  0  0  0
    2.4294   -2.7539   -3.2322 H   0  0  0  0  0  0  0  0  0  0  0  0
    3.6065   -0.8154   -1.4565 H   0  0  0  0  0  0  0  0  0  0  0  0
    3.7928   -2.3904    0.2462 H   0  0  0  0  0  0  0  0  0  0  0  0
    2.8186   -3.4970   -0.7265 H   0  0  0  0  0  0  0  0  0  0  0  0
    5.6950   -2.6947   -1.1571 H   0  0  0  0  0  0  0  0  0  0  0  0
    4.3305   -5.1090   -1.7448 H   0  0  0  0  0  0  0  0  0  0  0  0
    5.3811   -2.1163   -3.2938 H   0  0  0  0  0  0  0  0  0  0  0  0
    4.0283   -4.5729   -3.6142 H   0  0  0  0  0  0  0  0  0  0  0  0
    2.0587   -1.4511   -1.3684 H   0  0  0  0  0  0  0  0  0  0  0  0
  1  2  1  0
  1  9  1  0
  1 10  1  0
  1 11  1  0
  2  7  1  0
  2  3  1  0
  2 12  1  6
  3  4  1  0
  3 13  1  0
  3 20  1  0
  4  5  1  0
  4 14  1  0
  4 15  1  0
  5  6  1  0
  5  7  1  0
  5 16  1  1
  6 17  1  0
  7  8  1  0
  7 18  1  6
  8 19  1  0
M  CHG  1   3   1
M  END
>  <i_m_ct_stereo_status>  (10) 
1

>  <s_m_source_file>  (10) 
/var/tmp/pbs.5076255.sched01/tmps52fw2z9/0bkrl5082.sdf

>  <i_m_source_file_index>  (10) 
4

>  <i_lp_mmshare_version>  (10) 
48012

>  <i_f3d_flags>  (10) 
0

>  <s_epik_input>  (10) 
W0NIM11bQ0BASF0xW05IXVtDSDJdW0NAQEhdKFtPSF0pW0NASF0xW09IXQ==

>  <s_epik_cmdline>  (10) 
J2VwaWtfcHl0aG9uJywgJy1waHQnLCAnMi4wJywgJy1waCcsICc3LjAnLCAnLXRuJywgJzgnLCAnLW1hJywgJzIwMCcsICctaW1hZScsICc8aW5maWxlLm1hZT4nLCAnLW9tYWUnLCAnPG91dGZpbGUubWFlPic=

>  <r_epik_Ionization_Penalty>  (10) 
0.00103125

>  <r_epik_Ionization_Penalty_Charging>  (10) 
0.00103117

>  <r_epik_Ionization_Penalty_Neutral>  (10) 
7.67483e-08

>  <r_epik_State_Penalty>  (10) 
0.000673579

>  <r_epik_Charging_Adjusted_Penalty>  (10) 
0.00170475

>  <i_epik_Tot_Q>  (10) 
1

>  <i_epik_Tot_abs_Q>  (10) 
1

>  <s_lp_Force_Field>  (10) 
OPLS3e

>  <r_lp_Energy>  (10) 
9.6533

>  <b_lp_Chiralities_Consistent>  (10) 
1

>  <s_lp_Variant>  (10) 
3:0-1

>  <s_i_glide_gridfile>  (10) 
pfpi4k_grid

>  <i_i_glide_lignum>  (10) 
4

>  <i_i_glide_rotatable_bonds>  (10) 
2

>  <r_i_docking_score>  (10) 
-5.72224

>  <r_i_glide_ligand_efficiency>  (10) 
-0.715279

>  <r_i_glide_ligand_efficiency_sa>  (10) 
-1.43056

>  <r_i_glide_ligand_efficiency_ln>  (10) 
-1.85821

>  <r_i_glide_gscore>  (10) 
-5.72224

>  <r_i_glide_lipo>  (10) 
-0.347215

>  <r_i_glide_hbond>  (10) 
-0.185754

>  <r_i_glide_metal>  (10) 
-0

>  <r_i_glide_rewards>  (10) 
-2.25

>  <r_i_glide_evdw>  (10) 
-11.8313

>  <r_i_glide_ecoul>  (10) 
-14.9847

>  <r_i_glide_erotb>  (10) 
0

>  <r_i_glide_esite>  (10) 
-0.1

>  <r_i_glide_emodel>  (10) 
-38.067

>  <r_i_glide_energy>  (10) 
-26.816

>  <r_i_glide_einternal>  (10) 
0.0746674

>  <r_i_glide_intrahb_reward>  (10) 
-0

>  <i_i_glide_confnum>  (10) 
2

>  <i_i_glide_posenum>  (10) 
1

>  <r_i_glide_eff_state_penalty>  (10) 
0

>  <ligand_id>  (10) 
3

>  <original_smiles>  (10) 
CC1NCC(O)C1O

>  <smiles>  (10) 
[H]OC1([H])C([H])(O[H])C([H])(C([H])([H])[H])[N+]([H])([H])C1([H])[H]

$$$$
3:0:1
     RDKit          3D

 20 20  0  0  1  0  0  0  0  0999 V2000
    2.2944   -3.6209   -0.7952 C   0  0  0  0  0  0  0  0  0  0  0  0
    3.2847   -2.8646   -1.6858 C   0  0  2  0  0  0  0  0  0  0  0  0
    3.4164   -1.4620   -1.2621 N   0  0  0  0  0  0  0  0  0  0  0  0
    3.9961   -0.7499   -2.4119 C   0  0  0  0  0  0  0  0  0  0  0  0
    3.3257   -1.3808   -3.6289 C   0  0  1  0  0  0  0  0  0  0  0  0
    4.1993   -1.3564   -4.7152 O   0  0  0  0  0  0  0  0  0  0  0  0
    2.8851   -2.7936   -3.1758 C   0  0  1  0  0  0  0  0  0  0  0  0
    3.4722   -3.8569   -3.9140 O   0  0  0  0  0  0  0  0  0  0  0  0
    2.2175   -4.6658   -1.0740 H   0  0  0  0  0  0  0  0  0  0  0  0
    1.3071   -3.1997   -0.9347 H   0  0  0  0  0  0  0  0  0  0  0  0
    2.5506   -3.5705    0.2646 H   0  0  0  0  0  0  0  0  0  0  0  0
    4.2813   -3.2978   -1.6032 H   0  0  0  0  0  0  0  0  0  0  0  0
    2.4667   -1.1239   -1.1068 H   0  0  0  0  0  0  0  0  0  0  0  0
    3.8923    0.3323   -2.3943 H   0  0  0  0  0  0  0  0  0  0  0  0
    5.0634   -0.9526   -2.4051 H   0  0  0  0  0  0  0  0  0  0  0  0
    2.4470   -0.7936   -3.8974 H   0  0  0  0  0  0  0  0  0  0  0  0
    4.3759   -0.4543   -4.9568 H   0  0  0  0  0  0  0  0  0  0  0  0
    1.8015   -2.8481   -3.2884 H   0  0  0  0  0  0  0  0  0  0  0  0
    3.2076   -4.6985   -3.5478 H   0  0  0  0  0  0  0  0  0  0  0  0
    3.9822   -1.3728   -0.4244 H   0  0  0  0  0  0  0  0  0  0  0  0
  1  2  1  0
  1  9  1  0
  1 10  1  0
  1 11  1  0
  2  7  1  0
  2  3  1  0
  2 12  1  6
  3  4  1  0
  3 13  1  0
  3 20  1  0
  4  5  1  0
  4 14  1  0
  4 15  1  0
  5  6  1  0
  5  7  1  0
  5 16  1  6
  6 17  1  0
  7  8  1  0
  7 18  1  1
  8 19  1  0
M  CHG  1   3   1
M  END
>  <i_m_ct_stereo_status>  (11) 
1

>  <s_m_source_file>  (11) 
/var/tmp/pbs.5076255.sched01/tmps52fw2z9/0bkrl5082.sdf

>  <i_m_source_file_index>  (11) 
4

>  <i_lp_mmshare_version>  (11) 
48012

>  <i_f3d_flags>  (11) 
0

>  <s_epik_input>  (11) 
W0NIM11bQ0BASF0xW05IXVtDSDJdW0NAQEhdKFtPSF0pW0NASF0xW09IXQ==

>  <s_epik_cmdline>  (11) 
J2VwaWtfcHl0aG9uJywgJy1waHQnLCAnMi4wJywgJy1waCcsICc3LjAnLCAnLXRuJywgJzgnLCAnLW1hJywgJzIwMCcsICctaW1hZScsICc8aW5maWxlLm1hZT4nLCAnLW9tYWUnLCAnPG91dGZpbGUubWFlPic=

>  <r_epik_Ionization_Penalty>  (11) 
0.00103125

>  <r_epik_Ionization_Penalty_Charging>  (11) 
0.00103117

>  <r_epik_Ionization_Penalty_Neutral>  (11) 
7.67483e-08

>  <r_epik_State_Penalty>  (11) 
0.000673579

>  <r_epik_Charging_Adjusted_Penalty>  (11) 
0.00170475

>  <i_epik_Tot_Q>  (11) 
1

>  <i_epik_Tot_abs_Q>  (11) 
1

>  <s_lp_Force_Field>  (11) 
OPLS3e

>  <r_lp_Energy>  (11) 
9.6533

>  <b_lp_Chiralities_Consistent>  (11) 
1

>  <s_lp_Variant>  (11) 
3:0-1

>  <s_i_glide_gridfile>  (11) 
pfpi4k_grid

>  <i_i_glide_lignum>  (11) 
4

>  <i_i_glide_rotatable_bonds>  (11) 
2

>  <r_i_docking_score>  (11) 
-5.60552

>  <r_i_glide_ligand_efficiency>  (11) 
-0.70069

>  <r_i_glide_ligand_efficiency_sa>  (11) 
-1.40138

>  <r_i_glide_ligand_efficiency_ln>  (11) 
-1.8203

>  <r_i_glide_gscore>  (11) 
-5.60552

>  <r_i_glide_lipo>  (11) 
-0.342104

>  <r_i_glide_hbond>  (11) 
-0.2

>  <r_i_glide_metal>  (11) 
-0

>  <r_i_glide_rewards>  (11) 
-2.25

>  <r_i_glide_evdw>  (11) 
-8.55064

>  <r_i_glide_ecoul>  (11) 
-15.2392

>  <r_i_glide_erotb>  (11) 
0

>  <r_i_glide_esite>  (11) 
-0.1

>  <r_i_glide_emodel>  (11) 
-34.5413

>  <r_i_glide_energy>  (11) 
-23.7899

>  <r_i_glide_einternal>  (11) 
0.677207

>  <r_i_glide_intrahb_reward>  (11) 
-0

>  <i_i_glide_confnum>  (11) 
1

>  <i_i_glide_posenum>  (11) 
20

>  <r_i_glide_eff_state_penalty>  (11) 
0

>  <ligand_id>  (11) 
3

>  <original_smiles>  (11) 
CC1NCC(O)C1O

>  <smiles>  (11) 
[H]OC1([H])C([H])(O[H])C([H])(C([H])([H])[H])[N+]([H])([H])C1([H])[H]

$$$$
3:0:2
     RDKit          3D

 20 20  0  0  1  0  0  0  0  0999 V2000
    3.4624   -3.5587   -0.0711 C   0  0  0  0  0  0  0  0  0  0  0  0
    3.1768   -2.7550   -1.3424 C   0  0  2  0  0  0  0  0  0  0  0  0
    2.2483   -3.4564   -2.2424 N   0  0  0  0  0  0  0  0  0  0  0  0
    2.4395   -2.8702   -3.5723 C   0  0  0  0  0  0  0  0  0  0  0  0
    3.9372   -2.5569   -3.6558 C   0  0  1  0  0  0  0  0  0  0  0  0
    4.1631   -1.3814   -4.4154 O   0  0  0  0  0  0  0  0  0  0  0  0
    4.4244   -2.4695   -2.1906 C   0  0  1  0  0  0  0  0  0  0  0  0
    5.0212   -1.2293   -1.8452 O   0  0  0  0  0  0  0  0  0  0  0  0
    4.1017   -2.9917    0.6044 H   0  0  0  0  0  0  0  0  0  0  0  0
    3.9693   -4.4959   -0.2964 H   0  0  0  0  0  0  0  0  0  0  0  0
    2.5478   -3.7924    0.4693 H   0  0  0  0  0  0  0  0  0  0  0  0
    2.7028   -1.8112   -1.0770 H   0  0  0  0  0  0  0  0  0  0  0  0
    2.5022   -4.4453   -2.3009 H   0  0  0  0  0  0  0  0  0  0  0  0
    2.0833   -3.5312   -4.3700 H   0  0  0  0  0  0  0  0  0  0  0  0
    1.8563   -1.9512   -3.6252 H   0  0  0  0  0  0  0  0  0  0  0  0
    4.4500   -3.3888   -4.1445 H   0  0  0  0  0  0  0  0  0  0  0  0
    3.7345   -0.6468   -3.9929 H   0  0  0  0  0  0  0  0  0  0  0  0
    5.1730   -3.2517   -2.0409 H   0  0  0  0  0  0  0  0  0  0  0  0
    4.3764   -0.5360   -1.8882 H   0  0  0  0  0  0  0  0  0  0  0  0
    1.2901   -3.3516   -1.9453 H   0  0  0  0  0  0  0  0  0  0  0  0
  1  2  1  0
  1  9  1  0
  1 10  1  0
  1 11  1  0
  2  7  1  0
  2  3  1  0
  2 12  1  1
  3  4  1  0
  3 13  1  0
  3 20  1  0
  4  5  1  0
  4 14  1  0
  4 15  1  0
  5  6  1  0
  5  7  1  0
  5 16  1  6
  6 17  1  0
  7  8  1  0
  7 18  1  6
  8 19  1  0
M  CHG  1   3   1
M  END
>  <i_m_ct_stereo_status>  (12) 
1

>  <s_m_source_file>  (12) 
/var/tmp/pbs.5076255.sched01/tmps52fw2z9/0bkrl5082.sdf

>  <i_m_source_file_index>  (12) 
4

>  <i_lp_mmshare_version>  (12) 
48012

>  <i_f3d_flags>  (12) 
0

>  <s_epik_input>  (12) 
W0NIM11bQ0BASF0xW05IXVtDSDJdW0NAQEhdKFtPSF0pW0NASF0xW09IXQ==

>  <s_epik_cmdline>  (12) 
J2VwaWtfcHl0aG9uJywgJy1waHQnLCAnMi4wJywgJy1waCcsICc3LjAnLCAnLXRuJywgJzgnLCAnLW1hJywgJzIwMCcsICctaW1hZScsICc8aW5maWxlLm1hZT4nLCAnLW9tYWUnLCAnPG91dGZpbGUubWFlPic=

>  <r_epik_Ionization_Penalty>  (12) 
0.00103125

>  <r_epik_Ionization_Penalty_Charging>  (12) 
0.00103117

>  <r_epik_Ionization_Penalty_Neutral>  (12) 
7.67483e-08

>  <r_epik_State_Penalty>  (12) 
0.000673579

>  <r_epik_Charging_Adjusted_Penalty>  (12) 
0.00170475

>  <i_epik_Tot_Q>  (12) 
1

>  <i_epik_Tot_abs_Q>  (12) 
1

>  <s_lp_Force_Field>  (12) 
OPLS3e

>  <r_lp_Energy>  (12) 
9.6533

>  <b_lp_Chiralities_Consistent>  (12) 
1

>  <s_lp_Variant>  (12) 
3:0-1

>  <s_i_glide_gridfile>  (12) 
pfpi4k_grid

>  <i_i_glide_lignum>  (12) 
4

>  <i_i_glide_rotatable_bonds>  (12) 
2

>  <r_i_docking_score>  (12) 
-5.15511

>  <r_i_glide_ligand_efficiency>  (12) 
-0.644389

>  <r_i_glide_ligand_efficiency_sa>  (12) 
-1.28878

>  <r_i_glide_ligand_efficiency_ln>  (12) 
-1.67404

>  <r_i_glide_gscore>  (12) 
-5.15511

>  <r_i_glide_lipo>  (12) 
-0.489151

>  <r_i_glide_hbond>  (12) 
0

>  <r_i_glide_metal>  (12) 
-0

>  <r_i_glide_rewards>  (12) 
-2.25

>  <r_i_glide_evdw>  (12) 
-13.1901

>  <r_i_glide_ecoul>  (12) 
-11.7097

>  <r_i_glide_erotb>  (12) 
0

>  <r_i_glide_esite>  (12) 
0

>  <r_i_glide_emodel>  (12) 
-35.076

>  <r_i_glide_energy>  (12) 
-24.8998

>  <r_i_glide_einternal>  (12) 
0.130293

>  <r_i_glide_intrahb_reward>  (12) 
-0

>  <i_i_glide_confnum>  (12) 
2

>  <i_i_glide_posenum>  (12) 
8

>  <r_i_glide_eff_state_penalty>  (12) 
0

>  <ligand_id>  (12) 
3

>  <original_smiles>  (12) 
CC1NCC(O)C1O

>  <smiles>  (12) 
[H]OC1([H])C([H])(O[H])C([H])(C([H])([H])[H])[N+]([H])([H])C1([H])[H]

$$$$
4:0:0
     RDKit          3D

 53 58  0  0  1  0  0  0  0  0999 V2000
    4.2127   -0.5028   -3.0899 C   0  0  0  0  0  0  0  0  0  0  0  0
    4.4624   -1.0551   -1.8167 C   0  0  0  0  0  0  0  0  0  0  0  0
    3.9257   -2.3204   -1.5192 C   0  0  0  0  0  0  0  0  0  0  0  0
    4.1379   -2.9780   -0.1632 C   0  0  2  0  0  0  0  0  0  0  0  0
    4.9642   -4.2727   -0.2982 C   0  0  0  0  0  0  0  0  0  0  0  0
    5.1347   -5.0014    1.0470 C   0  0  0  0  0  0  0  0  0  0  0  0
    3.7799   -5.3153    1.7401 C   0  0  0  0  0  0  0  0  0  0  0  0
    2.9711   -4.0000    1.8817 C   0  0  0  0  0  0  0  0  0  0  0  0
    2.7976   -3.2727    0.5376 C   0  0  0  0  0  0  0  0  0  0  0  0
    3.0900   -6.2988    0.9618 O   0  0  0  0  0  0  0  0  0  0  0  0
    1.8068   -6.6906    1.6712 O   0  0  0  0  0  0  0  0  0  0  0  0
    2.1201   -7.2195    2.9688 C   0  0  0  0  0  0  0  0  0  0  0  0
    2.7829   -6.2066    3.7316 O   0  0  0  0  0  0  0  0  0  0  0  0
    4.0696   -5.8415    3.0341 O   0  0  0  0  0  0  0  0  0  0  0  0
    0.7752   -7.5960    3.6825 C   0  0  1  0  0  0  0  0  0  0  0  0
    0.0160   -8.6836    2.8797 C   0  0  0  0  0  0  0  0  0  0  0  0
    0.8841   -9.9568    2.7957 C   0  0  2  0  0  0  0  0  0  0  0  0
    1.1546  -10.4996    4.2129 C   0  0  0  0  0  0  0  0  0  0  0  0
    1.9062   -9.4204    5.0182 C   0  0  2  0  0  0  0  0  0  0  0  0
    1.0387   -8.1486    5.1084 C   0  0  0  0  0  0  0  0  0  0  0  0
    3.2413   -9.0605    4.3248 C   0  0  0  0  0  0  0  0  0  0  0  0
    2.9800   -8.5236    2.8932 C   0  0  1  0  0  0  0  0  0  0  0  0
    2.2245   -9.6164    2.1002 C   0  0  0  0  0  0  0  0  0  0  0  0
    3.1699   -2.9688   -2.5196 C   0  0  0  0  0  0  0  0  0  0  0  0
    2.9943   -2.3388   -3.7606 C   0  0  0  0  0  0  0  0  0  0  0  0
    3.5197   -1.1331   -4.0568 N   0  0  0  0  0  0  0  0  0  0  0  0
    4.5904    0.4787   -3.3324 H   0  0  0  0  0  0  0  0  0  0  0  0
    5.0232   -0.4993   -1.0826 H   0  0  0  0  0  0  0  0  0  0  0  0
    4.6992   -2.2781    0.4613 H   0  0  0  0  0  0  0  0  0  0  0  0
    4.4828   -4.9477   -1.0092 H   0  0  0  0  0  0  0  0  0  0  0  0
    5.9401   -4.0335   -0.7222 H   0  0  0  0  0  0  0  0  0  0  0  0
    5.7040   -5.9168    0.8952 H   0  0  0  0  0  0  0  0  0  0  0  0
    5.7321   -4.3718    1.7022 H   0  0  0  0  0  0  0  0  0  0  0  0
    1.9904   -4.1824    2.3233 H   0  0  0  0  0  0  0  0  0  0  0  0
    3.4930   -3.3352    2.5684 H   0  0  0  0  0  0  0  0  0  0  0  0
    2.2548   -2.3366    0.6839 H   0  0  0  0  0  0  0  0  0  0  0  0
    2.1768   -3.8926   -0.1107 H   0  0  0  0  0  0  0  0  0  0  0  0
    0.1482   -6.7095    3.7601 H   0  0  0  0  0  0  0  0  0  0  0  0
   -0.9385   -8.9176    3.3533 H   0  0  0  0  0  0  0  0  0  0  0  0
   -0.2240   -8.3294    1.8768 H   0  0  0  0  0  0  0  0  0  0  0  0
    0.3517  -10.7162    2.2177 H   0  0  0  0  0  0  0  0  0  0  0  0
    0.2169  -10.7578    4.7101 H   0  0  0  0  0  0  0  0  0  0  0  0
    1.7315  -11.4242    4.1680 H   0  0  0  0  0  0  0  0  0  0  0  0
    2.0983   -9.8053    6.0228 H   0  0  0  0  0  0  0  0  0  0  0  0
    1.5357   -7.4015    5.7279 H   0  0  0  0  0  0  0  0  0  0  0  0
    0.0990   -8.3790    5.6117 H   0  0  0  0  0  0  0  0  0  0  0  0
    3.7632   -8.3113    4.9231 H   0  0  0  0  0  0  0  0  0  0  0  0
    3.8898   -9.9377    4.3005 H   0  0  0  0  0  0  0  0  0  0  0  0
    3.9376   -8.3345    2.4044 H   0  0  0  0  0  0  0  0  0  0  0  0
    2.8327  -10.5203    2.0158 H   0  0  0  0  0  0  0  0  0  0  0  0
    2.0345   -9.2811    1.0800 H   0  0  0  0  0  0  0  0  0  0  0  0
    2.7185   -3.9237   -2.3390 H   0  0  0  0  0  0  0  0  0  0  0  0
    2.4168   -2.8313   -4.5286 H   0  0  0  0  0  0  0  0  0  0  0  0
  1 26  2  0
  1  2  1  0
  1 27  1  0
  2  3  2  0
  2 28  1  0
  3  4  1  0
  3 24  1  0
  4  9  1  0
  4  5  1  0
  4 29  1  1
  5  6  1  0
  5 30  1  0
  5 31  1  0
  6  7  1  0
  6 32  1  0
  6 33  1  0
  7 14  1  0
  7  8  1  0
  7 10  1  0
  8  9  1  0
  8 34  1  0
  8 35  1  0
  9 36  1  0
  9 37  1  0
 10 11  1  0
 11 12  1  0
 12 22  1  0
 12 13  1  0
 12 15  1  0
 13 14  1  0
 15 20  1  0
 15 16  1  0
 15 38  1  1
 16 17  1  0
 16 39  1  0
 16 40  1  0
 17 23  1  0
 17 18  1  0
 17 41  1  6
 18 19  1  0
 18 42  1  0
 18 43  1  0
 19 20  1  0
 19 21  1  0
 19 44  1  1
 20 45  1  0
 20 46  1  0
 21 22  1  0
 21 47  1  0
 21 48  1  0
 22 23  1  0
 22 49  1  6
 23 50  1  0
 23 51  1  0
 24 25  2  0
 24 52  1  0
 25 26  1  0
 25 53  1  0
M  END
>  <i_m_ct_stereo_status>  (13) 
1

>  <s_m_source_file>  (13) 
/var/tmp/pbs.5076255.sched01/tmps52fw2z9/0bkrl5082.sdf

>  <i_m_source_file_index>  (13) 
5

>  <i_lp_mmshare_version>  (13) 
48012

>  <i_f3d_flags>  (13) 
0

>  <s_epik_input>  (13) 
W2NIXTFbY0hdbltjSF1bY0hdYzFbQ0hdKFtDSDJdW0NIMl0yKVtDSDJdW0NIMl1DMjNPT0M0KE9PMylbQ0BASF01W0NIMl1bQ0BIXTZbQ0gyXVtDQEBIXShbQ0gyXTUpW0NIMl1bQ0BASF00W0NIMl02

>  <s_epik_cmdline>  (13) 
J2VwaWtfcHl0aG9uJywgJy1waHQnLCAnMi4wJywgJy1waCcsICc3LjAnLCAnLXRuJywgJzgnLCAnLW1hJywgJzIwMCcsICctaW1hZScsICc8aW5maWxlLm1hZT4nLCAnLW9tYWUnLCAnPG91dGZpbGUubWFlPic=

>  <r_epik_Ionization_Penalty>  (13) 
0.0834659

>  <r_epik_Ionization_Penalty_Charging>  (13) 
0

>  <r_epik_Ionization_Penalty_Neutral>  (13) 
0.0834659

>  <r_epik_State_Penalty>  (13) 
0.0741287

>  <r_epik_Charging_Adjusted_Penalty>  (13) 
0.0741287

>  <i_epik_Tot_Q>  (13) 
0

>  <i_epik_Tot_abs_Q>  (13) 
0

>  <s_lp_Force_Field>  (13) 
OPLS3e

>  <r_lp_Energy>  (13) 
10.7931

>  <b_lp_Chiralities_Consistent>  (13) 
1

>  <s_lp_Variant>  (13) 
4:0-1

>  <s_i_glide_gridfile>  (13) 
pfpi4k_grid

>  <i_i_glide_lignum>  (13) 
5

>  <i_i_glide_rotatable_bonds>  (13) 
1

>  <r_i_docking_score>  (13) 
-3.53896

>  <r_i_glide_ligand_efficiency>  (13) 
-0.136114

>  <r_i_glide_ligand_efficiency_sa>  (13) 
-0.403237

>  <r_i_glide_ligand_efficiency_ln>  (13) 
-0.831114

>  <r_i_glide_gscore>  (13) 
-3.53896

>  <r_i_glide_lipo>  (13) 
-0.640176

>  <r_i_glide_hbond>  (13) 
0

>  <r_i_glide_metal>  (13) 
-0

>  <r_i_glide_rewards>  (13) 
-0.987314

>  <r_i_glide_evdw>  (13) 
-32.6163

>  <r_i_glide_ecoul>  (13) 
-2.82742

>  <r_i_glide_erotb>  (13) 
0.149838

>  <r_i_glide_esite>  (13) 
-0.0063821

>  <r_i_glide_emodel>  (13) 
-43.0334

>  <r_i_glide_energy>  (13) 
-35.4438

>  <r_i_glide_einternal>  (13) 
0.0268638

>  <r_i_glide_intrahb_reward>  (13) 
-0

>  <i_i_glide_confnum>  (13) 
3

>  <i_i_glide_posenum>  (13) 
14

>  <r_i_glide_eff_state_penalty>  (13) 
0

>  <ligand_id>  (13) 
4

>  <original_smiles>  (13) 
c1cc(C2CCC3(CC2)OOC2(OO3)C3CC4CC(C3)CC2C4)ccn1

>  <smiles>  (13) 
[H]c1nc([H])c([H])c(C2([H])C([H])([H])C([H])([H])C3(OOC4(OO3)C3([H])C([H])([H])C5([H])C([H])([H])C([H])(C3([H])[H])C([H])([H])C4([H])C5([H])[H])C([H])([H])C2([H])[H])c1[H]

$$$$
4:0:1
     RDKit          3D

 53 58  0  0  1  0  0  0  0  0999 V2000
    3.7479   -1.2288   -2.8654 C   0  0  0  0  0  0  0  0  0  0  0  0
    3.8255   -1.7059   -1.5409 C   0  0  0  0  0  0  0  0  0  0  0  0
    4.2931   -3.0216   -1.3141 C   0  0  0  0  0  0  0  0  0  0  0  0
    4.3615   -3.5956    0.1015 C   0  0  2  0  0  0  0  0  0  0  0  0
    5.2531   -4.8574    0.1896 C   0  0  0  0  0  0  0  0  0  0  0  0
    5.2948   -5.4786    1.5881 C   0  0  0  0  0  0  0  0  0  0  0  0
    3.8742   -5.8274    2.1072 C   0  0  0  0  0  0  0  0  0  0  0  0
    2.9892   -4.5566    2.0505 C   0  0  0  0  0  0  0  0  0  0  0  0
    2.9538   -3.9203    0.6471 C   0  0  0  0  0  0  0  0  0  0  0  0
    3.3388   -6.8938    1.3019 O   0  0  0  0  0  0  0  0  0  0  0  0
    1.9921   -7.3179    1.8694 O   0  0  0  0  0  0  0  0  0  0  0  0
    2.1654   -7.7497    3.2367 C   0  0  0  0  0  0  0  0  0  0  0  0
    2.6797   -6.6597    4.0229 O   0  0  0  0  0  0  0  0  0  0  0  0
    4.0160   -6.2659    3.4643 O   0  0  0  0  0  0  0  0  0  0  0  0
    0.7612   -8.1557    3.8020 C   0  0  1  0  0  0  0  0  0  0  0  0
    0.1596   -9.3243    2.9830 C   0  0  0  0  0  0  0  0  0  0  0  0
    1.0894  -10.5517    3.0800 C   0  0  2  0  0  0  0  0  0  0  0  0
    1.2042  -10.9978    4.5497 C   0  0  0  0  0  0  0  0  0  0  0  0
    1.8011   -9.8380    5.3703 C   0  0  2  0  0  0  0  0  0  0  0  0
    0.8722   -8.6106    5.2789 C   0  0  0  0  0  0  0  0  0  0  0  0
    3.1968   -9.4469    4.8241 C   0  0  0  0  0  0  0  0  0  0  0  0
    3.0857   -9.0103    3.3443 C   0  0  1  0  0  0  0  0  0  0  0  0
    2.4899  -10.1797    2.5304 C   0  0  0  0  0  0  0  0  0  0  0  0
    4.6698   -3.7859   -2.4431 C   0  0  0  0  0  0  0  0  0  0  0  0
    4.5462   -3.2181   -3.7201 C   0  0  0  0  0  0  0  0  0  0  0  0
    4.1104   -1.9657   -3.9368 N   0  0  0  0  0  0  0  0  0  0  0  0
    3.3869   -0.2338   -3.0733 H   0  0  0  0  0  0  0  0  0  0  0  0
    3.5041   -1.0792   -0.7256 H   0  0  0  0  0  0  0  0  0  0  0  0
    4.8023   -2.8200    0.7344 H   0  0  0  0  0  0  0  0  0  0  0  0
    4.8765   -5.6279   -0.4869 H   0  0  0  0  0  0  0  0  0  0  0  0
    6.2621   -4.6052   -0.1335 H   0  0  0  0  0  0  0  0  0  0  0  0
    5.9127   -6.3744    1.5564 H   0  0  0  0  0  0  0  0  0  0  0  0
    5.7760   -4.7824    2.2730 H   0  0  0  0  0  0  0  0  0  0  0  0
    1.9733   -4.7650    2.3838 H   0  0  0  0  0  0  0  0  0  0  0  0
    3.3900   -3.8277    2.7527 H   0  0  0  0  0  0  0  0  0  0  0  0
    2.3555   -3.0082    0.6763 H   0  0  0  0  0  0  0  0  0  0  0  0
    2.4551   -4.5995   -0.0482 H   0  0  0  0  0  0  0  0  0  0  0  0
    0.0912   -7.3001    3.7443 H   0  0  0  0  0  0  0  0  0  0  0  0
   -0.8336   -9.5815    3.3531 H   0  0  0  0  0  0  0  0  0  0  0  0
    0.0272   -9.0364    1.9418 H   0  0  0  0  0  0  0  0  0  0  0  0
    0.6654  -11.3709    2.4953 H   0  0  0  0  0  0  0  0  0  0  0  0
    0.2243  -11.2775    4.9430 H   0  0  0  0  0  0  0  0  0  0  0  0
    1.8246  -11.8905    4.6362 H   0  0  0  0  0  0  0  0  0  0  0  0
    1.8847  -10.1557    6.4121 H   0  0  0  0  0  0  0  0  0  0  0  0
    1.2533   -7.8049    5.9069 H   0  0  0  0  0  0  0  0  0  0  0  0
   -0.1114   -8.8641    5.6749 H   0  0  0  0  0  0  0  0  0  0  0  0
    3.6044   -8.6395    5.4349 H   0  0  0  0  0  0  0  0  0  0  0  0
    3.8787  -10.2895    4.9347 H   0  0  0  0  0  0  0  0  0  0  0  0
    4.0834   -8.7963    2.9632 H   0  0  0  0  0  0  0  0  0  0  0  0
    3.1411  -11.0546    2.5742 H   0  0  0  0  0  0  0  0  0  0  0  0
    2.4088   -9.9116    1.4763 H   0  0  0  0  0  0  0  0  0  0  0  0
    5.0126   -4.8022   -2.3718 H   0  0  0  0  0  0  0  0  0  0  0  0
    4.8196   -3.8097   -4.5827 H   0  0  0  0  0  0  0  0  0  0  0  0
  1 26  2  0
  1  2  1  0
  1 27  1  0
  2  3  2  0
  2 28  1  0
  3  4  1  0
  3 24  1  0
  4  9  1  0
  4  5  1  0
  4 29  1  1
  5  6  1  0
  5 30  1  0
  5 31  1  0
  6  7  1  0
  6 32  1  0
  6 33  1  0
  7 14  1  0
  7  8  1  0
  7 10  1  0
  8  9  1  0
  8 34  1  0
  8 35  1  0
  9 36  1  0
  9 37  1  0
 10 11  1  0
 11 12  1  0
 12 22  1  0
 12 13  1  0
 12 15  1  0
 13 14  1  0
 15 20  1  0
 15 16  1  0
 15 38  1  1
 16 17  1  0
 16 39  1  0
 16 40  1  0
 17 23  1  0
 17 18  1  0
 17 41  1  6
 18 19  1  0
 18 42  1  0
 18 43  1  0
 19 20  1  0
 19 21  1  0
 19 44  1  1
 20 45  1  0
 20 46  1  0
 21 22  1  0
 21 47  1  0
 21 48  1  0
 22 23  1  0
 22 49  1  6
 23 50  1  0
 23 51  1  0
 24 25  2  0
 24 52  1  0
 25 26  1  0
 25 53  1  0
M  END
>  <i_m_ct_stereo_status>  (14) 
1

>  <s_m_source_file>  (14) 
/var/tmp/pbs.5076255.sched01/tmps52fw2z9/0bkrl5082.sdf

>  <i_m_source_file_index>  (14) 
5

>  <i_lp_mmshare_version>  (14) 
48012

>  <i_f3d_flags>  (14) 
0

>  <s_epik_input>  (14) 
W2NIXTFbY0hdbltjSF1bY0hdYzFbQ0hdKFtDSDJdW0NIMl0yKVtDSDJdW0NIMl1DMjNPT0M0KE9PMylbQ0BASF01W0NIMl1bQ0BIXTZbQ0gyXVtDQEBIXShbQ0gyXTUpW0NIMl1bQ0BASF00W0NIMl02

>  <s_epik_cmdline>  (14) 
J2VwaWtfcHl0aG9uJywgJy1waHQnLCAnMi4wJywgJy1waCcsICc3LjAnLCAnLXRuJywgJzgnLCAnLW1hJywgJzIwMCcsICctaW1hZScsICc8aW5maWxlLm1hZT4nLCAnLW9tYWUnLCAnPG91dGZpbGUubWFlPic=

>  <r_epik_Ionization_Penalty>  (14) 
0.0834659

>  <r_epik_Ionization_Penalty_Charging>  (14) 
0

>  <r_epik_Ionization_Penalty_Neutral>  (14) 
0.0834659

>  <r_epik_State_Penalty>  (14) 
0.0741287

>  <r_epik_Charging_Adjusted_Penalty>  (14) 
0.0741287

>  <i_epik_Tot_Q>  (14) 
0

>  <i_epik_Tot_abs_Q>  (14) 
0

>  <s_lp_Force_Field>  (14) 
OPLS3e

>  <r_lp_Energy>  (14) 
10.7931

>  <b_lp_Chiralities_Consistent>  (14) 
1

>  <s_lp_Variant>  (14) 
4:0-1

>  <s_i_glide_gridfile>  (14) 
pfpi4k_grid

>  <i_i_glide_lignum>  (14) 
5

>  <i_i_glide_rotatable_bonds>  (14) 
1

>  <r_i_docking_score>  (14) 
-3.48262

>  <r_i_glide_ligand_efficiency>  (14) 
-0.133947

>  <r_i_glide_ligand_efficiency_sa>  (14) 
-0.396817

>  <r_i_glide_ligand_efficiency_ln>  (14) 
-0.817881

>  <r_i_glide_gscore>  (14) 
-3.48262

>  <r_i_glide_lipo>  (14) 
-0.493168

>  <r_i_glide_hbond>  (14) 
-0.145883

>  <r_i_glide_metal>  (14) 
-0

>  <r_i_glide_rewards>  (14) 
-0.986971

>  <r_i_glide_evdw>  (14) 
-32.1016

>  <r_i_glide_ecoul>  (14) 
-2.64033

>  <r_i_glide_erotb>  (14) 
0.149838

>  <r_i_glide_esite>  (14) 
-0.0053021

>  <r_i_glide_emodel>  (14) 
-40.5998

>  <r_i_glide_energy>  (14) 
-34.742

>  <r_i_glide_einternal>  (14) 
2.99606

>  <r_i_glide_intrahb_reward>  (14) 
-0

>  <i_i_glide_confnum>  (14) 
6

>  <i_i_glide_posenum>  (14) 
35

>  <r_i_glide_eff_state_penalty>  (14) 
0

>  <ligand_id>  (14) 
4

>  <original_smiles>  (14) 
c1cc(C2CCC3(CC2)OOC2(OO3)C3CC4CC(C3)CC2C4)ccn1

>  <smiles>  (14) 
[H]c1nc([H])c([H])c(C2([H])C([H])([H])C([H])([H])C3(OOC4(OO3)C3([H])C([H])([H])C5([H])C([H])([H])C([H])(C3([H])[H])C([H])([H])C4([H])C5([H])[H])C([H])([H])C2([H])[H])c1[H]

$$$$
4:0:2
     RDKit          3D

 53 58  0  0  1  0  0  0  0  0999 V2000
    4.2040   -0.2966   -3.2149 C   0  0  0  0  0  0  0  0  0  0  0  0
    4.4730   -0.8447   -1.9456 C   0  0  0  0  0  0  0  0  0  0  0  0
    4.0233   -2.1549   -1.6725 C   0  0  0  0  0  0  0  0  0  0  0  0
    4.2582   -2.7951   -0.3128 C   0  0  2  0  0  0  0  0  0  0  0  0
    4.8036   -4.2329   -0.4483 C   0  0  0  0  0  0  0  0  0  0  0  0
    4.9595   -4.9366    0.9090 C   0  0  0  0  0  0  0  0  0  0  0  0
    3.6483   -4.9484    1.7357 C   0  0  0  0  0  0  0  0  0  0  0  0
    3.1322   -3.4963    1.8847 C   0  0  0  0  0  0  0  0  0  0  0  0
    2.9681   -2.7884    0.5257 C   0  0  0  0  0  0  0  0  0  0  0  0
    2.6977   -5.7964    1.0863 O   0  0  0  0  0  0  0  0  0  0  0  0
    1.4511   -5.8975    1.9396 O   0  0  0  0  0  0  0  0  0  0  0  0
    1.7911   -6.4378    3.2200 C   0  0  0  0  0  0  0  0  0  0  0  0
    2.7145   -5.5550    3.8538 O   0  0  0  0  0  0  0  0  0  0  0  0
    3.9671   -5.4763    3.0177 O   0  0  0  0  0  0  0  0  0  0  0  0
    0.4853   -6.5117    4.0822 C   0  0  1  0  0  0  0  0  0  0  0  0
   -0.5586   -7.4492    3.4179 C   0  0  0  0  0  0  0  0  0  0  0  0
    0.0255   -8.8738    3.3132 C   0  0  2  0  0  0  0  0  0  0  0  0
    0.3376   -9.4095    4.7233 C   0  0  0  0  0  0  0  0  0  0  0  0
    1.3703   -8.4828    5.3927 C   0  0  2  0  0  0  0  0  0  0  0  0
    0.7871   -7.0605    5.5026 C   0  0  0  0  0  0  0  0  0  0  0  0
    2.6675   -8.4233    4.5514 C   0  0  0  0  0  0  0  0  0  0  0  0
    2.3645   -7.8875    3.1264 C   0  0  1  0  0  0  0  0  0  0  0  0
    1.3247   -8.8329    2.4733 C   0  0  0  0  0  0  0  0  0  0  0  0
    3.3326   -2.8446   -2.6894 C   0  0  0  0  0  0  0  0  0  0  0  0
    3.1388   -2.2094   -3.9228 C   0  0  0  0  0  0  0  0  0  0  0  0
    3.5862   -0.9705   -4.2027 N   0  0  0  0  0  0  0  0  0  0  0  0
    4.5111    0.7133   -3.4483 H   0  0  0  0  0  0  0  0  0  0  0  0
    4.9755   -0.2581   -1.1966 H   0  0  0  0  0  0  0  0  0  0  0  0
    5.0079   -2.1981    0.2101 H   0  0  0  0  0  0  0  0  0  0  0  0
    4.1334   -4.8452   -1.0499 H   0  0  0  0  0  0  0  0  0  0  0  0
    5.7525   -4.2079   -0.9858 H   0  0  0  0  0  0  0  0  0  0  0  0
    5.3160   -5.9516    0.7397 H   0  0  0  0  0  0  0  0  0  0  0  0
    5.7388   -4.4185    1.4659 H   0  0  0  0  0  0  0  0  0  0  0  0
    2.1888   -3.4564    2.4297 H   0  0  0  0  0  0  0  0  0  0  0  0
    3.8467   -2.9271    2.4802 H   0  0  0  0  0  0  0  0  0  0  0  0
    2.6368   -1.7585    0.6780 H   0  0  0  0  0  0  0  0  0  0  0  0
    2.1759   -3.2813   -0.0399 H   0  0  0  0  0  0  0  0  0  0  0  0
    0.0585   -5.5142    4.1779 H   0  0  0  0  0  0  0  0  0  0  0  0
   -1.4827   -7.4699    3.9975 H   0  0  0  0  0  0  0  0  0  0  0  0
   -0.8313   -7.0871    2.4272 H   0  0  0  0  0  0  0  0  0  0  0  0
   -0.7023   -9.5341    2.8349 H   0  0  0  0  0  0  0  0  0  0  0  0
   -0.5754   -9.4528    5.3210 H   0  0  0  0  0  0  0  0  0  0  0  0
    0.7102  -10.4335    4.6709 H   0  0  0  0  0  0  0  0  0  0  0  0
    1.5930   -8.8679    6.3900 H   0  0  0  0  0  0  0  0  0  0  0  0
    1.4863   -6.4108    6.0295 H   0  0  0  0  0  0  0  0  0  0  0  0
   -0.1190   -7.0801    6.1089 H   0  0  0  0  0  0  0  0  0  0  0  0
    3.3895   -7.7778    5.0541 H   0  0  0  0  0  0  0  0  0  0  0  0
    3.1219   -9.4153    4.5087 H   0  0  0  0  0  0  0  0  0  0  0  0
    3.2814   -7.9156    2.5329 H   0  0  0  0  0  0  0  0  0  0  0  0
    1.7268   -9.8449    2.3722 H   0  0  0  0  0  0  0  0  0  0  0  0
    1.0941   -8.4962    1.4620 H   0  0  0  0  0  0  0  0  0  0  0  0
    2.9459   -3.8424   -2.5513 H   0  0  0  0  0  0  0  0  0  0  0  0
    2.6389   -2.7391   -4.7198 H   0  0  0  0  0  0  0  0  0  0  0  0
  1 26  2  0
  1  2  1  0
  1 27  1  0
  2  3  2  0
  2 28  1  0
  3  4  1  0
  3 24  1  0
  4  9  1  0
  4  5  1  0
  4 29  1  1
  5  6  1  0
  5 30  1  0
  5 31  1  0
  6  7  1  0
  6 32  1  0
  6 33  1  0
  7 14  1  0
  7  8  1  0
  7 10  1  0
  8  9  1  0
  8 34  1  0
  8 35  1  0
  9 36  1  0
  9 37  1  0
 10 11  1  0
 11 12  1  0
 12 22  1  0
 12 13  1  0
 12 15  1  0
 13 14  1  0
 15 20  1  0
 15 16  1  0
 15 38  1  1
 16 17  1  0
 16 39  1  0
 16 40  1  0
 17 23  1  0
 17 18  1  0
 17 41  1  6
 18 19  1  0
 18 42  1  0
 18 43  1  0
 19 20  1  0
 19 21  1  0
 19 44  1  1
 20 45  1  0
 20 46  1  0
 21 22  1  0
 21 47  1  0
 21 48  1  0
 22 23  1  0
 22 49  1  6
 23 50  1  0
 23 51  1  0
 24 25  2  0
 24 52  1  0
 25 26  1  0
 25 53  1  0
M  END
>  <i_m_ct_stereo_status>  (15) 
1

>  <s_m_source_file>  (15) 
/var/tmp/pbs.5076255.sched01/tmps52fw2z9/0bkrl5082.sdf

>  <i_m_source_file_index>  (15) 
5

>  <i_lp_mmshare_version>  (15) 
48012

>  <i_f3d_flags>  (15) 
0

>  <s_epik_input>  (15) 
W2NIXTFbY0hdbltjSF1bY0hdYzFbQ0hdKFtDSDJdW0NIMl0yKVtDSDJdW0NIMl1DMjNPT0M0KE9PMylbQ0BASF01W0NIMl1bQ0BIXTZbQ0gyXVtDQEBIXShbQ0gyXTUpW0NIMl1bQ0BASF00W0NIMl02

>  <s_epik_cmdline>  (15) 
J2VwaWtfcHl0aG9uJywgJy1waHQnLCAnMi4wJywgJy1waCcsICc3LjAnLCAnLXRuJywgJzgnLCAnLW1hJywgJzIwMCcsICctaW1hZScsICc8aW5maWxlLm1hZT4nLCAnLW9tYWUnLCAnPG91dGZpbGUubWFlPic=

>  <r_epik_Ionization_Penalty>  (15) 
0.0834659

>  <r_epik_Ionization_Penalty_Charging>  (15) 
0

>  <r_epik_Ionization_Penalty_Neutral>  (15) 
0.0834659

>  <r_epik_State_Penalty>  (15) 
0.0741287

>  <r_epik_Charging_Adjusted_Penalty>  (15) 
0.0741287

>  <i_epik_Tot_Q>  (15) 
0

>  <i_epik_Tot_abs_Q>  (15) 
0

>  <s_lp_Force_Field>  (15) 
OPLS3e

>  <r_lp_Energy>  (15) 
10.7931

>  <b_lp_Chiralities_Consistent>  (15) 
1

>  <s_lp_Variant>  (15) 
4:0-1

>  <s_i_glide_gridfile>  (15) 
pfpi4k_grid

>  <i_i_glide_lignum>  (15) 
5

>  <i_i_glide_rotatable_bonds>  (15) 
1

>  <r_i_docking_score>  (15) 
-3.24544

>  <r_i_glide_ligand_efficiency>  (15) 
-0.124825

>  <r_i_glide_ligand_efficiency_sa>  (15) 
-0.369793

>  <r_i_glide_ligand_efficiency_ln>  (15) 
-0.762182

>  <r_i_glide_gscore>  (15) 
-3.24544

>  <r_i_glide_lipo>  (15) 
-0.382819

>  <r_i_glide_hbond>  (15) 
-0.0354975

>  <r_i_glide_metal>  (15) 
-0

>  <r_i_glide_rewards>  (15) 
-0.98305

>  <r_i_glide_evdw>  (15) 
-30.8598

>  <r_i_glide_ecoul>  (15) 
-2.93657

>  <r_i_glide_erotb>  (15) 
0.149838

>  <r_i_glide_esite>  (15) 
-0.0104398

>  <r_i_glide_emodel>  (15) 
-40.4296

>  <r_i_glide_energy>  (15) 
-33.7964

>  <r_i_glide_einternal>  (15) 
0.557802

>  <r_i_glide_intrahb_reward>  (15) 
-0

>  <i_i_glide_confnum>  (15) 
3

>  <i_i_glide_posenum>  (15) 
25

>  <r_i_glide_eff_state_penalty>  (15) 
0

>  <ligand_id>  (15) 
4

>  <original_smiles>  (15) 
c1cc(C2CCC3(CC2)OOC2(OO3)C3CC4CC(C3)CC2C4)ccn1

>  <smiles>  (15) 
[H]c1nc([H])c([H])c(C2([H])C([H])([H])C([H])([H])C3(OOC4(OO3)C3([H])C([H])([H])C5([H])C([H])([H])C([H])(C3([H])[H])C([H])([H])C4([H])C5([H])[H])C([H])([H])C2([H])[H])c1[H]

$$$$
4:1:0
     RDKit          3D

 54 59  0  0  1  0  0  0  0  0999 V2000
    2.4780   -2.4422   -3.5994 C   0  0  0  0  0  0  0  0  0  0  0  0
    2.7282   -2.9637   -2.3238 C   0  0  0  0  0  0  0  0  0  0  0  0
    3.5924   -2.2803   -1.4380 C   0  0  0  0  0  0  0  0  0  0  0  0
    3.8789   -2.8509   -0.0539 C   0  0  2  0  0  0  0  0  0  0  0  0
    4.4129   -4.2952   -0.1447 C   0  0  0  0  0  0  0  0  0  0  0  0
    4.6393   -4.9278    1.2425 C   0  0  0  0  0  0  0  0  0  0  0  0
    3.3758   -4.8959    2.1361 C   0  0  0  0  0  0  0  0  0  0  0  0
    2.8647   -3.4382    2.2341 C   0  0  0  0  0  0  0  0  0  0  0  0
    2.6316   -2.8000    0.8480 C   0  0  0  0  0  0  0  0  0  0  0  0
    2.3967   -5.7750    1.5799 O   0  0  0  0  0  0  0  0  0  0  0  0
    1.1950   -5.8355    2.4963 O   0  0  0  0  0  0  0  0  0  0  0  0
    1.5943   -6.3053    3.7853 C   0  0  0  0  0  0  0  0  0  0  0  0
    2.5442   -5.3895    4.3221 O   0  0  0  0  0  0  0  0  0  0  0  0
    3.7583   -5.3568    3.4247 O   0  0  0  0  0  0  0  0  0  0  0  0
    0.3333   -6.3313    4.7127 C   0  0  1  0  0  0  0  0  0  0  0  0
   -0.7387   -7.3040    4.1510 C   0  0  0  0  0  0  0  0  0  0  0  0
   -0.1568   -8.7317    4.0942 C   0  0  2  0  0  0  0  0  0  0  0  0
    0.2233   -9.1916    5.5155 C   0  0  0  0  0  0  0  0  0  0  0  0
    1.2847   -8.2299    6.0846 C   0  0  2  0  0  0  0  0  0  0  0  0
    0.7042   -6.8034    6.1454 C   0  0  0  0  0  0  0  0  0  0  0  0
    2.5387   -8.2155    5.1789 C   0  0  0  0  0  0  0  0  0  0  0  0
    2.1670   -7.7558    3.7415 C   0  0  1  0  0  0  0  0  0  0  0  0
    1.0981   -8.7367    3.1884 C   0  0  0  0  0  0  0  0  0  0  0  0
    4.1575   -1.0609   -1.8591 C   0  0  0  0  0  0  0  0  0  0  0  0
    3.8377   -0.5577   -3.1392 C   0  0  0  0  0  0  0  0  0  0  0  0
    3.0220   -1.2613   -3.9584 N   0  0  0  0  0  0  0  0  0  0  0  0
    1.8145   -2.9127   -4.3138 H   0  0  0  0  0  0  0  0  0  0  0  0
    2.2209   -3.8560   -2.0153 H   0  0  0  0  0  0  0  0  0  0  0  0
    4.6540   -2.2338    0.4076 H   0  0  0  0  0  0  0  0  0  0  0  0
    3.7127   -4.9290   -0.6902 H   0  0  0  0  0  0  0  0  0  0  0  0
    5.3371   -4.3026   -0.7241 H   0  0  0  0  0  0  0  0  0  0  0  0
    4.9961   -5.9496    1.1129 H   0  0  0  0  0  0  0  0  0  0  0  0
    5.4467   -4.3806    1.7302 H   0  0  0  0  0  0  0  0  0  0  0  0
    1.9483   -3.3702    2.8210 H   0  0  0  0  0  0  0  0  0  0  0  0
    3.6059   -2.8364    2.7642 H   0  0  0  0  0  0  0  0  0  0  0  0
    2.3050   -1.7641    0.9639 H   0  0  0  0  0  0  0  0  0  0  0  0
    1.8133   -3.3224    0.3535 H   0  0  0  0  0  0  0  0  0  0  0  0
   -0.0938   -5.3311    4.7752 H   0  0  0  0  0  0  0  0  0  0  0  0
   -1.6342   -7.2929    4.7736 H   0  0  0  0  0  0  0  0  0  0  0  0
   -1.0604   -6.9967    3.1568 H   0  0  0  0  0  0  0  0  0  0  0  0
   -0.9056   -9.4175    3.6898 H   0  0  0  0  0  0  0  0  0  0  0  0
   -0.6602   -9.2107    6.1559 H   0  0  0  0  0  0  0  0  0  0  0  0
    0.5959  -10.2169    5.4996 H   0  0  0  0  0  0  0  0  0  0  0  0
    1.5578   -8.5607    7.0889 H   0  0  0  0  0  0  0  0  0  0  0  0
    1.4270   -6.1263    6.6018 H   0  0  0  0  0  0  0  0  0  0  0  0
   -0.1706   -6.7890    6.7961 H   0  0  0  0  0  0  0  0  0  0  0  0
    3.2827   -7.5435    5.6100 H   0  0  0  0  0  0  0  0  0  0  0  0
    2.9960   -9.2077    5.1674 H   0  0  0  0  0  0  0  0  0  0  0  0
    3.0569   -7.8151    3.1086 H   0  0  0  0  0  0  0  0  0  0  0  0
    1.5005   -9.7521    3.1258 H   0  0  0  0  0  0  0  0  0  0  0  0
    0.8194   -8.4580    2.1712 H   0  0  0  0  0  0  0  0  0  0  0  0
    4.7891   -0.4955   -1.1897 H   0  0  0  0  0  0  0  0  0  0  0  0
    4.1942    0.3894   -3.5180 H   0  0  0  0  0  0  0  0  0  0  0  0
    2.7752   -0.8746   -4.8732 H   0  0  0  0  0  0  0  0  0  0  0  0
  1 26  2  0
  1  2  1  0
  1 27  1  0
  2  3  2  0
  2 28  1  0
  3  4  1  0
  3 24  1  0
  4  9  1  0
  4  5  1  0
  4 29  1  1
  5  6  1  0
  5 30  1  0
  5 31  1  0
  6  7  1  0
  6 32  1  0
  6 33  1  0
  7 14  1  0
  7  8  1  0
  7 10  1  0
  8  9  1  0
  8 34  1  0
  8 35  1  0
  9 36  1  0
  9 37  1  0
 10 11  1  0
 11 12  1  0
 12 22  1  0
 12 13  1  0
 12 15  1  0
 13 14  1  0
 15 20  1  0
 15 16  1  0
 15 38  1  1
 16 17  1  0
 16 39  1  0
 16 40  1  0
 17 23  1  0
 17 18  1  0
 17 41  1  6
 18 19  1  0
 18 42  1  0
 18 43  1  0
 19 20  1  0
 19 21  1  0
 19 44  1  1
 20 45  1  0
 20 46  1  0
 21 22  1  0
 21 47  1  0
 21 48  1  0
 22 23  1  0
 22 49  1  6
 23 50  1  0
 23 51  1  0
 24 25  2  0
 24 52  1  0
 25 26  1  0
 25 53  1  0
 26 54  1  0
M  CHG  1  26   1
M  END
>  <i_m_ct_stereo_status>  (16) 
1

>  <s_m_source_file>  (16) 
/var/tmp/pbs.5076255.sched01/tmps52fw2z9/0bkrl5082.sdf

>  <i_m_source_file_index>  (16) 
6

>  <i_lp_mmshare_version>  (16) 
48012

>  <i_f3d_flags>  (16) 
0

>  <s_epik_input>  (16) 
W2NIXTFbY0hdbltjSF1bY0hdYzFbQ0hdKFtDSDJdW0NIMl0yKVtDSDJdW0NIMl1DMjNPT0M0KE9PMylbQ0BASF01W0NIMl1bQ0BIXTZbQ0gyXVtDQEBIXShbQ0gyXTUpW0NIMl1bQ0BASF00W0NIMl02

>  <s_epik_cmdline>  (16) 
J2VwaWtfcHl0aG9uJywgJy1waHQnLCAnMi4wJywgJy1waCcsICc3LjAnLCAnLXRuJywgJzgnLCAnLW1hJywgJzIwMCcsICctaW1hZScsICc8aW5maWxlLm1hZT4nLCAnLW9tYWUnLCAnPG91dGZpbGUubWFlPic=

>  <r_epik_Ionization_Penalty>  (16) 
1.20245

>  <r_epik_Ionization_Penalty_Charging>  (16) 
1.20245

>  <r_epik_Ionization_Penalty_Neutral>  (16) 
0

>  <r_epik_State_Penalty>  (16) 
1.26817

>  <r_epik_Charging_Adjusted_Penalty>  (16) 
2.47062

>  <i_epik_Tot_Q>  (16) 
1

>  <i_epik_Tot_abs_Q>  (16) 
1

>  <s_lp_Force_Field>  (16) 
OPLS3e

>  <r_lp_Energy>  (16) 
14.4846

>  <b_lp_Chiralities_Consistent>  (16) 
1

>  <s_lp_Variant>  (16) 
4:0-2

>  <s_i_glide_gridfile>  (16) 
pfpi4k_grid

>  <i_i_glide_lignum>  (16) 
6

>  <i_i_glide_rotatable_bonds>  (16) 
1

>  <r_i_docking_score>  (16) 
-3.56213

>  <r_i_glide_ligand_efficiency>  (16) 
-0.137005

>  <r_i_glide_ligand_efficiency_sa>  (16) 
-0.405877

>  <r_i_glide_ligand_efficiency_ln>  (16) 
-0.836554

>  <r_i_glide_gscore>  (16) 
-3.56213

>  <r_i_glide_lipo>  (16) 
-0.478536

>  <r_i_glide_hbond>  (16) 
0

>  <r_i_glide_metal>  (16) 
-0

>  <r_i_glide_rewards>  (16) 
-0.967423

>  <r_i_glide_evdw>  (16) 
-27.876

>  <r_i_glide_ecoul>  (16) 
-5.75161

>  <r_i_glide_erotb>  (16) 
0.149088

>  <r_i_glide_esite>  (16) 
-0.00871814

>  <r_i_glide_emodel>  (16) 
-41.9032

>  <r_i_glide_energy>  (16) 
-33.6276

>  <r_i_glide_einternal>  (16) 
0.133851

>  <r_i_glide_intrahb_reward>  (16) 
-0

>  <i_i_glide_confnum>  (16) 
2

>  <i_i_glide_posenum>  (16) 
23

>  <r_i_glide_eff_state_penalty>  (16) 
0

>  <ligand_id>  (16) 
4

>  <original_smiles>  (16) 
c1cc(C2CCC3(CC2)OOC2(OO3)C3CC4CC(C3)CC2C4)ccn1

>  <smiles>  (16) 
[H]c1c(C2([H])C([H])([H])C([H])([H])C3(OOC4(OO3)C3([H])C([H])([H])C5([H])C([H])([H])C([H])(C3([H])[H])C([H])([H])C4([H])C5([H])[H])C([H])([H])C2([H])[H])c([H])c([H])[n+]([H])c1[H]

$$$$
4:1:1
     RDKit          3D

 54 59  0  0  1  0  0  0  0  0999 V2000
    3.4148   -1.1923   -2.5373 C   0  0  0  0  0  0  0  0  0  0  0  0
    3.5618   -1.7479   -1.2482 C   0  0  0  0  0  0  0  0  0  0  0  0
    4.1699   -3.0168   -1.0938 C   0  0  0  0  0  0  0  0  0  0  0  0
    4.2890   -3.6581    0.2891 C   0  0  2  0  0  0  0  0  0  0  0  0
    5.1511   -4.9436    0.2762 C   0  0  0  0  0  0  0  0  0  0  0  0
    5.2505   -5.6305    1.6382 C   0  0  0  0  0  0  0  0  0  0  0  0
    3.8518   -5.9725    2.2163 C   0  0  0  0  0  0  0  0  0  0  0  0
    2.9972   -4.6792    2.2645 C   0  0  0  0  0  0  0  0  0  0  0  0
    2.9046   -3.9797    0.8943 C   0  0  0  0  0  0  0  0  0  0  0  0
    3.2502   -6.9861    1.3936 O   0  0  0  0  0  0  0  0  0  0  0  0
    1.9270   -7.4025    2.0123 O   0  0  0  0  0  0  0  0  0  0  0  0
    2.1582   -7.8979    3.3471 C   0  0  0  0  0  0  0  0  0  0  0  0
    2.7381   -6.8579    4.1505 O   0  0  0  0  0  0  0  0  0  0  0  0
    4.0546   -6.4711    3.5415 O   0  0  0  0  0  0  0  0  0  0  0  0
    0.7751   -8.3016    3.9651 C   0  0  1  0  0  0  0  0  0  0  0  0
    0.1056   -9.4180    3.1257 C   0  0  0  0  0  0  0  0  0  0  0  0
    1.0128  -10.6652    3.1224 C   0  0  2  0  0  0  0  0  0  0  0  0
    1.1905  -11.1816    4.5619 C   0  0  0  0  0  0  0  0  0  0  0  0
    1.8573  -10.0727    5.3995 C   0  0  2  0  0  0  0  0  0  0  0  0
    0.9524   -8.8258    5.4128 C   0  0  0  0  0  0  0  0  0  0  0  0
    3.2306   -9.6890    4.8005 C   0  0  0  0  0  0  0  0  0  0  0  0
    3.0568   -9.1779    3.3500 C   0  0  1  0  0  0  0  0  0  0  0  0
    2.3899  -10.2943    2.5198 C   0  0  0  0  0  0  0  0  0  0  0  0
    4.6303   -3.6705   -2.2625 C   0  0  0  0  0  0  0  0  0  0  0  0
    4.4609   -3.0735   -3.5179 C   0  0  0  0  0  0  0  0  0  0  0  0
    3.8656   -1.8675   -3.6150 N   0  0  0  0  0  0  0  0  0  0  0  0
    2.9275   -0.2607   -2.7391 H   0  0  0  0  0  0  0  0  0  0  0  0
    3.1709   -1.2198   -0.3916 H   0  0  0  0  0  0  0  0  0  0  0  0
    4.7819   -2.9233    0.9321 H   0  0  0  0  0  0  0  0  0  0  0  0
    4.7200   -5.6723   -0.4157 H   0  0  0  0  0  0  0  0  0  0  0  0
    6.1524   -4.7015   -0.0786 H   0  0  0  0  0  0  0  0  0  0  0  0
    5.8448   -6.5369    1.5327 H   0  0  0  0  0  0  0  0  0  0  0  0
    5.7822   -4.9763    2.3238 H   0  0  0  0  0  0  0  0  0  0  0  0
    1.9929   -4.8795    2.6403 H   0  0  0  0  0  0  0  0  0  0  0  0
    3.4512   -3.9914    2.9748 H   0  0  0  0  0  0  0  0  0  0  0  0
    2.3251   -3.0602    1.0024 H   0  0  0  0  0  0  0  0  0  0  0  0
    2.3521   -4.6166    0.1979 H   0  0  0  0  0  0  0  0  0  0  0  0
    0.1237   -7.4302    3.9823 H   0  0  0  0  0  0  0  0  0  0  0  0
   -0.8718   -9.6709    3.5367 H   0  0  0  0  0  0  0  0  0  0  0  0
   -0.0734   -9.0855    2.1033 H   0  0  0  0  0  0  0  0  0  0  0  0
    0.5466  -11.4508    2.5231 H   0  0  0  0  0  0  0  0  0  0  0  0
    0.2259  -11.4570    4.9936 H   0  0  0  0  0  0  0  0  0  0  0  0
    1.7917  -12.0908    4.5767 H   0  0  0  0  0  0  0  0  0  0  0  0
    1.9894  -10.4355    6.4210 H   0  0  0  0  0  0  0  0  0  0  0  0
    1.3844   -8.0588    6.0564 H   0  0  0  0  0  0  0  0  0  0  0  0
   -0.0139   -9.0779    5.8495 H   0  0  0  0  0  0  0  0  0  0  0  0
    3.6890   -8.9211    5.4272 H   0  0  0  0  0  0  0  0  0  0  0  0
    3.8962  -10.5529    4.8379 H   0  0  0  0  0  0  0  0  0  0  0  0
    4.0399   -8.9736    2.9264 H   0  0  0  0  0  0  0  0  0  0  0  0
    3.0202  -11.1866    2.4912 H   0  0  0  0  0  0  0  0  0  0  0  0
    2.2623   -9.9780    1.4830 H   0  0  0  0  0  0  0  0  0  0  0  0
    5.0742   -4.6517   -2.2393 H   0  0  0  0  0  0  0  0  0  0  0  0
    4.7693   -3.5719   -4.4230 H   0  0  0  0  0  0  0  0  0  0  0  0
    3.7231   -1.4424   -4.5341 H   0  0  0  0  0  0  0  0  0  0  0  0
  1 26  2  0
  1  2  1  0
  1 27  1  0
  2  3  2  0
  2 28  1  0
  3  4  1  0
  3 24  1  0
  4  9  1  0
  4  5  1  0
  4 29  1  1
  5  6  1  0
  5 30  1  0
  5 31  1  0
  6  7  1  0
  6 32  1  0
  6 33  1  0
  7 14  1  0
  7  8  1  0
  7 10  1  0
  8  9  1  0
  8 34  1  0
  8 35  1  0
  9 36  1  0
  9 37  1  0
 10 11  1  0
 11 12  1  0
 12 22  1  0
 12 13  1  0
 12 15  1  0
 13 14  1  0
 15 20  1  0
 15 16  1  0
 15 38  1  1
 16 17  1  0
 16 39  1  0
 16 40  1  0
 17 23  1  0
 17 18  1  0
 17 41  1  6
 18 19  1  0
 18 42  1  0
 18 43  1  0
 19 20  1  0
 19 21  1  0
 19 44  1  1
 20 45  1  0
 20 46  1  0
 21 22  1  0
 21 47  1  0
 21 48  1  0
 22 23  1  0
 22 49  1  6
 23 50  1  0
 23 51  1  0
 24 25  2  0
 24 52  1  0
 25 26  1  0
 25 53  1  0
 26 54  1  0
M  CHG  1  26   1
M  END
>  <i_m_ct_stereo_status>  (17) 
1

>  <s_m_source_file>  (17) 
/var/tmp/pbs.5076255.sched01/tmps52fw2z9/0bkrl5082.sdf

>  <i_m_source_file_index>  (17) 
6

>  <i_lp_mmshare_version>  (17) 
48012

>  <i_f3d_flags>  (17) 
0

>  <s_epik_input>  (17) 
W2NIXTFbY0hdbltjSF1bY0hdYzFbQ0hdKFtDSDJdW0NIMl0yKVtDSDJdW0NIMl1DMjNPT0M0KE9PMylbQ0BASF01W0NIMl1bQ0BIXTZbQ0gyXVtDQEBIXShbQ0gyXTUpW0NIMl1bQ0BASF00W0NIMl02

>  <s_epik_cmdline>  (17) 
J2VwaWtfcHl0aG9uJywgJy1waHQnLCAnMi4wJywgJy1waCcsICc3LjAnLCAnLXRuJywgJzgnLCAnLW1hJywgJzIwMCcsICctaW1hZScsICc8aW5maWxlLm1hZT4nLCAnLW9tYWUnLCAnPG91dGZpbGUubWFlPic=

>  <r_epik_Ionization_Penalty>  (17) 
1.20245

>  <r_epik_Ionization_Penalty_Charging>  (17) 
1.20245

>  <r_epik_Ionization_Penalty_Neutral>  (17) 
0

>  <r_epik_State_Penalty>  (17) 
1.26817

>  <r_epik_Charging_Adjusted_Penalty>  (17) 
2.47062

>  <i_epik_Tot_Q>  (17) 
1

>  <i_epik_Tot_abs_Q>  (17) 
1

>  <s_lp_Force_Field>  (17) 
OPLS3e

>  <r_lp_Energy>  (17) 
14.4846

>  <b_lp_Chiralities_Consistent>  (17) 
1

>  <s_lp_Variant>  (17) 
4:0-2

>  <s_i_glide_gridfile>  (17) 
pfpi4k_grid

>  <i_i_glide_lignum>  (17) 
6

>  <i_i_glide_rotatable_bonds>  (17) 
1

>  <r_i_docking_score>  (17) 
-3.15517

>  <r_i_glide_ligand_efficiency>  (17) 
-0.121353

>  <r_i_glide_ligand_efficiency_sa>  (17) 
-0.359507

>  <r_i_glide_ligand_efficiency_ln>  (17) 
-0.740981

>  <r_i_glide_gscore>  (17) 
-3.15517

>  <r_i_glide_lipo>  (17) 
-0.502383

>  <r_i_glide_hbond>  (17) 
0

>  <r_i_glide_metal>  (17) 
-0

>  <r_i_glide_rewards>  (17) 
-0.975413

>  <r_i_glide_evdw>  (17) 
-28.4783

>  <r_i_glide_ecoul>  (17) 
-2.65083

>  <r_i_glide_erotb>  (17) 
0.149088

>  <r_i_glide_esite>  (17) 
-0.00491923

>  <r_i_glide_emodel>  (17) 
-36.95

>  <r_i_glide_energy>  (17) 
-31.1291

>  <r_i_glide_einternal>  (17) 
2.9223

>  <r_i_glide_intrahb_reward>  (17) 
-0

>  <i_i_glide_confnum>  (17) 
2

>  <i_i_glide_posenum>  (17) 
30

>  <r_i_glide_eff_state_penalty>  (17) 
0

>  <ligand_id>  (17) 
4

>  <original_smiles>  (17) 
c1cc(C2CCC3(CC2)OOC2(OO3)C3CC4CC(C3)CC2C4)ccn1

>  <smiles>  (17) 
[H]c1c(C2([H])C([H])([H])C([H])([H])C3(OOC4(OO3)C3([H])C([H])([H])C5([H])C([H])([H])C([H])(C3([H])[H])C([H])([H])C4([H])C5([H])[H])C([H])([H])C2([H])[H])c([H])c([H])[n+]([H])c1[H]

$$$$
4:1:2
     RDKit          3D

 54 59  0  0  1  0  0  0  0  0999 V2000
    3.4414   -0.9399   -2.8982 C   0  0  0  0  0  0  0  0  0  0  0  0
    3.6662   -1.4220   -1.5843 C   0  0  0  0  0  0  0  0  0  0  0  0
    4.1584   -2.7323   -1.3936 C   0  0  0  0  0  0  0  0  0  0  0  0
    4.3334   -3.2917    0.0194 C   0  0  2  0  0  0  0  0  0  0  0  0
    4.8362   -4.7570    0.0349 C   0  0  0  0  0  0  0  0  0  0  0  0
    4.9731   -5.3595    1.4311 C   0  0  0  0  0  0  0  0  0  0  0  0
    3.6529   -5.2840    2.2379 C   0  0  0  0  0  0  0  0  0  0  0  0
    3.1740   -3.8146    2.2628 C   0  0  0  0  0  0  0  0  0  0  0  0
    3.0295   -3.2059    0.8554 C   0  0  0  0  0  0  0  0  0  0  0  0
    2.7035   -6.1479    1.6386 O   0  0  0  0  0  0  0  0  0  0  0  0
    1.4488   -6.1560    2.4788 O   0  0  0  0  0  0  0  0  0  0  0  0
    1.7653   -6.6144    3.7819 C   0  0  0  0  0  0  0  0  0  0  0  0
    2.6876   -5.7106    4.3553 O   0  0  0  0  0  0  0  0  0  0  0  0
    3.9554   -5.7148    3.5406 O   0  0  0  0  0  0  0  0  0  0  0  0
    0.4470   -6.5961    4.6387 C   0  0  1  0  0  0  0  0  0  0  0  0
   -0.6108   -7.5542    4.0350 C   0  0  0  0  0  0  0  0  0  0  0  0
   -0.0581   -8.9957    4.0385 C   0  0  2  0  0  0  0  0  0  0  0  0
    0.2308   -9.4377    5.4869 C   0  0  0  0  0  0  0  0  0  0  0  0
    1.2769   -8.4871    6.0964 C   0  0  2  0  0  0  0  0  0  0  0  0
    0.7286   -7.0469    6.0970 C   0  0  0  0  0  0  0  0  0  0  0  0
    2.5795   -8.5186    5.2621 C   0  0  0  0  0  0  0  0  0  0  0  0
    2.3068   -8.0772    3.7965 C   0  0  1  0  0  0  0  0  0  0  0  0
    1.2478   -9.0441    3.2063 C   0  0  0  0  0  0  0  0  0  0  0  0
    4.4633   -3.4910   -2.5522 C   0  0  0  0  0  0  0  0  0  0  0  0
    4.2079   -2.9693   -3.8285 C   0  0  0  0  0  0  0  0  0  0  0  0
    3.7137   -1.7242   -3.9518 N   0  0  0  0  0  0  0  0  0  0  0  0
    3.0329    0.0332   -3.1215 H   0  0  0  0  0  0  0  0  0  0  0  0
    3.4182   -0.8089   -0.7342 H   0  0  0  0  0  0  0  0  0  0  0  0
    5.0907   -2.6699    0.5056 H   0  0  0  0  0  0  0  0  0  0  0  0
    4.1429   -5.3840   -0.5320 H   0  0  0  0  0  0  0  0  0  0  0  0
    5.8096   -4.8082   -0.4610 H   0  0  0  0  0  0  0  0  0  0  0  0
    5.3103   -6.3902    1.3307 H   0  0  0  0  0  0  0  0  0  0  0  0
    5.7582   -4.8193    1.9486 H   0  0  0  0  0  0  0  0  0  0  0  0
    2.2261   -3.7074    2.7969 H   0  0  0  0  0  0  0  0  0  0  0  0
    3.8954   -3.2195    2.8164 H   0  0  0  0  0  0  0  0  0  0  0  0
    2.7119   -2.1638    0.9581 H   0  0  0  0  0  0  0  0  0  0  0  0
    2.2282   -3.7168    0.3146 H   0  0  0  0  0  0  0  0  0  0  0  0
    0.0411   -5.5851    4.6577 H   0  0  0  0  0  0  0  0  0  0  0  0
   -1.5399   -7.5161    4.6049 H   0  0  0  0  0  0  0  0  0  0  0  0
   -0.8705   -7.2608    3.0180 H   0  0  0  0  0  0  0  0  0  0  0  0
   -0.7969   -9.6753    3.6041 H   0  0  0  0  0  0  0  0  0  0  0  0
   -0.6850   -9.4262    6.0776 H   0  0  0  0  0  0  0  0  0  0  0  0
    0.5813  -10.4701    5.5090 H   0  0  0  0  0  0  0  0  0  0  0  0
    1.4832   -8.8058    7.1210 H   0  0  0  0  0  0  0  0  0  0  0  0
    1.4392   -6.3784    6.5836 H   0  0  0  0  0  0  0  0  0  0  0  0
   -0.1777   -7.0027    6.6982 H   0  0  0  0  0  0  0  0  0  0  0  0
    3.3135   -7.8580    5.7280 H   0  0  0  0  0  0  0  0  0  0  0  0
    3.0082   -9.5253    5.2984 H   0  0  0  0  0  0  0  0  0  0  0  0
    3.2277   -8.1750    3.2141 H   0  0  0  0  0  0  0  0  0  0  0  0
    1.6260  -10.0727    3.1858 H   0  0  0  0  0  0  0  0  0  0  0  0
    1.0285   -8.7837    2.1678 H   0  0  0  0  0  0  0  0  0  0  0  0
    4.8428   -4.4966   -2.5127 H   0  0  0  0  0  0  0  0  0  0  0  0
    4.3851   -3.5616   -4.7123 H   0  0  0  0  0  0  0  0  0  0  0  0
    3.5061   -1.3453   -4.8901 H   0  0  0  0  0  0  0  0  0  0  0  0
  1 26  2  0
  1  2  1  0
  1 27  1  0
  2  3  2  0
  2 28  1  0
  3  4  1  0
  3 24  1  0
  4  9  1  0
  4  5  1  0
  4 29  1  1
  5  6  1  0
  5 30  1  0
  5 31  1  0
  6  7  1  0
  6 32  1  0
  6 33  1  0
  7 14  1  0
  7  8  1  0
  7 10  1  0
  8  9  1  0
  8 34  1  0
  8 35  1  0
  9 36  1  0
  9 37  1  0
 10 11  1  0
 11 12  1  0
 12 22  1  0
 12 13  1  0
 12 15  1  0
 13 14  1  0
 15 20  1  0
 15 16  1  0
 15 38  1  1
 16 17  1  0
 16 39  1  0
 16 40  1  0
 17 23  1  0
 17 18  1  0
 17 41  1  6
 18 19  1  0
 18 42  1  0
 18 43  1  0
 19 20  1  0
 19 21  1  0
 19 44  1  1
 20 45  1  0
 20 46  1  0
 21 22  1  0
 21 47  1  0
 21 48  1  0
 22 23  1  0
 22 49  1  6
 23 50  1  0
 23 51  1  0
 24 25  2  0
 24 52  1  0
 25 26  1  0
 25 53  1  0
 26 54  1  0
M  CHG  1  26   1
M  END
>  <i_m_ct_stereo_status>  (18) 
1

>  <s_m_source_file>  (18) 
/var/tmp/pbs.5076255.sched01/tmps52fw2z9/0bkrl5082.sdf

>  <i_m_source_file_index>  (18) 
6

>  <i_lp_mmshare_version>  (18) 
48012

>  <i_f3d_flags>  (18) 
0

>  <s_epik_input>  (18) 
W2NIXTFbY0hdbltjSF1bY0hdYzFbQ0hdKFtDSDJdW0NIMl0yKVtDSDJdW0NIMl1DMjNPT0M0KE9PMylbQ0BASF01W0NIMl1bQ0BIXTZbQ0gyXVtDQEBIXShbQ0gyXTUpW0NIMl1bQ0BASF00W0NIMl02

>  <s_epik_cmdline>  (18) 
J2VwaWtfcHl0aG9uJywgJy1waHQnLCAnMi4wJywgJy1waCcsICc3LjAnLCAnLXRuJywgJzgnLCAnLW1hJywgJzIwMCcsICctaW1hZScsICc8aW5maWxlLm1hZT4nLCAnLW9tYWUnLCAnPG91dGZpbGUubWFlPic=

>  <r_epik_Ionization_Penalty>  (18) 
1.20245

>  <r_epik_Ionization_Penalty_Charging>  (18) 
1.20245

>  <r_epik_Ionization_Penalty_Neutral>  (18) 
0

>  <r_epik_State_Penalty>  (18) 
1.26817

>  <r_epik_Charging_Adjusted_Penalty>  (18) 
2.47062

>  <i_epik_Tot_Q>  (18) 
1

>  <i_epik_Tot_abs_Q>  (18) 
1

>  <s_lp_Force_Field>  (18) 
OPLS3e

>  <r_lp_Energy>  (18) 
14.4846

>  <b_lp_Chiralities_Consistent>  (18) 
1

>  <s_lp_Variant>  (18) 
4:0-2

>  <s_i_glide_gridfile>  (18) 
pfpi4k_grid

>  <i_i_glide_lignum>  (18) 
6

>  <i_i_glide_rotatable_bonds>  (18) 
1

>  <r_i_docking_score>  (18) 
-2.6923

>  <r_i_glide_ligand_efficiency>  (18) 
-0.10355

>  <r_i_glide_ligand_efficiency_sa>  (18) 
-0.306766

>  <r_i_glide_ligand_efficiency_ln>  (18) 
-0.632277

>  <r_i_glide_gscore>  (18) 
-2.6923

>  <r_i_glide_lipo>  (18) 
-0.203655

>  <r_i_glide_hbond>  (18) 
0

>  <r_i_glide_metal>  (18) 
-0

>  <r_i_glide_rewards>  (18) 
-0.967924

>  <r_i_glide_evdw>  (18) 
-26.3331

>  <r_i_glide_ecoul>  (18) 
-2.31283

>  <r_i_glide_erotb>  (18) 
0.149088

>  <r_i_glide_esite>  (18) 
-0.00622605

>  <r_i_glide_emodel>  (18) 
-33.3774

>  <r_i_glide_energy>  (18) 
-28.646

>  <r_i_glide_einternal>  (18) 
2.89879

>  <r_i_glide_intrahb_reward>  (18) 
-0

>  <i_i_glide_confnum>  (18) 
2

>  <i_i_glide_posenum>  (18) 
39

>  <r_i_glide_eff_state_penalty>  (18) 
0

>  <ligand_id>  (18) 
4

>  <original_smiles>  (18) 
c1cc(C2CCC3(CC2)OOC2(OO3)C3CC4CC(C3)CC2C4)ccn1

>  <smiles>  (18) 
[H]c1c(C2([H])C([H])([H])C([H])([H])C3(OOC4(OO3)C3([H])C([H])([H])C5([H])C([H])([H])C([H])(C3([H])[H])C([H])([H])C4([H])C5([H])[H])C([H])([H])C2([H])[H])c([H])c([H])[n+]([H])c1[H]

$$$$
5:0:0
     RDKit          3D

 50 53  0  0  1  0  0  0  0  0999 V2000
    6.1414   -7.3542    1.7877 C   0  0  0  0  0  0  0  0  0  0  0  0
    5.0233   -8.0386    2.5997 C   0  0  2  0  0  0  0  0  0  0  0  0
    4.4960   -9.2343    1.7818 C   0  0  0  0  0  0  0  0  0  0  0  0
    3.1383   -9.7360    2.2713 C   0  0  0  0  0  0  0  0  0  0  0  0
    2.0400   -8.6542    2.1384 C   0  0  1  0  0  0  0  0  0  0  0  0
    0.8013   -8.9372    3.0094 C   0  0  1  0  0  0  0  0  0  0  0  0
    1.0005   -9.0258    4.5510 C   0  0  0  0  0  0  0  0  0  0  0  0
    0.2325  -10.1128    5.2002 N   0  0  0  0  0  0  0  0  0  0  0  0
    0.1220   -9.9245    6.6615 C   0  0  0  0  0  0  0  0  0  0  0  0
    0.7490  -11.4522    4.8687 C   0  0  0  0  0  0  0  0  0  0  0  0
   -0.2676   -7.9188    2.6277 C   0  0  0  0  0  0  0  0  0  0  0  0
   -1.4250   -8.2893    2.4741 O   0  0  0  0  0  0  0  0  0  0  0  0
    0.1309   -6.6149    2.5234 O   0  0  0  0  0  0  0  0  0  0  0  0
    1.4607   -6.2349    2.8029 C   0  0  2  0  0  0  0  0  0  0  0  0
    1.7316   -5.0463    2.1406 O   0  0  0  0  0  0  0  0  0  0  0  0
    2.8250   -5.2670    1.3090 C   0  0  1  0  0  0  0  0  0  0  0  0
    2.6216   -4.5365   -0.0237 C   0  0  0  0  0  0  0  0  0  0  0  0
    4.0925   -4.7955    2.0593 C   0  0  0  0  0  0  0  0  0  0  0  0
    4.2706   -5.6312    3.3468 C   0  0  0  0  0  0  0  0  0  0  0  0
    3.8742   -7.1119    3.1380 C   0  0  1  0  0  0  0  0  0  0  0  0
    2.5705   -7.2072    2.2861 C   0  0  1  0  0  0  0  0  0  0  0  0
    2.9269   -6.6302    1.0471 O   0  0  0  0  0  0  0  0  0  0  0  0
    5.7533   -6.9142    0.8668 H   0  0  0  0  0  0  0  0  0  0  0  0
    6.9019   -8.0818    1.4950 H   0  0  0  0  0  0  0  0  0  0  0  0
    6.6585   -6.5775    2.3497 H   0  0  0  0  0  0  0  0  0  0  0  0
    5.5139   -8.4535    3.4825 H   0  0  0  0  0  0  0  0  0  0  0  0
    4.4295   -8.9819    0.7172 H   0  0  0  0  0  0  0  0  0  0  0  0
    5.2075  -10.0569    1.8344 H   0  0  0  0  0  0  0  0  0  0  0  0
    2.8490  -10.6015    1.6855 H   0  0  0  0  0  0  0  0  0  0  0  0
    3.2364  -10.1208    3.2877 H   0  0  0  0  0  0  0  0  0  0  0  0
    1.6998   -8.7196    1.1000 H   0  0  0  0  0  0  0  0  0  0  0  0
    0.3996   -9.8811    2.6434 H   0  0  0  0  0  0  0  0  0  0  0  0
    2.0582   -9.1548    4.8012 H   0  0  0  0  0  0  0  0  0  0  0  0
    0.7459   -8.0674    5.0041 H   0  0  0  0  0  0  0  0  0  0  0  0
    1.1014   -9.8540    7.1384 H   0  0  0  0  0  0  0  0  0  0  0  0
   -0.3878  -10.7681    7.1092 H   0  0  0  0  0  0  0  0  0  0  0  0
   -0.4489   -9.0412    6.9261 H   0  0  0  0  0  0  0  0  0  0  0  0
    1.7612  -11.5897    5.2560 H   0  0  0  0  0  0  0  0  0  0  0  0
    0.7741  -11.6476    3.7987 H   0  0  0  0  0  0  0  0  0  0  0  0
    0.1298  -12.2312    5.2998 H   0  0  0  0  0  0  0  0  0  0  0  0
    1.5380   -6.0677    3.8769 H   0  0  0  0  0  0  0  0  0  0  0  0
    1.7288   -4.9058   -0.5286 H   0  0  0  0  0  0  0  0  0  0  0  0
    3.4794   -4.7154   -0.6748 H   0  0  0  0  0  0  0  0  0  0  0  0
    2.5273   -3.4629    0.1436 H   0  0  0  0  0  0  0  0  0  0  0  0
    4.9554   -4.8777    1.3980 H   0  0  0  0  0  0  0  0  0  0  0  0
    3.9747   -3.7403    2.3126 H   0  0  0  0  0  0  0  0  0  0  0  0
    5.2836   -5.5353    3.7294 H   0  0  0  0  0  0  0  0  0  0  0  0
    3.6367   -5.2065    4.1270 H   0  0  0  0  0  0  0  0  0  0  0  0
    3.6338   -7.5036    4.1260 H   0  0  0  0  0  0  0  0  0  0  0  0
   -0.7496  -10.1260    4.8758 H   0  0  0  0  0  0  0  0  0  0  0  0
  1  2  1  0
  1 23  1  0
  1 24  1  0
  1 25  1  0
  2 20  1  0
  2  3  1  0
  2 26  1  1
  3  4  1  0
  3 27  1  0
  3 28  1  0
  4  5  1  0
  4 29  1  0
  4 30  1  0
  5 21  1  0
  5  6  1  0
  5 31  1  6
  6  7  1  0
  6 11  1  0
  6 32  1  6
  7  8  1  0
  7 33  1  0
  7 34  1  0
  8  9  1  0
  8 10  1  0
  8 50  1  0
  9 35  1  0
  9 36  1  0
  9 37  1  0
 10 38  1  0
 10 39  1  0
 10 40  1  0
 11 12  2  0
 11 13  1  0
 13 14  1  0
 14 21  1  0
 14 15  1  0
 14 41  1  1
 15 16  1  0
 16 22  1  0
 16 17  1  6
 16 18  1  0
 17 42  1  0
 17 43  1  0
 17 44  1  0
 18 19  1  0
 18 45  1  0
 18 46  1  0
 19 20  1  0
 19 47  1  0
 19 48  1  0
 20 21  1  0
 20 49  1  1
 21 22  1  6
M  CHG  1   8   1
M  END
>  <i_m_ct_stereo_status>  (19) 
1

>  <s_m_source_file>  (19) 
/var/tmp/pbs.5076255.sched01/tmps52fw2z9/0bkrl5082.sdf

>  <i_m_source_file_index>  (19) 
7

>  <i_lp_mmshare_version>  (19) 
48012

>  <i_f3d_flags>  (19) 
0

>  <s_epik_input>  (19) 
W0NAXTEyM1tDQEhdNFtDSDJdW0NIMl1bQ0BASF0oW0NIM10pW0NASF0yW0NIMl1bQ0gyXVtDQF0oTzMpKFtDSDNdKU9bQ0BIXTFPQyg9TylbQ0BASF00W0NIMl1OKFtDSDNdKVtDSDNd

>  <s_epik_cmdline>  (19) 
J2VwaWtfcHl0aG9uJywgJy1waHQnLCAnMi4wJywgJy1waCcsICc3LjAnLCAnLXRuJywgJzgnLCAnLW1hJywgJzIwMCcsICctaW1hZScsICc8aW5maWxlLm1hZT4nLCAnLW9tYWUnLCAnPG91dGZpbGUubWFlPic=

>  <r_epik_Ionization_Penalty>  (19) 
0.0112916

>  <r_epik_Ionization_Penalty_Charging>  (19) 
0.0112916

>  <r_epik_Ionization_Penalty_Neutral>  (19) 
2.7101e-13

>  <r_epik_State_Penalty>  (19) 
0.00868197

>  <r_epik_Charging_Adjusted_Penalty>  (19) 
0.0199735

>  <i_epik_Tot_Q>  (19) 
1

>  <i_epik_Tot_abs_Q>  (19) 
1

>  <s_epik_Chemistry_Notes>  (19) 
This compound has an ester and may undergo hydrolysis at high or low pH. This compound contains an acetal/aminal-like group ( X-CH(R)-Y where X, Y are N, S, or O) that may be acid/base labile, releasing an aldehyde.

>  <s_lp_Force_Field>  (19) 
OPLS3e

>  <r_lp_Energy>  (19) 
51.7228

>  <b_lp_Chiralities_Consistent>  (19) 
1

>  <s_lp_Variant>  (19) 
5:0-1

>  <s_i_glide_gridfile>  (19) 
pfpi4k_grid

>  <i_i_glide_lignum>  (19) 
7

>  <i_i_glide_rotatable_bonds>  (19) 
2

>  <r_i_docking_score>  (19) 
-3.61179

>  <r_i_glide_ligand_efficiency>  (19) 
-0.164172

>  <r_i_glide_ligand_efficiency_sa>  (19) 
-0.460017

>  <r_i_glide_ligand_efficiency_ln>  (19) 
-0.882854

>  <r_i_glide_gscore>  (19) 
-3.61179

>  <r_i_glide_lipo>  (19) 
-0.0814915

>  <r_i_glide_hbond>  (19) 
-0.283368

>  <r_i_glide_metal>  (19) 
-0

>  <r_i_glide_rewards>  (19) 
-1.29267

>  <r_i_glide_evdw>  (19) 
-20.0748

>  <r_i_glide_ecoul>  (19) 
-6.35596

>  <r_i_glide_erotb>  (19) 
0.192316

>  <r_i_glide_esite>  (19) 
-0.189444

>  <r_i_glide_emodel>  (19) 
-34.9214

>  <r_i_glide_energy>  (19) 
-26.4308

>  <r_i_glide_einternal>  (19) 
0.758607

>  <r_i_glide_intrahb_reward>  (19) 
-0

>  <i_i_glide_confnum>  (19) 
3

>  <i_i_glide_posenum>  (19) 
13

>  <r_i_glide_eff_state_penalty>  (19) 
0

>  <ligand_id>  (19) 
5

>  <original_smiles>  (19) 
CC1CCC2C(CN(C)C)C(=O)OC3OC4(C)CCC1C32O4

>  <smiles>  (19) 
[H]C([H])([H])C12OC3([H])OC(=O)C([H])(C([H])([H])[N+]([H])(C([H])([H])[H])C([H])([H])[H])C4([H])C([H])([H])C([H])([H])C([H])(C([H])([H])[H])C([H])(C([H])([H])C1([H])[H])C34O2

$$$$
5:0:1
     RDKit          3D

 50 53  0  0  1  0  0  0  0  0999 V2000
    8.1096   -2.8122   -0.3167 C   0  0  0  0  0  0  0  0  0  0  0  0
    7.1172   -3.3983    0.7056 C   0  0  2  0  0  0  0  0  0  0  0  0
    7.2445   -4.9346    0.6992 C   0  0  0  0  0  0  0  0  0  0  0  0
    6.0557   -5.6510    1.3321 C   0  0  0  0  0  0  0  0  0  0  0  0
    4.7361   -5.3158    0.6092 C   0  0  1  0  0  0  0  0  0  0  0  0
    3.4889   -5.6249    1.4581 C   0  0  1  0  0  0  0  0  0  0  0  0
    3.3378   -4.8640    2.8280 C   0  0  0  0  0  0  0  0  0  0  0  0
    2.6429   -5.6466    3.8913 N   0  0  0  0  0  0  0  0  0  0  0  0
    2.3382   -4.8223    5.0951 C   0  0  0  0  0  0  0  0  0  0  0  0
    3.3785   -6.8797    4.2872 C   0  0  0  0  0  0  0  0  0  0  0  0
    2.2531   -5.4440    0.5702 C   0  0  0  0  0  0  0  0  0  0  0  0
    1.3276   -6.2460    0.6288 O   0  0  0  0  0  0  0  0  0  0  0  0
    2.2268   -4.3511   -0.2319 O   0  0  0  0  0  0  0  0  0  0  0  0
    3.2278   -3.3684   -0.1633 C   0  0  2  0  0  0  0  0  0  0  0  0
    3.2410   -2.6704   -1.3639 O   0  0  0  0  0  0  0  0  0  0  0  0
    4.5059   -2.7943   -1.9124 C   0  0  1  0  0  0  0  0  0  0  0  0
    4.3866   -2.9752   -3.4259 C   0  0  0  0  0  0  0  0  0  0  0  0
    5.3105   -1.5430   -1.5034 C   0  0  0  0  0  0  0  0  0  0  0  0
    5.4532   -1.4855    0.0296 C   0  0  0  0  0  0  0  0  0  0  0  0
    5.6368   -2.8886    0.6537 C   0  0  1  0  0  0  0  0  0  0  0  0
    4.6816   -3.9076   -0.0397 C   0  0  1  0  0  0  0  0  0  0  0  0
    5.1104   -3.9238   -1.3816 O   0  0  0  0  0  0  0  0  0  0  0  0
    7.8398   -3.0776   -1.3376 H   0  0  0  0  0  0  0  0  0  0  0  0
    9.1156   -3.1995   -0.1408 H   0  0  0  0  0  0  0  0  0  0  0  0
    8.1879   -1.7291   -0.2363 H   0  0  0  0  0  0  0  0  0  0  0  0
    7.4778   -3.0726    1.6760 H   0  0  0  0  0  0  0  0  0  0  0  0
    7.3440   -5.2729   -0.3168 H   0  0  0  0  0  0  0  0  0  0  0  0
    8.1643   -5.2406    1.1993 H   0  0  0  0  0  0  0  0  0  0  0  0
    6.2222   -6.7287    1.2807 H   0  0  0  0  0  0  0  0  0  0  0  0
    6.0376   -5.4218    2.3928 H   0  0  0  0  0  0  0  0  0  0  0  0
    4.6799   -6.0127   -0.2327 H   0  0  0  0  0  0  0  0  0  0  0  0
    3.5320   -6.6995    1.6385 H   0  0  0  0  0  0  0  0  0  0  0  0
    4.3024   -4.5473    3.2133 H   0  0  0  0  0  0  0  0  0  0  0  0
    2.7865   -3.9263    2.6663 H   0  0  0  0  0  0  0  0  0  0  0  0
    3.2402   -4.3525    5.5036 H   0  0  0  0  0  0  0  0  0  0  0  0
    1.9135   -5.4451    5.8897 H   0  0  0  0  0  0  0  0  0  0  0  0
    1.6086   -4.0336    4.8772 H   0  0  0  0  0  0  0  0  0  0  0  0
    4.3562   -6.6222    4.7079 H   0  0  0  0  0  0  0  0  0  0  0  0
    3.5311   -7.5668    3.4503 H   0  0  0  0  0  0  0  0  0  0  0  0
    2.8154   -7.4296    5.0512 H   0  0  0  0  0  0  0  0  0  0  0  0
    2.9742   -2.6812    0.6436 H   0  0  0  0  0  0  0  0  0  0  0  0
    3.8011   -3.8650   -3.6563 H   0  0  0  0  0  0  0  0  0  0  0  0
    5.3837   -3.0954   -3.8482 H   0  0  0  0  0  0  0  0  0  0  0  0
    3.9053   -2.1044   -3.8684 H   0  0  0  0  0  0  0  0  0  0  0  0
    6.2774   -1.5883   -1.9985 H   0  0  0  0  0  0  0  0  0  0  0  0
    4.7847   -0.6567   -1.8658 H   0  0  0  0  0  0  0  0  0  0  0  0
    6.2527   -0.8107    0.3258 H   0  0  0  0  0  0  0  0  0  0  0  0
    4.5507   -1.0383    0.4479 H   0  0  0  0  0  0  0  0  0  0  0  0
    5.3129   -2.8174    1.6911 H   0  0  0  0  0  0  0  0  0  0  0  0
    1.7487   -5.9448    3.5229 H   0  0  0  0  0  0  0  0  0  0  0  0
  1  2  1  0
  1 23  1  0
  1 24  1  0
  1 25  1  0
  2 20  1  0
  2  3  1  0
  2 26  1  1
  3  4  1  0
  3 27  1  0
  3 28  1  0
  4  5  1  0
  4 29  1  0
  4 30  1  0
  5 21  1  0
  5  6  1  0
  5 31  1  6
  6  7  1  0
  6 11  1  0
  6 32  1  1
  7  8  1  0
  7 33  1  0
  7 34  1  0
  8  9  1  0
  8 10  1  0
  8 50  1  0
  9 35  1  0
  9 36  1  0
  9 37  1  0
 10 38  1  0
 10 39  1  0
 10 40  1  0
 11 12  2  0
 11 13  1  0
 13 14  1  0
 14 21  1  0
 14 15  1  0
 14 41  1  1
 15 16  1  0
 16 22  1  0
 16 17  1  6
 16 18  1  0
 17 42  1  0
 17 43  1  0
 17 44  1  0
 18 19  1  0
 18 45  1  0
 18 46  1  0
 19 20  1  0
 19 47  1  0
 19 48  1  0
 20 21  1  0
 20 49  1  1
 21 22  1  6
M  CHG  1   8   1
M  END
>  <i_m_ct_stereo_status>  (20) 
1

>  <s_m_source_file>  (20) 
/var/tmp/pbs.5076255.sched01/tmps52fw2z9/0bkrl5082.sdf

>  <i_m_source_file_index>  (20) 
7

>  <i_lp_mmshare_version>  (20) 
48012

>  <i_f3d_flags>  (20) 
0

>  <s_epik_input>  (20) 
W0NAXTEyM1tDQEhdNFtDSDJdW0NIMl1bQ0BASF0oW0NIM10pW0NASF0yW0NIMl1bQ0gyXVtDQF0oTzMpKFtDSDNdKU9bQ0BIXTFPQyg9TylbQ0BASF00W0NIMl1OKFtDSDNdKVtDSDNd

>  <s_epik_cmdline>  (20) 
J2VwaWtfcHl0aG9uJywgJy1waHQnLCAnMi4wJywgJy1waCcsICc3LjAnLCAnLXRuJywgJzgnLCAnLW1hJywgJzIwMCcsICctaW1hZScsICc8aW5maWxlLm1hZT4nLCAnLW9tYWUnLCAnPG91dGZpbGUubWFlPic=

>  <r_epik_Ionization_Penalty>  (20) 
0.0112916

>  <r_epik_Ionization_Penalty_Charging>  (20) 
0.0112916

>  <r_epik_Ionization_Penalty_Neutral>  (20) 
2.7101e-13

>  <r_epik_State_Penalty>  (20) 
0.00868197

>  <r_epik_Charging_Adjusted_Penalty>  (20) 
0.0199735

>  <i_epik_Tot_Q>  (20) 
1

>  <i_epik_Tot_abs_Q>  (20) 
1

>  <s_epik_Chemistry_Notes>  (20) 
This compound has an ester and may undergo hydrolysis at high or low pH. This compound contains an acetal/aminal-like group ( X-CH(R)-Y where X, Y are N, S, or O) that may be acid/base labile, releasing an aldehyde.

>  <s_lp_Force_Field>  (20) 
OPLS3e

>  <r_lp_Energy>  (20) 
51.7228

>  <b_lp_Chiralities_Consistent>  (20) 
1

>  <s_lp_Variant>  (20) 
5:0-1

>  <s_i_glide_gridfile>  (20) 
pfpi4k_grid

>  <i_i_glide_lignum>  (20) 
7

>  <i_i_glide_rotatable_bonds>  (20) 
2

>  <r_i_docking_score>  (20) 
-3.27084

>  <r_i_glide_ligand_efficiency>  (20) 
-0.148674

>  <r_i_glide_ligand_efficiency_sa>  (20) 
-0.416592

>  <r_i_glide_ligand_efficiency_ln>  (20) 
-0.799512

>  <r_i_glide_gscore>  (20) 
-3.27084

>  <r_i_glide_lipo>  (20) 
-0.715979

>  <r_i_glide_hbond>  (20) 
-0.122474

>  <r_i_glide_metal>  (20) 
-0

>  <r_i_glide_rewards>  (20) 
-1.33041

>  <r_i_glide_evdw>  (20) 
-18.7873

>  <r_i_glide_ecoul>  (20) 
-1.98209

>  <r_i_glide_erotb>  (20) 
0.192316

>  <r_i_glide_esite>  (20) 
-0.0576167

>  <r_i_glide_emodel>  (20) 
-28.5677

>  <r_i_glide_energy>  (20) 
-20.7694

>  <r_i_glide_einternal>  (20) 
0.239413

>  <r_i_glide_intrahb_reward>  (20) 
-0

>  <i_i_glide_confnum>  (20) 
3

>  <i_i_glide_posenum>  (20) 
3

>  <r_i_glide_eff_state_penalty>  (20) 
0

>  <ligand_id>  (20) 
5

>  <original_smiles>  (20) 
CC1CCC2C(CN(C)C)C(=O)OC3OC4(C)CCC1C32O4

>  <smiles>  (20) 
[H]C([H])([H])C12OC3([H])OC(=O)C([H])(C([H])([H])[N+]([H])(C([H])([H])[H])C([H])([H])[H])C4([H])C([H])([H])C([H])([H])C([H])(C([H])([H])[H])C([H])(C([H])([H])C1([H])[H])C34O2

$$$$
5:0:2
     RDKit          3D

 50 53  0  0  1  0  0  0  0  0999 V2000
    7.5145   -7.6135    2.4281 C   0  0  0  0  0  0  0  0  0  0  0  0
    6.1586   -8.3316    2.5982 C   0  0  2  0  0  0  0  0  0  0  0  0
    5.6361   -8.7147    1.2037 C   0  0  0  0  0  0  0  0  0  0  0  0
    4.1474   -9.0412    1.1600 C   0  0  0  0  0  0  0  0  0  0  0  0
    3.2903   -7.8253    1.5864 C   0  0  1  0  0  0  0  0  0  0  0  0
    1.8463   -8.2007    1.9978 C   0  0  1  0  0  0  0  0  0  0  0  0
    1.7027   -9.1499    3.2316 C   0  0  0  0  0  0  0  0  0  0  0  0
    0.5600  -10.1181    3.1443 N   0  0  0  0  0  0  0  0  0  0  0  0
   -0.7787   -9.4809    3.1130 C   0  0  0  0  0  0  0  0  0  0  0  0
    0.6341  -11.1302    4.2403 C   0  0  0  0  0  0  0  0  0  0  0  0
    1.0811   -6.8857    2.1664 C   0  0  0  0  0  0  0  0  0  0  0  0
   -0.0217   -6.7257    1.6502 O   0  0  0  0  0  0  0  0  0  0  0  0
    1.6733   -5.9109    2.9157 O   0  0  0  0  0  0  0  0  0  0  0  0
    2.9555   -6.0963    3.4757 C   0  0  2  0  0  0  0  0  0  0  0  0
    3.5393   -4.8495    3.6435 O   0  0  0  0  0  0  0  0  0  0  0  0
    4.7424   -4.8470    2.9425 C   0  0  1  0  0  0  0  0  0  0  0  0
    4.9454   -3.4911    2.2658 C   0  0  0  0  0  0  0  0  0  0  0  0
    5.8616   -5.1980    3.9428 C   0  0  0  0  0  0  0  0  0  0  0  0
    5.6332   -6.6113    4.5172 C   0  0  0  0  0  0  0  0  0  0  0  0
    5.0712   -7.5924    3.4575 C   0  0  1  0  0  0  0  0  0  0  0  0
    3.9832   -6.8739    2.5932 C   0  0  1  0  0  0  0  0  0  0  0  0
    4.6833   -5.8302    1.9558 O   0  0  0  0  0  0  0  0  0  0  0  0
    7.4095   -6.6625    1.8999 H   0  0  0  0  0  0  0  0  0  0  0  0
    8.2035   -8.2194    1.8386 H   0  0  0  0  0  0  0  0  0  0  0  0
    8.0165   -7.4214    3.3772 H   0  0  0  0  0  0  0  0  0  0  0  0
    6.3831   -9.2606    3.1277 H   0  0  0  0  0  0  0  0  0  0  0  0
    5.8006   -7.8838    0.5256 H   0  0  0  0  0  0  0  0  0  0  0  0
    6.2039   -9.5560    0.8198 H   0  0  0  0  0  0  0  0  0  0  0  0
    3.8830   -9.3224    0.1472 H   0  0  0  0  0  0  0  0  0  0  0  0
    3.9620   -9.9373    1.7530 H   0  0  0  0  0  0  0  0  0  0  0  0
    3.1866   -7.2123    0.6804 H   0  0  0  0  0  0  0  0  0  0  0  0
    1.4161   -8.7057    1.1333 H   0  0  0  0  0  0  0  0  0  0  0  0
    2.6045   -9.7408    3.3415 H   0  0  0  0  0  0  0  0  0  0  0  0
    1.6245   -8.5776    4.1503 H   0  0  0  0  0  0  0  0  0  0  0  0
   -0.9316   -8.8055    3.9532 H   0  0  0  0  0  0  0  0  0  0  0  0
   -1.5555  -10.2349    3.1457 H   0  0  0  0  0  0  0  0  0  0  0  0
   -0.9390   -8.9524    2.1793 H   0  0  0  0  0  0  0  0  0  0  0  0
    0.5091  -10.6744    5.2183 H   0  0  0  0  0  0  0  0  0  0  0  0
    1.5796  -11.6627    4.2277 H   0  0  0  0  0  0  0  0  0  0  0  0
   -0.1517  -11.8752    4.1270 H   0  0  0  0  0  0  0  0  0  0  0  0
    2.8217   -6.5596    4.4505 H   0  0  0  0  0  0  0  0  0  0  0  0
    4.1314   -3.2843    1.5689 H   0  0  0  0  0  0  0  0  0  0  0  0
    5.8854   -3.4962    1.7098 H   0  0  0  0  0  0  0  0  0  0  0  0
    4.9849   -2.6977    3.0144 H   0  0  0  0  0  0  0  0  0  0  0  0
    6.8227   -5.1223    3.4330 H   0  0  0  0  0  0  0  0  0  0  0  0
    5.8542   -4.4595    4.7465 H   0  0  0  0  0  0  0  0  0  0  0  0
    6.5424   -6.9929    4.9736 H   0  0  0  0  0  0  0  0  0  0  0  0
    4.9173   -6.5401    5.3418 H   0  0  0  0  0  0  0  0  0  0  0  0
    4.5603   -8.3787    4.0086 H   0  0  0  0  0  0  0  0  0  0  0  0
    0.6552  -10.6292    2.2926 H   0  0  0  0  0  0  0  0  0  0  0  0
  1  2  1  0
  1 23  1  0
  1 24  1  0
  1 25  1  0
  2 20  1  0
  2  3  1  0
  2 26  1  1
  3  4  1  0
  3 27  1  0
  3 28  1  0
  4  5  1  0
  4 29  1  0
  4 30  1  0
  5 21  1  0
  5  6  1  0
  5 31  1  6
  6  7  1  0
  6 11  1  0
  6 32  1  6
  7  8  1  0
  7 33  1  0
  7 34  1  0
  8  9  1  0
  8 10  1  0
  8 50  1  0
  9 35  1  0
  9 36  1  0
  9 37  1  0
 10 38  1  0
 10 39  1  0
 10 40  1  0
 11 12  2  0
 11 13  1  0
 13 14  1  0
 14 21  1  0
 14 15  1  0
 14 41  1  1
 15 16  1  0
 16 22  1  0
 16 17  1  6
 16 18  1  0
 17 42  1  0
 17 43  1  0
 17 44  1  0
 18 19  1  0
 18 45  1  0
 18 46  1  0
 19 20  1  0
 19 47  1  0
 19 48  1  0
 20 21  1  0
 20 49  1  1
 21 22  1  6
M  CHG  1   8   1
M  END
>  <i_m_ct_stereo_status>  (21) 
1

>  <s_m_source_file>  (21) 
/var/tmp/pbs.5076255.sched01/tmps52fw2z9/0bkrl5082.sdf

>  <i_m_source_file_index>  (21) 
7

>  <i_lp_mmshare_version>  (21) 
48012

>  <i_f3d_flags>  (21) 
0

>  <s_epik_input>  (21) 
W0NAXTEyM1tDQEhdNFtDSDJdW0NIMl1bQ0BASF0oW0NIM10pW0NASF0yW0NIMl1bQ0gyXVtDQF0oTzMpKFtDSDNdKU9bQ0BIXTFPQyg9TylbQ0BASF00W0NIMl1OKFtDSDNdKVtDSDNd

>  <s_epik_cmdline>  (21) 
J2VwaWtfcHl0aG9uJywgJy1waHQnLCAnMi4wJywgJy1waCcsICc3LjAnLCAnLXRuJywgJzgnLCAnLW1hJywgJzIwMCcsICctaW1hZScsICc8aW5maWxlLm1hZT4nLCAnLW9tYWUnLCAnPG91dGZpbGUubWFlPic=

>  <r_epik_Ionization_Penalty>  (21) 
0.0112916

>  <r_epik_Ionization_Penalty_Charging>  (21) 
0.0112916

>  <r_epik_Ionization_Penalty_Neutral>  (21) 
2.7101e-13

>  <r_epik_State_Penalty>  (21) 
0.00868197

>  <r_epik_Charging_Adjusted_Penalty>  (21) 
0.0199735

>  <i_epik_Tot_Q>  (21) 
1

>  <i_epik_Tot_abs_Q>  (21) 
1

>  <s_epik_Chemistry_Notes>  (21) 
This compound has an ester and may undergo hydrolysis at high or low pH. This compound contains an acetal/aminal-like group ( X-CH(R)-Y where X, Y are N, S, or O) that may be acid/base labile, releasing an aldehyde.

>  <s_lp_Force_Field>  (21) 
OPLS3e

>  <r_lp_Energy>  (21) 
51.7228

>  <b_lp_Chiralities_Consistent>  (21) 
1

>  <s_lp_Variant>  (21) 
5:0-1

>  <s_i_glide_gridfile>  (21) 
pfpi4k_grid

>  <i_i_glide_lignum>  (21) 
7

>  <i_i_glide_rotatable_bonds>  (21) 
2

>  <r_i_docking_score>  (21) 
-2.98852

>  <r_i_glide_ligand_efficiency>  (21) 
-0.135842

>  <r_i_glide_ligand_efficiency_sa>  (21) 
-0.380634

>  <r_i_glide_ligand_efficiency_ln>  (21) 
-0.730503

>  <r_i_glide_gscore>  (21) 
-2.98852

>  <r_i_glide_lipo>  (21) 
-0.105786

>  <r_i_glide_hbond>  (21) 
-0.146646

>  <r_i_glide_metal>  (21) 
-0

>  <r_i_glide_rewards>  (21) 
-1.30091

>  <r_i_glide_evdw>  (21) 
-16.5763

>  <r_i_glide_ecoul>  (21) 
-5.01453

>  <r_i_glide_erotb>  (21) 
0.192316

>  <r_i_glide_esite>  (21) 
-0.046498

>  <r_i_glide_emodel>  (21) 
-28.6795

>  <r_i_glide_energy>  (21) 
-21.5908

>  <r_i_glide_einternal>  (21) 
0.202408

>  <r_i_glide_intrahb_reward>  (21) 
-0

>  <i_i_glide_confnum>  (21) 
1

>  <i_i_glide_posenum>  (21) 
1

>  <r_i_glide_eff_state_penalty>  (21) 
0

>  <ligand_id>  (21) 
5

>  <original_smiles>  (21) 
CC1CCC2C(CN(C)C)C(=O)OC3OC4(C)CCC1C32O4

>  <smiles>  (21) 
[H]C([H])([H])C12OC3([H])OC(=O)C([H])(C([H])([H])[N+]([H])(C([H])([H])[H])C([H])([H])[H])C4([H])C([H])([H])C([H])([H])C([H])(C([H])([H])[H])C([H])(C([H])([H])C1([H])[H])C34O2

$$$$
5:1:0
     RDKit          3D

 49 52  0  0  1  0  0  0  0  0999 V2000
    8.3851   -3.4846   -0.2986 C   0  0  0  0  0  0  0  0  0  0  0  0
    7.3064   -3.7920    0.7555 C   0  0  2  0  0  0  0  0  0  0  0  0
    7.2294   -5.3143    0.9724 C   0  0  0  0  0  0  0  0  0  0  0  0
    5.9160   -5.7644    1.6018 C   0  0  0  0  0  0  0  0  0  0  0  0
    4.6995   -5.4084    0.7212 C   0  0  1  0  0  0  0  0  0  0  0  0
    3.3689   -5.5160    1.4840 C   0  0  1  0  0  0  0  0  0  0  0  0
    3.2345   -4.6534    2.7816 C   0  0  0  0  0  0  0  0  0  0  0  0
    1.9353   -4.7504    3.4566 N   0  0  0  0  0  0  0  0  0  0  0  0
    1.9077   -3.8461    4.6026 C   0  0  0  0  0  0  0  0  0  0  0  0
    1.6903   -6.0995    3.9589 C   0  0  0  0  0  0  0  0  0  0  0  0
    2.2385   -5.2889    0.4893 C   0  0  0  0  0  0  0  0  0  0  0  0
    1.2554   -6.0332    0.4868 O   0  0  0  0  0  0  0  0  0  0  0  0
    2.3568   -4.2262   -0.3512 O   0  0  0  0  0  0  0  0  0  0  0  0
    3.4759   -3.3722   -0.3052 C   0  0  2  0  0  0  0  0  0  0  0  0
    3.6329   -2.7729   -1.5530 O   0  0  0  0  0  0  0  0  0  0  0  0
    4.8847   -3.1263   -2.0393 C   0  0  1  0  0  0  0  0  0  0  0  0
    4.7932   -3.4440   -3.5336 C   0  0  0  0  0  0  0  0  0  0  0  0
    5.8599   -1.9716   -1.7294 C   0  0  0  0  0  0  0  0  0  0  0  0
    5.9372   -1.7676   -0.1989 C   0  0  0  0  0  0  0  0  0  0  0  0
    5.9039   -3.1133    0.5700 C   0  0  1  0  0  0  0  0  0  0  0  0
    4.8480   -4.0740   -0.0607 C   0  0  1  0  0  0  0  0  0  0  0  0
    5.3190   -4.2648   -1.3748 O   0  0  0  0  0  0  0  0  0  0  0  0
    8.1048   -3.8516   -1.2910 H   0  0  0  0  0  0  0  0  0  0  0  0
    9.3254   -3.9710   -0.0290 H   0  0  0  0  0  0  0  0  0  0  0  0
    8.6049   -2.4195   -0.3805 H   0  0  0  0  0  0  0  0  0  0  0  0
    7.6973   -3.3926    1.6787 H   0  0  0  0  0  0  0  0  0  0  0  0
    7.3503   -5.8600    0.0399 H   0  0  0  0  0  0  0  0  0  0  0  0
    8.0611   -5.6430    1.5980 H   0  0  0  0  0  0  0  0  0  0  0  0
    5.9433   -6.8426    1.7550 H   0  0  0  0  0  0  0  0  0  0  0  0
    5.8538   -5.3300    2.5976 H   0  0  0  0  0  0  0  0  0  0  0  0
    4.6613   -6.1867   -0.0457 H   0  0  0  0  0  0  0  0  0  0  0  0
    3.2800   -6.5634    1.7721 H   0  0  0  0  0  0  0  0  0  0  0  0
    3.9885   -4.9546    3.5066 H   0  0  0  0  0  0  0  0  0  0  0  0
    3.4293   -3.6077    2.5387 H   0  0  0  0  0  0  0  0  0  0  0  0
    0.9402   -3.8979    5.1033 H   0  0  0  0  0  0  0  0  0  0  0  0
    2.0617   -2.8109    4.2959 H   0  0  0  0  0  0  0  0  0  0  0  0
    2.6720   -4.0988    5.3410 H   0  0  0  0  0  0  0  0  0  0  0  0
    0.7335   -6.1419    4.4805 H   0  0  0  0  0  0  0  0  0  0  0  0
    2.4693   -6.4123    4.6569 H   0  0  0  0  0  0  0  0  0  0  0  0
    1.6442   -6.8261    3.1483 H   0  0  0  0  0  0  0  0  0  0  0  0
    3.2683   -2.6032    0.4386 H   0  0  0  0  0  0  0  0  0  0  0  0
    4.0888   -4.2558   -3.6964 H   0  0  0  0  0  0  0  0  0  0  0  0
    5.7728   -3.7494   -3.9057 H   0  0  0  0  0  0  0  0  0  0  0  0
    4.4509   -2.5640   -4.0793 H   0  0  0  0  0  0  0  0  0  0  0  0
    6.8318   -2.2167   -2.1610 H   0  0  0  0  0  0  0  0  0  0  0  0
    5.4858   -1.0661   -2.2147 H   0  0  0  0  0  0  0  0  0  0  0  0
    6.8026   -1.1751    0.0838 H   0  0  0  0  0  0  0  0  0  0  0  0
    5.0758   -1.1714    0.1107 H   0  0  0  0  0  0  0  0  0  0  0  0
    5.5492   -2.8868    1.5772 H   0  0  0  0  0  0  0  0  0  0  0  0
  1  2  1  0
  1 23  1  0
  1 24  1  0
  1 25  1  0
  2 20  1  0
  2  3  1  0
  2 26  1  1
  3  4  1  0
  3 27  1  0
  3 28  1  0
  4  5  1  0
  4 29  1  0
  4 30  1  0
  5 21  1  0
  5  6  1  0
  5 31  1  6
  6  7  1  0
  6 11  1  0
  6 32  1  1
  7  8  1  0
  7 33  1  0
  7 34  1  0
  8  9  1  0
  8 10  1  0
  9 35  1  0
  9 36  1  0
  9 37  1  0
 10 38  1  0
 10 39  1  0
 10 40  1  0
 11 12  2  0
 11 13  1  0
 13 14  1  0
 14 21  1  0
 14 15  1  0
 14 41  1  1
 15 16  1  0
 16 22  1  0
 16 17  1  6
 16 18  1  0
 17 42  1  0
 17 43  1  0
 17 44  1  0
 18 19  1  0
 18 45  1  0
 18 46  1  0
 19 20  1  0
 19 47  1  0
 19 48  1  0
 20 21  1  0
 20 49  1  1
 21 22  1  6
M  END
>  <i_m_ct_stereo_status>  (22) 
1

>  <s_m_source_file>  (22) 
/var/tmp/pbs.5076255.sched01/tmps52fw2z9/0bkrl5082.sdf

>  <i_m_source_file_index>  (22) 
8

>  <i_lp_mmshare_version>  (22) 
48012

>  <i_f3d_flags>  (22) 
0

>  <s_epik_input>  (22) 
W0NAXTEyM1tDQEhdNFtDSDJdW0NIMl1bQ0BASF0oW0NIM10pW0NASF0yW0NIMl1bQ0gyXVtDQF0oTzMpKFtDSDNdKU9bQ0BIXTFPQyg9TylbQ0BASF00W0NIMl1OKFtDSDNdKVtDSDNd

>  <s_epik_cmdline>  (22) 
J2VwaWtfcHl0aG9uJywgJy1waHQnLCAnMi4wJywgJy1waCcsICc3LjAnLCAnLXRuJywgJzgnLCAnLW1hJywgJzIwMCcsICctaW1hZScsICc8aW5maWxlLm1hZT4nLCAnLW9tYWUnLCAnPG91dGZpbGUubWFlPic=

>  <r_epik_Ionization_Penalty>  (22) 
2.35204

>  <r_epik_Ionization_Penalty_Charging>  (22) 
0

>  <r_epik_Ionization_Penalty_Neutral>  (22) 
2.35204

>  <r_epik_State_Penalty>  (22) 
2.50645

>  <r_epik_Charging_Adjusted_Penalty>  (22) 
2.50645

>  <i_epik_Tot_Q>  (22) 
0

>  <i_epik_Tot_abs_Q>  (22) 
0

>  <s_epik_Chemistry_Notes>  (22) 
This compound has an ester and may undergo hydrolysis at high or low pH. This compound contains an acetal/aminal-like group ( X-CH(R)-Y where X, Y are N, S, or O) that may be acid/base labile, releasing an aldehyde.

>  <s_lp_Force_Field>  (22) 
OPLS3e

>  <r_lp_Energy>  (22) 
45.1549

>  <b_lp_Chiralities_Consistent>  (22) 
1

>  <s_lp_Variant>  (22) 
5:0-2

>  <s_i_glide_gridfile>  (22) 
pfpi4k_grid

>  <i_i_glide_lignum>  (22) 
8

>  <i_i_glide_rotatable_bonds>  (22) 
2

>  <r_i_docking_score>  (22) 
-3.43963

>  <r_i_glide_ligand_efficiency>  (22) 
-0.156347

>  <r_i_glide_ligand_efficiency_sa>  (22) 
-0.438089

>  <r_i_glide_ligand_efficiency_ln>  (22) 
-0.84077

>  <r_i_glide_gscore>  (22) 
-3.43963

>  <r_i_glide_lipo>  (22) 
-0.826951

>  <r_i_glide_hbond>  (22) 
-0.16

>  <r_i_glide_metal>  (22) 
-0

>  <r_i_glide_rewards>  (22) 
-1.45646

>  <r_i_glide_evdw>  (22) 
-20.3914

>  <r_i_glide_ecoul>  (22) 
-0.737502

>  <r_i_glide_erotb>  (22) 
0.193418

>  <r_i_glide_esite>  (22) 
-0.0594376

>  <r_i_glide_emodel>  (22) 
-25.6668

>  <r_i_glide_energy>  (22) 
-21.1289

>  <r_i_glide_einternal>  (22) 
0.174142

>  <r_i_glide_intrahb_reward>  (22) 
-0

>  <i_i_glide_confnum>  (22) 
1

>  <i_i_glide_posenum>  (22) 
17

>  <r_i_glide_eff_state_penalty>  (22) 
0

>  <ligand_id>  (22) 
5

>  <original_smiles>  (22) 
CC1CCC2C(CN(C)C)C(=O)OC3OC4(C)CCC1C32O4

>  <smiles>  (22) 
[H]C([H])([H])N(C([H])([H])[H])C([H])([H])C1([H])C(=O)OC2([H])OC3(C([H])([H])[H])OC24C1([H])C([H])([H])C([H])([H])C([H])(C([H])([H])[H])C4([H])C([H])([H])C3([H])[H]

$$$$
5:1:1
     RDKit          3D

 49 52  0  0  1  0  0  0  0  0999 V2000
    7.7738   -2.2829   -0.1497 C   0  0  0  0  0  0  0  0  0  0  0  0
    6.7655   -2.7870    0.8926 C   0  0  2  0  0  0  0  0  0  0  0  0
    7.0608   -4.2772    1.1532 C   0  0  0  0  0  0  0  0  0  0  0  0
    5.8846   -5.0020    1.8010 C   0  0  0  0  0  0  0  0  0  0  0  0
    4.6462   -5.0026    0.8866 C   0  0  1  0  0  0  0  0  0  0  0  0
    3.3519   -5.3886    1.6228 C   0  0  1  0  0  0  0  0  0  0  0  0
    2.9731   -4.5322    2.8753 C   0  0  0  0  0  0  0  0  0  0  0  0
    1.7087   -4.9043    3.5125 N   0  0  0  0  0  0  0  0  0  0  0  0
    1.4193   -3.9765    4.6015 C   0  0  0  0  0  0  0  0  0  0  0  0
    1.7693   -6.2456    4.0887 C   0  0  0  0  0  0  0  0  0  0  0  0
    2.2303   -5.4682    0.5955 C   0  0  0  0  0  0  0  0  0  0  0  0
    1.4057   -6.3742    0.6571 O   0  0  0  0  0  0  0  0  0  0  0  0
    2.1602   -4.4814   -0.3255 O   0  0  0  0  0  0  0  0  0  0  0  0
    3.0151   -3.3764   -0.2801 C   0  0  2  0  0  0  0  0  0  0  0  0
    3.0473   -2.8132   -1.5462 O   0  0  0  0  0  0  0  0  0  0  0  0
    4.3636   -2.8816   -1.9903 C   0  0  1  0  0  0  0  0  0  0  0  0
    4.3893   -3.2754   -3.4666 C   0  0  0  0  0  0  0  0  0  0  0  0
    5.0075   -1.5002   -1.7189 C   0  0  0  0  0  0  0  0  0  0  0  0
    4.9784   -1.2105   -0.2048 C   0  0  0  0  0  0  0  0  0  0  0  0
    5.2487   -2.4920    0.6314 C   0  0  1  0  0  0  0  0  0  0  0  0
    4.5003   -3.7170    0.0228 C   0  0  1  0  0  0  0  0  0  0  0  0
    5.0573   -3.8479   -1.2640 O   0  0  0  0  0  0  0  0  0  0  0  0
    7.6194   -2.7545   -1.1256 H   0  0  0  0  0  0  0  0  0  0  0  0
    8.8009   -2.5089    0.1553 H   0  0  0  0  0  0  0  0  0  0  0  0
    7.7118   -1.2036   -0.2498 H   0  0  0  0  0  0  0  0  0  0  0  0
    7.0045   -2.2372    1.8026 H   0  0  0  0  0  0  0  0  0  0  0  0
    7.3220   -4.7870    0.2201 H   0  0  0  0  0  0  0  0  0  0  0  0
    7.9367   -4.3742    1.7960 H   0  0  0  0  0  0  0  0  0  0  0  0
    6.1722   -6.0306    2.0117 H   0  0  0  0  0  0  0  0  0  0  0  0
    5.6903   -4.5461    2.7699 H   0  0  0  0  0  0  0  0  0  0  0  0
    4.8213   -5.8025    0.1612 H   0  0  0  0  0  0  0  0  0  0  0  0
    3.5111   -6.4148    1.9603 H   0  0  0  0  0  0  0  0  0  0  0  0
    3.7487   -4.6127    3.6354 H   0  0  0  0  0  0  0  0  0  0  0  0
    2.9247   -3.4803    2.5793 H   0  0  0  0  0  0  0  0  0  0  0  0
    0.4715   -4.2322    5.0773 H   0  0  0  0  0  0  0  0  0  0  0  0
    1.3367   -2.9519    4.2340 H   0  0  0  0  0  0  0  0  0  0  0  0
    2.1905   -4.0005    5.3767 H   0  0  0  0  0  0  0  0  0  0  0  0
    0.8312   -6.4910    4.5833 H   0  0  0  0  0  0  0  0  0  0  0  0
    2.5686   -6.3245    4.8263 H   0  0  0  0  0  0  0  0  0  0  0  0
    1.9320   -7.0010    3.3218 H   0  0  0  0  0  0  0  0  0  0  0  0
    2.5931   -2.6570    0.4218 H   0  0  0  0  0  0  0  0  0  0  0  0
    3.9178   -4.2467   -3.6003 H   0  0  0  0  0  0  0  0  0  0  0  0
    5.4228   -3.3449   -3.8096 H   0  0  0  0  0  0  0  0  0  0  0  0
    3.8505   -2.5352   -4.0622 H   0  0  0  0  0  0  0  0  0  0  0  0
    6.0236   -1.5024   -2.1180 H   0  0  0  0  0  0  0  0  0  0  0  0
    4.4406   -0.7345   -2.2573 H   0  0  0  0  0  0  0  0  0  0  0  0
    5.6627   -0.4074    0.0560 H   0  0  0  0  0  0  0  0  0  0  0  0
    3.9883   -0.8337    0.0593 H   0  0  0  0  0  0  0  0  0  0  0  0
    4.8172   -2.3114    1.6158 H   0  0  0  0  0  0  0  0  0  0  0  0
  1  2  1  0
  1 23  1  0
  1 24  1  0
  1 25  1  0
  2 20  1  0
  2  3  1  0
  2 26  1  1
  3  4  1  0
  3 27  1  0
  3 28  1  0
  4  5  1  0
  4 29  1  0
  4 30  1  0
  5 21  1  0
  5  6  1  0
  5 31  1  6
  6  7  1  0
  6 11  1  0
  6 32  1  1
  7  8  1  0
  7 33  1  0
  7 34  1  0
  8  9  1  0
  8 10  1  0
  9 35  1  0
  9 36  1  0
  9 37  1  0
 10 38  1  0
 10 39  1  0
 10 40  1  0
 11 12  2  0
 11 13  1  0
 13 14  1  0
 14 21  1  0
 14 15  1  0
 14 41  1  1
 15 16  1  0
 16 22  1  0
 16 17  1  6
 16 18  1  0
 17 42  1  0
 17 43  1  0
 17 44  1  0
 18 19  1  0
 18 45  1  0
 18 46  1  0
 19 20  1  0
 19 47  1  0
 19 48  1  0
 20 21  1  0
 20 49  1  1
 21 22  1  6
M  END
>  <i_m_ct_stereo_status>  (23) 
1

>  <s_m_source_file>  (23) 
/var/tmp/pbs.5076255.sched01/tmps52fw2z9/0bkrl5082.sdf

>  <i_m_source_file_index>  (23) 
8

>  <i_lp_mmshare_version>  (23) 
48012

>  <i_f3d_flags>  (23) 
0

>  <s_epik_input>  (23) 
W0NAXTEyM1tDQEhdNFtDSDJdW0NIMl1bQ0BASF0oW0NIM10pW0NASF0yW0NIMl1bQ0gyXVtDQF0oTzMpKFtDSDNdKU9bQ0BIXTFPQyg9TylbQ0BASF00W0NIMl1OKFtDSDNdKVtDSDNd

>  <s_epik_cmdline>  (23) 
J2VwaWtfcHl0aG9uJywgJy1waHQnLCAnMi4wJywgJy1waCcsICc3LjAnLCAnLXRuJywgJzgnLCAnLW1hJywgJzIwMCcsICctaW1hZScsICc8aW5maWxlLm1hZT4nLCAnLW9tYWUnLCAnPG91dGZpbGUubWFlPic=

>  <r_epik_Ionization_Penalty>  (23) 
2.35204

>  <r_epik_Ionization_Penalty_Charging>  (23) 
0

>  <r_epik_Ionization_Penalty_Neutral>  (23) 
2.35204

>  <r_epik_State_Penalty>  (23) 
2.50645

>  <r_epik_Charging_Adjusted_Penalty>  (23) 
2.50645

>  <i_epik_Tot_Q>  (23) 
0

>  <i_epik_Tot_abs_Q>  (23) 
0

>  <s_epik_Chemistry_Notes>  (23) 
This compound has an ester and may undergo hydrolysis at high or low pH. This compound contains an acetal/aminal-like group ( X-CH(R)-Y where X, Y are N, S, or O) that may be acid/base labile, releasing an aldehyde.

>  <s_lp_Force_Field>  (23) 
OPLS3e

>  <r_lp_Energy>  (23) 
45.1549

>  <b_lp_Chiralities_Consistent>  (23) 
1

>  <s_lp_Variant>  (23) 
5:0-2

>  <s_i_glide_gridfile>  (23) 
pfpi4k_grid

>  <i_i_glide_lignum>  (23) 
8

>  <i_i_glide_rotatable_bonds>  (23) 
2

>  <r_i_docking_score>  (23) 
-2.81353

>  <r_i_glide_ligand_efficiency>  (23) 
-0.127888

>  <r_i_glide_ligand_efficiency_sa>  (23) 
-0.358347

>  <r_i_glide_ligand_efficiency_ln>  (23) 
-0.68773

>  <r_i_glide_gscore>  (23) 
-2.81353

>  <r_i_glide_lipo>  (23) 
-0.562758

>  <r_i_glide_hbond>  (23) 
-0.0636118

>  <r_i_glide_metal>  (23) 
-0

>  <r_i_glide_rewards>  (23) 
-1.31795

>  <r_i_glide_evdw>  (23) 
-20.3118

>  <r_i_glide_ecoul>  (23) 
0.0870139

>  <r_i_glide_erotb>  (23) 
0.193418

>  <r_i_glide_esite>  (23) 
-0.0600925

>  <r_i_glide_emodel>  (23) 
-23.8469

>  <r_i_glide_energy>  (23) 
-20.2247

>  <r_i_glide_einternal>  (23) 
0.187206

>  <r_i_glide_intrahb_reward>  (23) 
-0

>  <i_i_glide_confnum>  (23) 
3

>  <i_i_glide_posenum>  (23) 
12

>  <r_i_glide_eff_state_penalty>  (23) 
0

>  <ligand_id>  (23) 
5

>  <original_smiles>  (23) 
CC1CCC2C(CN(C)C)C(=O)OC3OC4(C)CCC1C32O4

>  <smiles>  (23) 
[H]C([H])([H])N(C([H])([H])[H])C([H])([H])C1([H])C(=O)OC2([H])OC3(C([H])([H])[H])OC24C1([H])C([H])([H])C([H])([H])C([H])(C([H])([H])[H])C4([H])C([H])([H])C3([H])[H]

$$$$
5:1:2
     RDKit          3D

 49 52  0  0  1  0  0  0  0  0999 V2000
    4.9215   -2.3343    4.7822 C   0  0  0  0  0  0  0  0  0  0  0  0
    5.1019   -2.1083    3.2785 C   0  0  2  0  0  0  0  0  0  0  0  0
    4.2803   -0.8998    2.8259 C   0  0  0  0  0  0  0  0  0  0  0  0
    4.0936   -0.8656    1.3126 C   0  0  0  0  0  0  0  0  0  0  0  0
    3.3106   -2.1011    0.8315 C   0  0  1  0  0  0  0  0  0  0  0  0
    3.3493   -2.2882   -0.6855 C   0  0  1  0  0  0  0  0  0  0  0  0
    4.7564   -2.4335   -1.3370 C   0  0  0  0  0  0  0  0  0  0  0  0
    4.8632   -2.5104   -2.8108 N   0  0  0  0  0  0  0  0  0  0  0  0
    4.1680   -1.4111   -3.4814 C   0  0  0  0  0  0  0  0  0  0  0  0
    4.4058   -3.7897   -3.3580 C   0  0  0  0  0  0  0  0  0  0  0  0
    2.4370   -3.4551   -1.0156 C   0  0  0  0  0  0  0  0  0  0  0  0
    1.5544   -3.3949   -1.9008 O   0  0  0  0  0  0  0  0  0  0  0  0
    2.5442   -4.6091   -0.3196 O   0  0  0  0  0  0  0  0  0  0  0  0
    3.4956   -4.6807    0.7431 C   0  0  2  0  0  0  0  0  0  0  0  0
    3.0430   -5.6417    1.6321 O   0  0  0  0  0  0  0  0  0  0  0  0
    2.8359   -5.0283    2.8613 C   0  0  1  0  0  0  0  0  0  0  0  0
    1.5363   -5.5244    3.4825 C   0  0  0  0  0  0  0  0  0  0  0  0
    4.0763   -5.3016    3.7211 C   0  0  0  0  0  0  0  0  0  0  0  0
    5.3204   -4.7105    3.0120 C   0  0  0  0  0  0  0  0  0  0  0  0
    5.0045   -3.3488    2.3385 C   0  0  1  0  0  0  0  0  0  0  0  0
    3.6361   -3.4025    1.6157 C   0  0  1  0  0  0  0  0  0  0  0  0
    2.7062   -3.6507    2.6571 O   0  0  0  0  0  0  0  0  0  0  0  0
    3.8978   -2.6427    4.9973 H   0  0  0  0  0  0  0  0  0  0  0  0
    5.1076   -1.4078    5.3273 H   0  0  0  0  0  0  0  0  0  0  0  0
    5.6098   -3.0776    5.1868 H   0  0  0  0  0  0  0  0  0  0  0  0
    6.0856   -1.7327    3.1402 H   0  0  0  0  0  0  0  0  0  0  0  0
    3.3004   -0.8903    3.3345 H   0  0  0  0  0  0  0  0  0  0  0  0
    4.7919    0.0109    3.1319 H   0  0  0  0  0  0  0  0  0  0  0  0
    3.5534    0.0338    1.0554 H   0  0  0  0  0  0  0  0  0  0  0  0
    5.0835   -0.7550    0.8353 H   0  0  0  0  0  0  0  0  0  0  0  0
    2.2784   -1.8574    1.0741 H   0  0  0  0  0  0  0  0  0  0  0  0
    2.8943   -1.4031   -1.0878 H   0  0  0  0  0  0  0  0  0  0  0  0
    5.3346   -1.5440   -1.1221 H   0  0  0  0  0  0  0  0  0  0  0  0
    5.3207   -3.2604   -0.9017 H   0  0  0  0  0  0  0  0  0  0  0  0
    4.2995   -1.4967   -4.5559 H   0  0  0  0  0  0  0  0  0  0  0  0
    4.5881   -0.4688   -3.1612 H   0  0  0  0  0  0  0  0  0  0  0  0
    3.1036   -1.4143   -3.2768 H   0  0  0  0  0  0  0  0  0  0  0  0
    4.6735   -3.8712   -4.4452 H   0  0  0  0  0  0  0  0  0  0  0  0
    3.3057   -3.8988   -3.2271 H   0  0  0  0  0  0  0  0  0  0  0  0
    4.9458   -4.6371   -2.8730 H   0  0  0  0  0  0  0  0  0  0  0  0
    4.4391   -4.9891    0.2973 H   0  0  0  0  0  0  0  0  0  0  0  0
    0.6919   -5.2933    2.8286 H   0  0  0  0  0  0  0  0  0  0  0  0
    1.3819   -5.0266    4.4350 H   0  0  0  0  0  0  0  0  0  0  0  0
    1.5904   -6.5999    3.6359 H   0  0  0  0  0  0  0  0  0  0  0  0
    3.9339   -4.8762    4.7096 H   0  0  0  0  0  0  0  0  0  0  0  0
    4.1901   -6.3808    3.8263 H   0  0  0  0  0  0  0  0  0  0  0  0
    6.1540   -4.6459    3.7039 H   0  0  0  0  0  0  0  0  0  0  0  0
    5.6543   -5.4164    2.2407 H   0  0  0  0  0  0  0  0  0  0  0  0
    5.7595   -3.2118    1.5678 H   0  0  0  0  0  0  0  0  0  0  0  0
  1  2  1  0
  1 23  1  0
  1 24  1  0
  1 25  1  0
  2 20  1  0
  2  3  1  0
  2 26  1  1
  3  4  1  0
  3 27  1  0
  3 28  1  0
  4  5  1  0
  4 29  1  0
  4 30  1  0
  5 21  1  0
  5  6  1  0
  5 31  1  1
  6  7  1  0
  6 11  1  0
  6 32  1  6
  7  8  1  0
  7 33  1  0
  7 34  1  0
  8  9  1  0
  8 10  1  0
  9 35  1  0
  9 36  1  0
  9 37  1  0
 10 38  1  0
 10 39  1  0
 10 40  1  0
 11 12  2  0
 11 13  1  0
 13 14  1  0
 14 21  1  0
 14 15  1  0
 14 41  1  6
 15 16  1  0
 16 22  1  0
 16 17  1  1
 16 18  1  0
 17 42  1  0
 17 43  1  0
 17 44  1  0
 18 19  1  0
 18 45  1  0
 18 46  1  0
 19 20  1  0
 19 47  1  0
 19 48  1  0
 20 21  1  0
 20 49  1  6
 21 22  1  1
M  END
>  <i_m_ct_stereo_status>  (24) 
1

>  <s_m_source_file>  (24) 
/var/tmp/pbs.5076255.sched01/tmps52fw2z9/0bkrl5082.sdf

>  <i_m_source_file_index>  (24) 
8

>  <i_lp_mmshare_version>  (24) 
48012

>  <i_f3d_flags>  (24) 
0

>  <s_epik_input>  (24) 
W0NAXTEyM1tDQEhdNFtDSDJdW0NIMl1bQ0BASF0oW0NIM10pW0NASF0yW0NIMl1bQ0gyXVtDQF0oTzMpKFtDSDNdKU9bQ0BIXTFPQyg9TylbQ0BASF00W0NIMl1OKFtDSDNdKVtDSDNd

>  <s_epik_cmdline>  (24) 
J2VwaWtfcHl0aG9uJywgJy1waHQnLCAnMi4wJywgJy1waCcsICc3LjAnLCAnLXRuJywgJzgnLCAnLW1hJywgJzIwMCcsICctaW1hZScsICc8aW5maWxlLm1hZT4nLCAnLW9tYWUnLCAnPG91dGZpbGUubWFlPic=

>  <r_epik_Ionization_Penalty>  (24) 
2.35204

>  <r_epik_Ionization_Penalty_Charging>  (24) 
0

>  <r_epik_Ionization_Penalty_Neutral>  (24) 
2.35204

>  <r_epik_State_Penalty>  (24) 
2.50645

>  <r_epik_Charging_Adjusted_Penalty>  (24) 
2.50645

>  <i_epik_Tot_Q>  (24) 
0

>  <i_epik_Tot_abs_Q>  (24) 
0

>  <s_epik_Chemistry_Notes>  (24) 
This compound has an ester and may undergo hydrolysis at high or low pH. This compound contains an acetal/aminal-like group ( X-CH(R)-Y where X, Y are N, S, or O) that may be acid/base labile, releasing an aldehyde.

>  <s_lp_Force_Field>  (24) 
OPLS3e

>  <r_lp_Energy>  (24) 
45.1549

>  <b_lp_Chiralities_Consistent>  (24) 
1

>  <s_lp_Variant>  (24) 
5:0-2

>  <s_i_glide_gridfile>  (24) 
pfpi4k_grid

>  <i_i_glide_lignum>  (24) 
8

>  <i_i_glide_rotatable_bonds>  (24) 
2

>  <r_i_docking_score>  (24) 
-2.38794

>  <r_i_glide_ligand_efficiency>  (24) 
-0.108543

>  <r_i_glide_ligand_efficiency_sa>  (24) 
-0.304141

>  <r_i_glide_ligand_efficiency_ln>  (24) 
-0.5837

>  <r_i_glide_gscore>  (24) 
-2.38794

>  <r_i_glide_lipo>  (24) 
-0.411327

>  <r_i_glide_hbond>  (24) 
0

>  <r_i_glide_metal>  (24) 
-0

>  <r_i_glide_rewards>  (24) 
-1.29954

>  <r_i_glide_evdw>  (24) 
-18.3115

>  <r_i_glide_ecoul>  (24) 
0.408545

>  <r_i_glide_erotb>  (24) 
0.193418

>  <r_i_glide_esite>  (24) 
-0.016195

>  <r_i_glide_emodel>  (24) 
-19.2814

>  <r_i_glide_energy>  (24) 
-17.903

>  <r_i_glide_einternal>  (24) 
0.863624

>  <r_i_glide_intrahb_reward>  (24) 
-0

>  <i_i_glide_confnum>  (24) 
1

>  <i_i_glide_posenum>  (24) 
10

>  <r_i_glide_eff_state_penalty>  (24) 
0

>  <ligand_id>  (24) 
5

>  <original_smiles>  (24) 
CC1CCC2C(CN(C)C)C(=O)OC3OC4(C)CCC1C32O4

>  <smiles>  (24) 
[H]C([H])([H])N(C([H])([H])[H])C([H])([H])C1([H])C(=O)OC2([H])OC3(C([H])([H])[H])OC24C1([H])C([H])([H])C([H])([H])C([H])(C([H])([H])[H])C4([H])C([H])([H])C3([H])[H]

$$$$
6:0:0
     RDKit          3D

 68 73  0  0  1  0  0  0  0  0999 V2000
   -0.8415   -7.1938    3.4274 C   0  0  0  0  0  0  0  0  0  0  0  0
    0.4297   -6.3568    3.6688 C   0  0  2  0  0  0  0  0  0  0  0  0
    1.6813   -7.1134    3.1923 C   0  0  0  0  0  0  0  0  0  0  0  0
    2.9671   -6.2944    3.4002 C   0  0  0  0  0  0  0  0  0  0  0  0
    3.1466   -5.8317    4.8707 C   0  0  1  0  0  0  0  0  0  0  0  0
    4.4496   -5.0189    5.1504 C   0  0  1  0  0  0  0  0  0  0  0  0
    5.7350   -5.7618    4.7215 C   0  0  0  0  0  0  0  0  0  0  0  0
    4.3931   -3.5520    4.6321 C   0  0  1  0  0  0  0  0  0  0  0  0
    4.5275   -3.5953    3.2103 O   0  0  0  0  0  0  0  0  0  0  0  0
    5.0831   -2.5250    2.5248 C   0  0  0  0  0  0  0  0  0  0  0  0
    5.2622   -1.3067    3.0563 N   0  0  0  0  0  0  0  0  0  0  0  0
    5.6205   -0.4585    2.0080 O   0  0  0  0  0  0  0  0  0  0  0  0
    5.7941   -1.1996    0.8581 N   0  0  0  0  0  0  0  0  0  0  0  0
    6.1530   -0.7625   -0.2954 O   0  0  0  0  0  0  0  0  0  0  0  0
    5.5023   -2.4550    1.1812 C   0  0  0  0  0  0  0  0  0  0  0  0
    5.7016   -3.8255    0.0411 S   0  0  0  0  0  0  0  0  0  0  0  0
    7.1017   -3.7444   -0.4004 O   0  0  0  0  0  0  0  0  0  0  0  0
    5.1927   -5.0103    0.7521 O   0  0  0  0  0  0  0  0  0  0  0  0
    4.5925   -3.4181   -1.2902 C   0  0  0  0  0  0  0  0  0  0  0  0
    3.2012   -3.4426   -1.0548 C   0  0  0  0  0  0  0  0  0  0  0  0
    2.3180   -3.0991   -2.0971 C   0  0  0  0  0  0  0  0  0  0  0  0
    2.8205   -2.7322   -3.3588 C   0  0  0  0  0  0  0  0  0  0  0  0
    4.2107   -2.6960   -3.5770 C   0  0  0  0  0  0  0  0  0  0  0  0
    5.1068   -3.0393   -2.5458 C   0  0  0  0  0  0  0  0  0  0  0  0
    3.1015   -2.8410    5.1751 C   0  0  1  0  0  0  0  0  0  0  0  0
    2.9940   -1.3377    4.8486 C   0  0  0  0  0  0  0  0  0  0  0  0
    1.8403   -3.6523    4.7573 C   0  0  2  0  0  0  0  0  0  0  0  0
    0.4845   -2.9217    4.9172 C   0  0  0  0  0  0  0  0  0  0  0  0
   -0.1888   -3.0345    6.2897 C   0  0  0  0  0  0  0  0  0  0  0  0
   -0.3477   -4.4963    6.7721 C   0  0  2  0  0  0  0  0  0  0  0  0
   -1.5778   -4.6347    7.6893 C   0  0  0  0  0  0  0  0  0  0  0  0
    0.7398   -4.9519    7.5628 O   0  0  0  0  0  0  0  0  0  0  0  0
    2.0532   -4.8919    6.7916 O   0  0  0  0  0  0  0  0  0  0  0  0
    1.8770   -5.0825    5.3836 C   0  0  2  0  0  0  0  0  0  0  0  0
    0.6122   -5.9666    5.1552 C   0  0  1  0  0  0  0  0  0  0  0  0
   -0.5731   -5.3411    5.6549 O   0  0  0  0  0  0  0  0  0  0  0  0
   -0.8304   -8.1119    4.0115 H   0  0  0  0  0  0  0  0  0  0  0  0
   -0.9384   -7.4709    2.3755 H   0  0  0  0  0  0  0  0  0  0  0  0
   -1.7428   -6.6480    3.7030 H   0  0  0  0  0  0  0  0  0  0  0  0
    0.3425   -5.4508    3.0727 H   0  0  0  0  0  0  0  0  0  0  0  0
    1.7639   -8.0564    3.7335 H   0  0  0  0  0  0  0  0  0  0  0  0
    1.5894   -7.3747    2.1364 H   0  0  0  0  0  0  0  0  0  0  0  0
    3.8158   -6.9069    3.0973 H   0  0  0  0  0  0  0  0  0  0  0  0
    2.9523   -5.4486    2.7145 H   0  0  0  0  0  0  0  0  0  0  0  0
    3.2176   -6.7492    5.4585 H   0  0  0  0  0  0  0  0  0  0  0  0
    4.5213   -4.9616    6.2377 H   0  0  0  0  0  0  0  0  0  0  0  0
    5.8199   -5.8459    3.6394 H   0  0  0  0  0  0  0  0  0  0  0  0
    5.7726   -6.7732    5.1323 H   0  0  0  0  0  0  0  0  0  0  0  0
    6.6224   -5.2398    5.0728 H   0  0  0  0  0  0  0  0  0  0  0  0
    5.2737   -3.0521    5.0350 H   0  0  0  0  0  0  0  0  0  0  0  0
    2.8200   -3.7208   -0.0893 H   0  0  0  0  0  0  0  0  0  0  0  0
    1.2519   -3.1209   -1.9344 H   0  0  0  0  0  0  0  0  0  0  0  0
    2.1472   -2.4809   -4.1596 H   0  0  0  0  0  0  0  0  0  0  0  0
    4.5708   -2.4037   -4.5442 H   0  0  0  0  0  0  0  0  0  0  0  0
    6.1720   -3.0135   -2.7013 H   0  0  0  0  0  0  0  0  0  0  0  0
    3.1707   -2.8554    6.2664 H   0  0  0  0  0  0  0  0  0  0  0  0
    2.7788   -1.1954    3.7808 H   0  0  0  0  0  0  0  0  0  0  0  0
    3.9350   -0.8358    5.0902 H   0  0  0  0  0  0  0  0  0  0  0  0
    2.2360   -0.8106    5.4127 H   0  0  0  0  0  0  0  0  0  0  0  0
    1.9192   -3.7579    3.6799 H   0  0  0  0  0  0  0  0  0  0  0  0
    0.5427   -1.8744    4.6246 H   0  0  0  0  0  0  0  0  0  0  0  0
   -0.1927   -3.3357    4.1723 H   0  0  0  0  0  0  0  0  0  0  0  0
    0.3275   -2.4331    7.0360 H   0  0  0  0  0  0  0  0  0  0  0  0
   -1.1758   -2.5858    6.1736 H   0  0  0  0  0  0  0  0  0  0  0  0
   -1.6488   -5.6578    8.0545 H   0  0  0  0  0  0  0  0  0  0  0  0
   -2.5132   -4.4042    7.1769 H   0  0  0  0  0  0  0  0  0  0  0  0
   -1.5024   -3.9954    8.5675 H   0  0  0  0  0  0  0  0  0  0  0  0
    0.7365   -6.8870    5.7312 H   0  0  0  0  0  0  0  0  0  0  0  0
  1  2  1  0
  1 37  1  0
  1 38  1  0
  1 39  1  0
  2 35  1  0
  2  3  1  0
  2 40  1  6
  3  4  1  0
  3 41  1  0
  3 42  1  0
  4  5  1  0
  4 43  1  0
  4 44  1  0
  5 34  1  0
  5  6  1  0
  5 45  1  1
  6  7  1  0
  6  8  1  0
  6 46  1  1
  7 47  1  0
  7 48  1  0
  7 49  1  0
  8  9  1  0
  8 25  1  0
  8 50  1  1
  9 10  1  0
 10 15  1  0
 10 11  2  0
 11 12  1  0
 12 13  1  0
 13 14  1  0
 13 15  2  0
 15 16  1  0
 16 17  2  0
 16 18  2  0
 16 19  1  0
 19 24  1  0
 19 20  2  0
 20 21  1  0
 20 51  1  0
 21 22  2  0
 21 52  1  0
 22 23  1  0
 22 53  1  0
 23 24  2  0
 23 54  1  0
 24 55  1  0
 25 26  1  0
 25 27  1  0
 25 56  1  1
 26 57  1  0
 26 58  1  0
 26 59  1  0
 27 34  1  0
 27 28  1  0
 27 60  1  6
 28 29  1  0
 28 61  1  0
 28 62  1  0
 29 30  1  0
 29 63  1  0
 29 64  1  0
 30 36  1  0
 30 31  1  1
 30 32  1  0
 31 65  1  0
 31 66  1  0
 31 67  1  0
 32 33  1  0
 34 33  1  1
 34 35  1  0
 35 36  1  0
 35 68  1  1
M  CHG  2  13   1  14  -1
M  END
>  <i_m_ct_stereo_status>  (25) 
1

>  <s_m_source_file>  (25) 
/var/tmp/pbs.5076255.sched01/tmps52fw2z9/0bkrl5082.sdf

>  <i_m_source_file_index>  (25) 
9

>  <i_lp_mmshare_version>  (25) 
48012

>  <i_f3d_flags>  (25) 
0

>  <s_epik_input>  (25) 
W0NAQF0xMjNbQ0BIXTRbQ0gyXVtDSDJdW0NAQEhdKFtDSDNdKVtDQEBIXTNPW0NAQF0oW0NIM10pKE9PMilbQ0gyXVtDSDJdW0NASF0xW0NASF0oW0NIM10pW0NAQEhdKFtDQEBIXTRbQ0gzXSlPYzVuW28tXVtuK10oW08tXSljNVMoPU8pKD1PKWM2W2NIXVtjSF1bY0hdW2NIXVtjSF02

>  <s_epik_cmdline>  (25) 
J2VwaWtfcHl0aG9uJywgJy1waHQnLCAnMi4wJywgJy1waCcsICc3LjAnLCAnLXRuJywgJzgnLCAnLW1hJywgJzIwMCcsICctaW1hZScsICc8aW5maWxlLm1hZT4nLCAnLW9tYWUnLCAnPG91dGZpbGUubWFlPic=

>  <r_lp_tautomer_probability>  (25) 
1

>  <r_epik_Ionization_Penalty>  (25) 
2.86797e-14

>  <r_epik_Ionization_Penalty_Charging>  (25) 
0

>  <r_epik_Ionization_Penalty_Neutral>  (25) 
2.86797e-14

>  <r_epik_State_Penalty>  (25) 
-0

>  <r_epik_Charging_Adjusted_Penalty>  (25) 
0

>  <i_epik_Tot_Q>  (25) 
0

>  <i_epik_Tot_abs_Q>  (25) 
2

>  <s_lp_Force_Field>  (25) 
OPLS3e

>  <r_lp_Energy>  (25) 
35.195

>  <b_lp_Chiralities_Consistent>  (25) 
1

>  <s_lp_Variant>  (25) 
6:0-1

>  <s_i_glide_gridfile>  (25) 
pfpi4k_grid

>  <i_i_glide_lignum>  (25) 
9

>  <i_i_glide_rotatable_bonds>  (25) 
4

>  <r_i_docking_score>  (25) 
-3.1091

>  <r_i_glide_ligand_efficiency>  (25) 
-0.0863639

>  <r_i_glide_ligand_efficiency_sa>  (25) 
-0.285167

>  <r_i_glide_ligand_efficiency_ln>  (25) 
-0.678322

>  <r_i_glide_gscore>  (25) 
-3.1091

>  <r_i_glide_lipo>  (25) 
-0.865249

>  <r_i_glide_hbond>  (25) 
-0.0494377

>  <r_i_glide_metal>  (25) 
-0

>  <r_i_glide_rewards>  (25) 
-0.260579

>  <r_i_glide_evdw>  (25) 
-33.9463

>  <r_i_glide_ecoul>  (25) 
-3.55094

>  <r_i_glide_erotb>  (25) 
0.30333

>  <r_i_glide_esite>  (25) 
-0.00720776

>  <r_i_glide_emodel>  (25) 
-42.8253

>  <r_i_glide_energy>  (25) 
-37.4973

>  <r_i_glide_einternal>  (25) 
1.76857

>  <r_i_glide_intrahb_reward>  (25) 
-0

>  <i_i_glide_confnum>  (25) 
5

>  <i_i_glide_posenum>  (25) 
24

>  <r_i_glide_eff_state_penalty>  (25) 
0

>  <ligand_id>  (25) 
6

>  <original_smiles>  (25) 
CC1CCC2C(C)C(Oc3no[n+]([O-])c3S(=O)(=O)c3ccccc3)C(C)C3CCC4(C)OOC23C1O4

>  <smiles>  (25) 
[H]c1c([H])c([H])c(S(=O)(=O)c2c(OC3([H])C([H])(C([H])([H])[H])C4([H])C([H])([H])C([H])([H])C5(C([H])([H])[H])OOC46C([H])(O5)C([H])(C([H])([H])[H])C([H])([H])C([H])([H])C6([H])C3([H])C([H])([H])[H])no[n+]2[O-])c([H])c1[H]

$$$$
6:0:1
     RDKit          3D

 68 73  0  0  1  0  0  0  0  0999 V2000
    0.4955   -8.2655    4.8353 C   0  0  0  0  0  0  0  0  0  0  0  0
    1.5985   -7.2015    4.6998 C   0  0  2  0  0  0  0  0  0  0  0  0
    2.9941   -7.8466    4.7360 C   0  0  0  0  0  0  0  0  0  0  0  0
    4.1170   -6.8093    4.5804 C   0  0  0  0  0  0  0  0  0  0  0  0
    4.0272   -5.6718    5.6288 C   0  0  1  0  0  0  0  0  0  0  0  0
    5.1547   -4.5979    5.5289 C   0  0  1  0  0  0  0  0  0  0  0  0
    6.5704   -5.2077    5.6144 C   0  0  0  0  0  0  0  0  0  0  0  0
    4.9757   -3.6051    4.3338 C   0  0  1  0  0  0  0  0  0  0  0  0
    5.3403   -4.2850    3.1151 O   0  0  0  0  0  0  0  0  0  0  0  0
    5.9169   -3.5990    2.0577 C   0  0  0  0  0  0  0  0  0  0  0  0
    5.4690   -2.3915    1.6445 N   0  0  0  0  0  0  0  0  0  0  0  0
    6.1710   -2.0740    0.4905 O   0  0  0  0  0  0  0  0  0  0  0  0
    7.0943   -3.0604    0.2104 N   0  0  0  0  0  0  0  0  0  0  0  0
    7.9112   -3.0412   -0.7992 O   0  0  0  0  0  0  0  0  0  0  0  0
    6.9511   -3.9881    1.1781 C   0  0  0  0  0  0  0  0  0  0  0  0
    7.9274   -5.5221    1.2869 S   0  0  0  0  0  0  0  0  0  0  0  0
    8.7625   -5.6048    0.0831 O   0  0  0  0  0  0  0  0  0  0  0  0
    8.5573   -5.5238    2.6215 O   0  0  0  0  0  0  0  0  0  0  0  0
    6.7279   -6.8461    1.2892 C   0  0  0  0  0  0  0  0  0  0  0  0
    7.1670   -8.1112    1.7210 C   0  0  0  0  0  0  0  0  0  0  0  0
    6.2741   -9.1969    1.7103 C   0  0  0  0  0  0  0  0  0  0  0  0
    4.9409   -9.0093    1.2899 C   0  0  0  0  0  0  0  0  0  0  0  0
    4.4997   -7.7329    0.8851 C   0  0  0  0  0  0  0  0  0  0  0  0
    5.3916   -6.6491    0.8748 C   0  0  0  0  0  0  0  0  0  0  0  0
    3.5300   -2.9696    4.4154 C   0  0  1  0  0  0  0  0  0  0  0  0
    3.2293   -1.8459    3.4081 C   0  0  0  0  0  0  0  0  0  0  0  0
    2.4680   -4.1030    4.3776 C   0  0  2  0  0  0  0  0  0  0  0  0
    1.0181   -3.6509    4.0811 C   0  0  0  0  0  0  0  0  0  0  0  0
    0.1959   -3.2065    5.2957 C   0  0  0  0  0  0  0  0  0  0  0  0
    0.1587   -4.2717    6.4211 C   0  0  2  0  0  0  0  0  0  0  0  0
   -1.1585   -4.1842    7.2108 C   0  0  0  0  0  0  0  0  0  0  0  0
    1.1831   -4.1161    7.3956 O   0  0  0  0  0  0  0  0  0  0  0  0
    2.5478   -4.1296    6.7507 O   0  0  0  0  0  0  0  0  0  0  0  0
    2.6139   -5.0196    5.6303 C   0  0  2  0  0  0  0  0  0  0  0  0
    1.5204   -6.1209    5.7994 C   0  0  1  0  0  0  0  0  0  0  0  0
    0.2031   -5.5589    5.8259 O   0  0  0  0  0  0  0  0  0  0  0  0
    0.5455   -8.7724    5.7986 H   0  0  0  0  0  0  0  0  0  0  0  0
    0.5872   -9.0259    4.0586 H   0  0  0  0  0  0  0  0  0  0  0  0
   -0.4944   -7.8247    4.7405 H   0  0  0  0  0  0  0  0  0  0  0  0
    1.4691   -6.7302    3.7266 H   0  0  0  0  0  0  0  0  0  0  0  0
    3.1222   -8.3809    5.6766 H   0  0  0  0  0  0  0  0  0  0  0  0
    3.0863   -8.5902    3.9409 H   0  0  0  0  0  0  0  0  0  0  0  0
    5.0722   -7.3250    4.6766 H   0  0  0  0  0  0  0  0  0  0  0  0
    4.0813   -6.4171    3.5673 H   0  0  0  0  0  0  0  0  0  0  0  0
    4.1324   -6.1585    6.6002 H   0  0  0  0  0  0  0  0  0  0  0  0
    5.0588   -4.0168    6.4475 H   0  0  0  0  0  0  0  0  0  0  0  0
    6.8185   -5.7873    4.7267 H   0  0  0  0  0  0  0  0  0  0  0  0
    6.6837   -5.8695    6.4778 H   0  0  0  0  0  0  0  0  0  0  0  0
    7.3236   -4.4276    5.7064 H   0  0  0  0  0  0  0  0  0  0  0  0
    5.7120   -2.8150    4.4796 H   0  0  0  0  0  0  0  0  0  0  0  0
    8.1937   -8.2333    2.0285 H   0  0  0  0  0  0  0  0  0  0  0  0
    6.6119  -10.1732    2.0116 H   0  0  0  0  0  0  0  0  0  0  0  0
    4.2591   -9.8465    1.2704 H   0  0  0  0  0  0  0  0  0  0  0  0
    3.4841   -7.5769    0.5655 H   0  0  0  0  0  0  0  0  0  0  0  0
    5.0399   -5.6969    0.5234 H   0  0  0  0  0  0  0  0  0  0  0  0
    3.4575   -2.4602    5.3820 H   0  0  0  0  0  0  0  0  0  0  0  0
    3.0467   -2.2835    2.4191 H   0  0  0  0  0  0  0  0  0  0  0  0
    4.0845   -1.1691    3.3578 H   0  0  0  0  0  0  0  0  0  0  0  0
    2.3772   -1.2177    3.6540 H   0  0  0  0  0  0  0  0  0  0  0  0
    2.7096   -4.6918    3.4973 H   0  0  0  0  0  0  0  0  0  0  0  0
    0.9669   -2.8867    3.3107 H   0  0  0  0  0  0  0  0  0  0  0  0
    0.5120   -4.4938    3.6136 H   0  0  0  0  0  0  0  0  0  0  0  0
    0.5170   -2.2371    5.6762 H   0  0  0  0  0  0  0  0  0  0  0  0
   -0.8140   -3.0541    4.9199 H   0  0  0  0  0  0  0  0  0  0  0  0
   -1.1478   -4.9016    8.0280 H   0  0  0  0  0  0  0  0  0  0  0  0
   -2.0322   -4.3950    6.5986 H   0  0  0  0  0  0  0  0  0  0  0  0
   -1.2739   -3.1918    7.6397 H   0  0  0  0  0  0  0  0  0  0  0  0
    1.6709   -6.6059    6.7715 H   0  0  0  0  0  0  0  0  0  0  0  0
  1  2  1  0
  1 37  1  0
  1 38  1  0
  1 39  1  0
  2 35  1  0
  2  3  1  0
  2 40  1  6
  3  4  1  0
  3 41  1  0
  3 42  1  0
  4  5  1  0
  4 43  1  0
  4 44  1  0
  5 34  1  0
  5  6  1  0
  5 45  1  1
  6  7  1  0
  6  8  1  0
  6 46  1  1
  7 47  1  0
  7 48  1  0
  7 49  1  0
  8  9  1  0
  8 25  1  0
  8 50  1  1
  9 10  1  0
 10 15  1  0
 10 11  2  0
 11 12  1  0
 12 13  1  0
 13 14  1  0
 13 15  2  0
 15 16  1  0
 16 17  2  0
 16 18  2  0
 16 19  1  0
 19 24  1  0
 19 20  2  0
 20 21  1  0
 20 51  1  0
 21 22  2  0
 21 52  1  0
 22 23  1  0
 22 53  1  0
 23 24  2  0
 23 54  1  0
 24 55  1  0
 25 26  1  0
 25 27  1  0
 25 56  1  1
 26 57  1  0
 26 58  1  0
 26 59  1  0
 27 34  1  0
 27 28  1  0
 27 60  1  6
 28 29  1  0
 28 61  1  0
 28 62  1  0
 29 30  1  0
 29 63  1  0
 29 64  1  0
 30 36  1  0
 30 31  1  1
 30 32  1  0
 31 65  1  0
 31 66  1  0
 31 67  1  0
 32 33  1  0
 34 33  1  1
 34 35  1  0
 35 36  1  0
 35 68  1  1
M  CHG  2  13   1  14  -1
M  END
>  <i_m_ct_stereo_status>  (26) 
1

>  <s_m_source_file>  (26) 
/var/tmp/pbs.5076255.sched01/tmps52fw2z9/0bkrl5082.sdf

>  <i_m_source_file_index>  (26) 
9

>  <i_lp_mmshare_version>  (26) 
48012

>  <i_f3d_flags>  (26) 
0

>  <s_epik_input>  (26) 
W0NAQF0xMjNbQ0BIXTRbQ0gyXVtDSDJdW0NAQEhdKFtDSDNdKVtDQEBIXTNPW0NAQF0oW0NIM10pKE9PMilbQ0gyXVtDSDJdW0NASF0xW0NASF0oW0NIM10pW0NAQEhdKFtDQEBIXTRbQ0gzXSlPYzVuW28tXVtuK10oW08tXSljNVMoPU8pKD1PKWM2W2NIXVtjSF1bY0hdW2NIXVtjSF02

>  <s_epik_cmdline>  (26) 
J2VwaWtfcHl0aG9uJywgJy1waHQnLCAnMi4wJywgJy1waCcsICc3LjAnLCAnLXRuJywgJzgnLCAnLW1hJywgJzIwMCcsICctaW1hZScsICc8aW5maWxlLm1hZT4nLCAnLW9tYWUnLCAnPG91dGZpbGUubWFlPic=

>  <r_lp_tautomer_probability>  (26) 
1

>  <r_epik_Ionization_Penalty>  (26) 
2.86797e-14

>  <r_epik_Ionization_Penalty_Charging>  (26) 
0

>  <r_epik_Ionization_Penalty_Neutral>  (26) 
2.86797e-14

>  <r_epik_State_Penalty>  (26) 
-0

>  <r_epik_Charging_Adjusted_Penalty>  (26) 
0

>  <i_epik_Tot_Q>  (26) 
0

>  <i_epik_Tot_abs_Q>  (26) 
2

>  <s_lp_Force_Field>  (26) 
OPLS3e

>  <r_lp_Energy>  (26) 
35.195

>  <b_lp_Chiralities_Consistent>  (26) 
1

>  <s_lp_Variant>  (26) 
6:0-1

>  <s_i_glide_gridfile>  (26) 
pfpi4k_grid

>  <i_i_glide_lignum>  (26) 
9

>  <i_i_glide_rotatable_bonds>  (26) 
4

>  <r_i_docking_score>  (26) 
-2.58929

>  <r_i_glide_ligand_efficiency>  (26) 
-0.0719247

>  <r_i_glide_ligand_efficiency_sa>  (26) 
-0.23749

>  <r_i_glide_ligand_efficiency_ln>  (26) 
-0.564913

>  <r_i_glide_gscore>  (26) 
-2.58929

>  <r_i_glide_lipo>  (26) 
-0.601859

>  <r_i_glide_hbond>  (26) 
0

>  <r_i_glide_metal>  (26) 
-0

>  <r_i_glide_rewards>  (26) 
-0.582142

>  <r_i_glide_evdw>  (26) 
-27.6064

>  <r_i_glide_ecoul>  (26) 
-1.7865

>  <r_i_glide_erotb>  (26) 
0.30333

>  <r_i_glide_esite>  (26) 
-0.0603256

>  <r_i_glide_emodel>  (26) 
-31.1268

>  <r_i_glide_energy>  (26) 
-29.3929

>  <r_i_glide_einternal>  (26) 
6.64068

>  <r_i_glide_intrahb_reward>  (26) 
-0

>  <i_i_glide_confnum>  (26) 
5

>  <i_i_glide_posenum>  (26) 
28

>  <r_i_glide_eff_state_penalty>  (26) 
0

>  <ligand_id>  (26) 
6

>  <original_smiles>  (26) 
CC1CCC2C(C)C(Oc3no[n+]([O-])c3S(=O)(=O)c3ccccc3)C(C)C3CCC4(C)OOC23C1O4

>  <smiles>  (26) 
[H]c1c([H])c([H])c(S(=O)(=O)c2c(OC3([H])C([H])(C([H])([H])[H])C4([H])C([H])([H])C([H])([H])C5(C([H])([H])[H])OOC46C([H])(O5)C([H])(C([H])([H])[H])C([H])([H])C([H])([H])C6([H])C3([H])C([H])([H])[H])no[n+]2[O-])c([H])c1[H]

$$$$
6:0:2
     RDKit          3D

 68 73  0  0  1  0  0  0  0  0999 V2000
   -1.1982   -4.0218    6.9978 C   0  0  0  0  0  0  0  0  0  0  0  0
    0.1410   -3.5703    6.3888 C   0  0  2  0  0  0  0  0  0  0  0  0
    1.3088   -4.3639    6.9915 C   0  0  0  0  0  0  0  0  0  0  0  0
    2.6642   -3.9508    6.3929 C   0  0  0  0  0  0  0  0  0  0  0  0
    2.9277   -2.4278    6.5171 C   0  0  1  0  0  0  0  0  0  0  0  0
    4.2995   -1.9494    5.9518 C   0  0  1  0  0  0  0  0  0  0  0  0
    5.5047   -2.6918    6.5634 C   0  0  0  0  0  0  0  0  0  0  0  0
    4.3430   -1.8969    4.3948 C   0  0  1  0  0  0  0  0  0  0  0  0
    4.4137   -3.2430    3.9054 O   0  0  0  0  0  0  0  0  0  0  0  0
    5.1891   -3.5366    2.7991 C   0  0  0  0  0  0  0  0  0  0  0  0
    5.4187   -2.6476    1.8137 N   0  0  0  0  0  0  0  0  0  0  0  0
    6.0760   -3.3538    0.7722 O   0  0  0  0  0  0  0  0  0  0  0  0
    6.3114   -4.6338    1.1938 N   0  0  0  0  0  0  0  0  0  0  0  0
    6.9169   -5.5427    0.4989 O   0  0  0  0  0  0  0  0  0  0  0  0
    5.8200   -4.7473    2.4205 C   0  0  0  0  0  0  0  0  0  0  0  0
    5.9239   -6.2412    3.4191 S   0  0  0  0  0  0  0  0  0  0  0  0
    7.2507   -6.7990    3.1676 O   0  0  0  0  0  0  0  0  0  0  0  0
    5.5207   -5.8168    4.7618 O   0  0  0  0  0  0  0  0  0  0  0  0
    4.6444   -7.2898    2.7330 C   0  0  0  0  0  0  0  0  0  0  0  0
    3.3161   -7.1534    3.1829 C   0  0  0  0  0  0  0  0  0  0  0  0
    2.3111   -7.9864    2.6553 C   0  0  0  0  0  0  0  0  0  0  0  0
    2.6422   -8.9478    1.6784 C   0  0  0  0  0  0  0  0  0  0  0  0
    3.9718   -9.0655    1.2186 C   0  0  0  0  0  0  0  0  0  0  0  0
    4.9812   -8.2328    1.7449 C   0  0  0  0  0  0  0  0  0  0  0  0
    3.1360   -1.0488    3.8586 C   0  0  1  0  0  0  0  0  0  0  0  0
    3.1576   -0.8197    2.3339 C   0  0  0  0  0  0  0  0  0  0  0  0
    1.7999   -1.6576    4.3757 C   0  0  2  0  0  0  0  0  0  0  0  0
    0.5167   -1.1527    3.6807 C   0  0  0  0  0  0  0  0  0  0  0  0
   -0.1159    0.1208    4.2569 C   0  0  0  0  0  0  0  0  0  0  0  0
   -0.3778    0.0330    5.7779 C   0  0  2  0  0  0  0  0  0  0  0  0
   -1.5797    0.9082    6.1663 C   0  0  0  0  0  0  0  0  0  0  0  0
    0.6908    0.5098    6.5838 O   0  0  0  0  0  0  0  0  0  0  0  0
    1.9790   -0.2318    6.2707 O   0  0  0  0  0  0  0  0  0  0  0  0
    1.7455   -1.6018    5.9332 C   0  0  2  0  0  0  0  0  0  0  0  0
    0.4025   -2.0603    6.5920 C   0  0  1  0  0  0  0  0  0  0  0  0
   -0.7143   -1.3077    6.1106 O   0  0  0  0  0  0  0  0  0  0  0  0
   -1.2405   -3.8274    8.0653 H   0  0  0  0  0  0  0  0  0  0  0  0
   -1.3505   -5.0931    6.8536 H   0  0  0  0  0  0  0  0  0  0  0  0
   -2.0368   -3.5127    6.5228 H   0  0  0  0  0  0  0  0  0  0  0  0
    0.0953   -3.7859    5.3231 H   0  0  0  0  0  0  0  0  0  0  0  0
    1.3350   -4.2127    8.0713 H   0  0  0  0  0  0  0  0  0  0  0  0
    1.1638   -5.4328    6.8305 H   0  0  0  0  0  0  0  0  0  0  0  0
    3.4476   -4.5029    6.9060 H   0  0  0  0  0  0  0  0  0  0  0  0
    2.6883   -4.2780    5.3545 H   0  0  0  0  0  0  0  0  0  0  0  0
    2.9421   -2.2205    7.5870 H   0  0  0  0  0  0  0  0  0  0  0  0
    4.4037   -0.9211    6.3049 H   0  0  0  0  0  0  0  0  0  0  0  0
    5.5475   -3.7319    6.2491 H   0  0  0  0  0  0  0  0  0  0  0  0
    5.4754   -2.6861    7.6551 H   0  0  0  0  0  0  0  0  0  0  0  0
    6.4414   -2.2308    6.2590 H   0  0  0  0  0  0  0  0  0  0  0  0
    5.2741   -1.3937    4.1330 H   0  0  0  0  0  0  0  0  0  0  0  0
    3.0732   -6.4247    3.9418 H   0  0  0  0  0  0  0  0  0  0  0  0
    1.2912   -7.9048    3.0041 H   0  0  0  0  0  0  0  0  0  0  0  0
    1.8822   -9.6016    1.2779 H   0  0  0  0  0  0  0  0  0  0  0  0
    4.2225   -9.8092    0.4784 H   0  0  0  0  0  0  0  0  0  0  0  0
    6.0023   -8.3203    1.4126 H   0  0  0  0  0  0  0  0  0  0  0  0
    3.2357   -0.0399    4.2714 H   0  0  0  0  0  0  0  0  0  0  0  0
    2.9182   -1.7442    1.8019 H   0  0  0  0  0  0  0  0  0  0  0  0
    4.1353   -0.4556    2.0235 H   0  0  0  0  0  0  0  0  0  0  0  0
    2.4586   -0.0579    1.9915 H   0  0  0  0  0  0  0  0  0  0  0  0
    1.8297   -2.7006    4.0736 H   0  0  0  0  0  0  0  0  0  0  0  0
    0.6491   -1.0409    2.6080 H   0  0  0  0  0  0  0  0  0  0  0  0
   -0.2170   -1.9566    3.7515 H   0  0  0  0  0  0  0  0  0  0  0  0
    0.4648    1.0085    4.0070 H   0  0  0  0  0  0  0  0  0  0  0  0
   -1.0680    0.2382    3.7349 H   0  0  0  0  0  0  0  0  0  0  0  0
   -1.7232    0.8896    7.2435 H   0  0  0  0  0  0  0  0  0  0  0  0
   -2.5039    0.5680    5.6974 H   0  0  0  0  0  0  0  0  0  0  0  0
   -1.4209    1.9484    5.8827 H   0  0  0  0  0  0  0  0  0  0  0  0
    0.4710   -1.8635    7.6652 H   0  0  0  0  0  0  0  0  0  0  0  0
  1  2  1  0
  1 37  1  0
  1 38  1  0
  1 39  1  0
  2 35  1  0
  2  3  1  0
  2 40  1  6
  3  4  1  0
  3 41  1  0
  3 42  1  0
  4  5  1  0
  4 43  1  0
  4 44  1  0
  5 34  1  0
  5  6  1  0
  5 45  1  1
  6  7  1  0
  6  8  1  0
  6 46  1  1
  7 47  1  0
  7 48  1  0
  7 49  1  0
  8  9  1  0
  8 25  1  0
  8 50  1  1
  9 10  1  0
 10 15  1  0
 10 11  2  0
 11 12  1  0
 12 13  1  0
 13 14  1  0
 13 15  2  0
 15 16  1  0
 16 17  2  0
 16 18  2  0
 16 19  1  0
 19 24  1  0
 19 20  2  0
 20 21  1  0
 20 51  1  0
 21 22  2  0
 21 52  1  0
 22 23  1  0
 22 53  1  0
 23 24  2  0
 23 54  1  0
 24 55  1  0
 25 26  1  0
 25 27  1  0
 25 56  1  1
 26 57  1  0
 26 58  1  0
 26 59  1  0
 27 34  1  0
 27 28  1  0
 27 60  1  1
 28 29  1  0
 28 61  1  0
 28 62  1  0
 29 30  1  0
 29 63  1  0
 29 64  1  0
 30 36  1  0
 30 31  1  6
 30 32  1  0
 31 65  1  0
 31 66  1  0
 31 67  1  0
 32 33  1  0
 34 33  1  6
 34 35  1  0
 35 36  1  0
 35 68  1  1
M  CHG  2  13   1  14  -1
M  END
>  <i_m_ct_stereo_status>  (27) 
1

>  <s_m_source_file>  (27) 
/var/tmp/pbs.5076255.sched01/tmps52fw2z9/0bkrl5082.sdf

>  <i_m_source_file_index>  (27) 
9

>  <i_lp_mmshare_version>  (27) 
48012

>  <i_f3d_flags>  (27) 
0

>  <s_epik_input>  (27) 
W0NAQF0xMjNbQ0BIXTRbQ0gyXVtDSDJdW0NAQEhdKFtDSDNdKVtDQEBIXTNPW0NAQF0oW0NIM10pKE9PMilbQ0gyXVtDSDJdW0NASF0xW0NASF0oW0NIM10pW0NAQEhdKFtDQEBIXTRbQ0gzXSlPYzVuW28tXVtuK10oW08tXSljNVMoPU8pKD1PKWM2W2NIXVtjSF1bY0hdW2NIXVtjSF02

>  <s_epik_cmdline>  (27) 
J2VwaWtfcHl0aG9uJywgJy1waHQnLCAnMi4wJywgJy1waCcsICc3LjAnLCAnLXRuJywgJzgnLCAnLW1hJywgJzIwMCcsICctaW1hZScsICc8aW5maWxlLm1hZT4nLCAnLW9tYWUnLCAnPG91dGZpbGUubWFlPic=

>  <r_lp_tautomer_probability>  (27) 
1

>  <r_epik_Ionization_Penalty>  (27) 
2.86797e-14

>  <r_epik_Ionization_Penalty_Charging>  (27) 
0

>  <r_epik_Ionization_Penalty_Neutral>  (27) 
2.86797e-14

>  <r_epik_State_Penalty>  (27) 
-0

>  <r_epik_Charging_Adjusted_Penalty>  (27) 
0

>  <i_epik_Tot_Q>  (27) 
0

>  <i_epik_Tot_abs_Q>  (27) 
2

>  <s_lp_Force_Field>  (27) 
OPLS3e

>  <r_lp_Energy>  (27) 
35.195

>  <b_lp_Chiralities_Consistent>  (27) 
1

>  <s_lp_Variant>  (27) 
6:0-1

>  <s_i_glide_gridfile>  (27) 
pfpi4k_grid

>  <i_i_glide_lignum>  (27) 
9

>  <i_i_glide_rotatable_bonds>  (27) 
4

>  <r_i_docking_score>  (27) 
-1.68411

>  <r_i_glide_ligand_efficiency>  (27) 
-0.0467809

>  <r_i_glide_ligand_efficiency_sa>  (27) 
-0.154467

>  <r_i_glide_ligand_efficiency_ln>  (27) 
-0.367428

>  <r_i_glide_gscore>  (27) 
-1.68411

>  <r_i_glide_lipo>  (27) 
-0.125384

>  <r_i_glide_hbond>  (27) 
0

>  <r_i_glide_metal>  (27) 
-0

>  <r_i_glide_rewards>  (27) 
-0.126147

>  <r_i_glide_evdw>  (27) 
-26.1177

>  <r_i_glide_ecoul>  (27) 
-2.6851

>  <r_i_glide_erotb>  (27) 
0.30333

>  <r_i_glide_esite>  (27) 
-0.0272644

>  <r_i_glide_emodel>  (27) 
-31.6752

>  <r_i_glide_energy>  (27) 
-28.8028

>  <r_i_glide_einternal>  (27) 
0.926708

>  <r_i_glide_intrahb_reward>  (27) 
-0

>  <i_i_glide_confnum>  (27) 
5

>  <i_i_glide_posenum>  (27) 
12

>  <r_i_glide_eff_state_penalty>  (27) 
0

>  <ligand_id>  (27) 
6

>  <original_smiles>  (27) 
CC1CCC2C(C)C(Oc3no[n+]([O-])c3S(=O)(=O)c3ccccc3)C(C)C3CCC4(C)OOC23C1O4

>  <smiles>  (27) 
[H]c1c([H])c([H])c(S(=O)(=O)c2c(OC3([H])C([H])(C([H])([H])[H])C4([H])C([H])([H])C([H])([H])C5(C([H])([H])[H])OOC46C([H])(O5)C([H])(C([H])([H])[H])C([H])([H])C([H])([H])C6([H])C3([H])C([H])([H])[H])no[n+]2[O-])c([H])c1[H]

$$$$
7:0:0
     RDKit          3D

 29 31  0  0  1  0  0  0  0  0999 V2000
    4.1734   -8.2719    1.6348 C   0  0  0  0  0  0  0  0  0  0  0  0
    4.6827   -7.0496    2.4095 C   0  0  0  0  0  0  0  0  0  0  0  0
    5.3542   -6.0962    1.5455 N   0  0  0  0  0  0  0  0  0  0  0  0
    6.6869   -5.9373    1.4042 C   0  0  0  0  0  0  0  0  0  0  0  0
    7.0576   -4.9862    0.5453 N   0  0  0  0  0  0  0  0  0  0  0  0
    5.8378   -4.4844    0.0973 C   0  0  0  0  0  0  0  0  0  0  0  0
    4.8107   -5.1391    0.6963 C   0  0  0  0  0  0  0  0  0  0  0  0
    3.3990   -4.7995    0.4171 C   0  0  0  0  0  0  0  0  0  0  0  0
    2.4827   -5.3572    1.0236 O   0  0  0  0  0  0  0  0  0  0  0  0
    3.1980   -3.8312   -0.5836 N   0  0  0  0  0  0  0  0  0  0  0  0
    4.2040   -3.2208   -1.1739 C   0  0  0  0  0  0  0  0  0  0  0  0
    3.8507   -2.3041   -2.2773 C   0  0  0  0  0  0  0  0  0  0  0  0
    2.9956   -2.4899   -3.3345 C   0  0  0  0  0  0  0  0  0  0  0  0
    2.9728   -1.3603   -4.1127 O   0  0  0  0  0  0  0  0  0  0  0  0
    3.7797   -0.4922   -3.4497 C   0  0  0  0  0  0  0  0  0  0  0  0
    4.3310   -1.0020   -2.3584 N   0  0  0  0  0  0  0  0  0  0  0  0
    5.5509   -3.4717   -0.8336 N   0  0  0  0  0  0  0  0  0  0  0  0
    6.7004   -2.7661   -1.3980 C   0  0  0  0  0  0  0  0  0  0  0  0
    3.7042   -8.9903    2.3098 H   0  0  0  0  0  0  0  0  0  0  0  0
    4.9893   -8.7875    1.1245 H   0  0  0  0  0  0  0  0  0  0  0  0
    3.4325   -7.9938    0.8832 H   0  0  0  0  0  0  0  0  0  0  0  0
    3.8634   -6.5518    2.9291 H   0  0  0  0  0  0  0  0  0  0  0  0
    5.3866   -7.3700    3.1742 H   0  0  0  0  0  0  0  0  0  0  0  0
    7.4020   -6.5334    1.9505 H   0  0  0  0  0  0  0  0  0  0  0  0
    2.3763   -3.3315   -3.6293 H   0  0  0  0  0  0  0  0  0  0  0  0
    3.9723    0.5088   -3.8031 H   0  0  0  0  0  0  0  0  0  0  0  0
    6.4950   -1.7071   -1.5060 H   0  0  0  0  0  0  0  0  0  0  0  0
    6.9672   -3.1707   -2.3740 H   0  0  0  0  0  0  0  0  0  0  0  0
    7.5705   -2.8274   -0.7461 H   0  0  0  0  0  0  0  0  0  0  0  0
  1  2  1  0
  1 19  1  0
  1 20  1  0
  1 21  1  0
  2  3  1  0
  2 22  1  0
  2 23  1  0
  3  7  1  0
  3  4  1  0
  4  5  2  0
  4 24  1  0
  5  6  1  0
  6 17  1  0
  6  7  2  0
  7  8  1  0
  8  9  2  0
  8 10  1  0
 10 11  2  0
 11 12  1  0
 11 17  1  0
 12 16  1  0
 12 13  2  0
 13 14  1  0
 13 25  1  0
 14 15  1  0
 15 16  2  0
 15 26  1  0
 17 18  1  0
 18 27  1  0
 18 28  1  0
 18 29  1  0
M  END
>  <i_m_ct_stereo_status>  (28) 
1

>  <s_m_source_file>  (28) 
/var/tmp/pbs.5076255.sched01/tmps52fw2z9/0bkrl5082.sdf

>  <i_m_source_file_index>  (28) 
10

>  <i_lp_mmshare_version>  (28) 
48012

>  <i_f3d_flags>  (28) 
0

>  <s_epik_input>  (28) 
W0NIM11bQ0gyXW4oW2NIXW4xKWMoYzEyKWMoPU8pbmMobjJbQ0gzXSktYzNbY0hdb1tjSF1uMw==

>  <s_epik_cmdline>  (28) 
J2VwaWtfcHl0aG9uJywgJy1waHQnLCAnMi4wJywgJy1waCcsICc3LjAnLCAnLXRuJywgJzgnLCAnLW1hJywgJzIwMCcsICctaW1hZScsICc8aW5maWxlLm1hZT4nLCAnLW9tYWUnLCAnPG91dGZpbGUubWFlPic=

>  <r_lp_tautomer_probability>  (28) 
1

>  <r_epik_Ionization_Penalty>  (28) 
7.6988e-05

>  <r_epik_Ionization_Penalty_Charging>  (28) 
1.95329e-09

>  <r_epik_Ionization_Penalty_Neutral>  (28) 
7.69861e-05

>  <r_epik_State_Penalty>  (28) 
-0

>  <r_epik_Charging_Adjusted_Penalty>  (28) 
1.95329e-09

>  <i_epik_Tot_Q>  (28) 
0

>  <i_epik_Tot_abs_Q>  (28) 
0

>  <s_lp_Force_Field>  (28) 
OPLS3e

>  <r_lp_Energy>  (28) 
29.0864

>  <b_lp_Chiralities_Consistent>  (28) 
1

>  <s_lp_Variant>  (28) 
7:0-1

>  <s_i_glide_gridfile>  (28) 
pfpi4k_grid

>  <i_i_glide_lignum>  (28) 
10

>  <i_i_glide_rotatable_bonds>  (28) 
2

>  <r_i_docking_score>  (28) 
-3.69582

>  <r_i_glide_ligand_efficiency>  (28) 
-0.205323

>  <r_i_glide_ligand_efficiency_sa>  (28) 
-0.538099

>  <r_i_glide_ligand_efficiency_ln>  (28) 
-0.949991

>  <r_i_glide_gscore>  (28) 
-3.69582

>  <r_i_glide_lipo>  (28) 
-0.429655

>  <r_i_glide_hbond>  (28) 
0

>  <r_i_glide_metal>  (28) 
-0

>  <r_i_glide_rewards>  (28) 
-2.1501

>  <r_i_glide_evdw>  (28) 
-26.5838

>  <r_i_glide_ecoul>  (28) 
-0.473141

>  <r_i_glide_erotb>  (28) 
0.289375

>  <r_i_glide_esite>  (28) 
-0.00528138

>  <r_i_glide_emodel>  (28) 
-32.2649

>  <r_i_glide_energy>  (28) 
-27.0569

>  <r_i_glide_einternal>  (28) 
2.19256

>  <r_i_glide_intrahb_reward>  (28) 
-0

>  <i_i_glide_confnum>  (28) 
3

>  <i_i_glide_posenum>  (28) 
11

>  <r_i_glide_eff_state_penalty>  (28) 
0

>  <ligand_id>  (28) 
7

>  <original_smiles>  (28) 
CCn1cnc2c1c(=O)nc(-c1cocn1)n2C

>  <smiles>  (28) 
[H]c1nc(-c2nc(=O)c3c(nc([H])n3C([H])([H])C([H])([H])[H])n2C([H])([H])[H])c([H])o1

$$$$
7:0:1
     RDKit          3D

 29 31  0  0  1  0  0  0  0  0999 V2000
    2.7495   -2.4596    3.1650 C   0  0  0  0  0  0  0  0  0  0  0  0
    1.4285   -2.0544    2.5071 C   0  0  0  0  0  0  0  0  0  0  0  0
    1.1316   -0.6569    2.7315 N   0  0  0  0  0  0  0  0  0  0  0  0
    1.4323    0.3689    1.9059 C   0  0  0  0  0  0  0  0  0  0  0  0
    1.0408    1.5633    2.3492 N   0  0  0  0  0  0  0  0  0  0  0  0
    0.4324    1.2729    3.5671 C   0  0  0  0  0  0  0  0  0  0  0  0
    0.4767   -0.0617    3.8102 C   0  0  0  0  0  0  0  0  0  0  0  0
   -0.0858   -0.6479    5.0436 C   0  0  0  0  0  0  0  0  0  0  0  0
    0.0423   -1.8595    5.2703 O   0  0  0  0  0  0  0  0  0  0  0  0
   -0.7472    0.2754    5.8859 N   0  0  0  0  0  0  0  0  0  0  0  0
   -0.7839    1.5785    5.6398 C   0  0  0  0  0  0  0  0  0  0  0  0
   -1.5106    2.4274    6.6410 C   0  0  0  0  0  0  0  0  0  0  0  0
   -1.3095    3.7144    7.0788 C   0  0  0  0  0  0  0  0  0  0  0  0
   -2.2883    4.0673    7.9725 O   0  0  0  0  0  0  0  0  0  0  0  0
   -3.0422    2.9404    8.1047 C   0  0  0  0  0  0  0  0  0  0  0  0
   -2.6314    1.9401    7.3334 N   0  0  0  0  0  0  0  0  0  0  0  0
   -0.1807    2.1379    4.4941 N   0  0  0  0  0  0  0  0  0  0  0  0
   -0.1112    3.5531    4.1695 C   0  0  0  0  0  0  0  0  0  0  0  0
    2.9684   -3.5101    2.9698 H   0  0  0  0  0  0  0  0  0  0  0  0
    2.7062   -2.3162    4.2455 H   0  0  0  0  0  0  0  0  0  0  0  0
    3.5737   -1.8601    2.7743 H   0  0  0  0  0  0  0  0  0  0  0  0
    1.4832   -2.2188    1.4309 H   0  0  0  0  0  0  0  0  0  0  0  0
    0.6047   -2.6663    2.8796 H   0  0  0  0  0  0  0  0  0  0  0  0
    1.9382    0.2326    0.9504 H   0  0  0  0  0  0  0  0  0  0  0  0
   -0.5595    4.4660    6.8697 H   0  0  0  0  0  0  0  0  0  0  0  0
   -3.8868    2.9033    8.7874 H   0  0  0  0  0  0  0  0  0  0  0  0
    0.1543    4.1411    5.0275 H   0  0  0  0  0  0  0  0  0  0  0  0
   -1.0606    3.8754    3.7531 H   0  0  0  0  0  0  0  0  0  0  0  0
    0.6518    3.7376    3.4171 H   0  0  0  0  0  0  0  0  0  0  0  0
  1  2  1  0
  1 19  1  0
  1 20  1  0
  1 21  1  0
  2  3  1  0
  2 22  1  0
  2 23  1  0
  3  7  1  0
  3  4  1  0
  4  5  2  0
  4 24  1  0
  5  6  1  0
  6 17  1  0
  6  7  2  0
  7  8  1  0
  8  9  2  0
  8 10  1  0
 10 11  2  0
 11 12  1  0
 11 17  1  0
 12 16  1  0
 12 13  2  0
 13 14  1  0
 13 25  1  0
 14 15  1  0
 15 16  2  0
 15 26  1  0
 17 18  1  0
 18 27  1  0
 18 28  1  0
 18 29  1  0
M  END
>  <i_m_ct_stereo_status>  (29) 
1

>  <s_m_source_file>  (29) 
/var/tmp/pbs.5076255.sched01/tmps52fw2z9/0bkrl5082.sdf

>  <i_m_source_file_index>  (29) 
10

>  <i_lp_mmshare_version>  (29) 
48012

>  <i_f3d_flags>  (29) 
0

>  <s_epik_input>  (29) 
W0NIM11bQ0gyXW4oW2NIXW4xKWMoYzEyKWMoPU8pbmMobjJbQ0gzXSktYzNbY0hdb1tjSF1uMw==

>  <s_epik_cmdline>  (29) 
J2VwaWtfcHl0aG9uJywgJy1waHQnLCAnMi4wJywgJy1waCcsICc3LjAnLCAnLXRuJywgJzgnLCAnLW1hJywgJzIwMCcsICctaW1hZScsICc8aW5maWxlLm1hZT4nLCAnLW9tYWUnLCAnPG91dGZpbGUubWFlPic=

>  <r_lp_tautomer_probability>  (29) 
1

>  <r_epik_Ionization_Penalty>  (29) 
7.6988e-05

>  <r_epik_Ionization_Penalty_Charging>  (29) 
1.95329e-09

>  <r_epik_Ionization_Penalty_Neutral>  (29) 
7.69861e-05

>  <r_epik_State_Penalty>  (29) 
-0

>  <r_epik_Charging_Adjusted_Penalty>  (29) 
1.95329e-09

>  <i_epik_Tot_Q>  (29) 
0

>  <i_epik_Tot_abs_Q>  (29) 
0

>  <s_lp_Force_Field>  (29) 
OPLS3e

>  <r_lp_Energy>  (29) 
29.0864

>  <b_lp_Chiralities_Consistent>  (29) 
1

>  <s_lp_Variant>  (29) 
7:0-1

>  <s_i_glide_gridfile>  (29) 
pfpi4k_grid

>  <i_i_glide_lignum>  (29) 
10

>  <i_i_glide_rotatable_bonds>  (29) 
2

>  <r_i_docking_score>  (29) 
-3.23108

>  <r_i_glide_ligand_efficiency>  (29) 
-0.179505

>  <r_i_glide_ligand_efficiency_sa>  (29) 
-0.470435

>  <r_i_glide_ligand_efficiency_ln>  (29) 
-0.830533

>  <r_i_glide_gscore>  (29) 
-3.23108

>  <r_i_glide_lipo>  (29) 
-0.140959

>  <r_i_glide_hbond>  (29) 
0

>  <r_i_glide_metal>  (29) 
-0

>  <r_i_glide_rewards>  (29) 
-1.73702

>  <r_i_glide_evdw>  (29) 
-19.2338

>  <r_i_glide_ecoul>  (29) 
-3.54911

>  <r_i_glide_erotb>  (29) 
0.289375

>  <r_i_glide_esite>  (29) 
-0.148425

>  <r_i_glide_emodel>  (29) 
-27.9165

>  <r_i_glide_energy>  (29) 
-22.7829

>  <r_i_glide_einternal>  (29) 
0.372899

>  <r_i_glide_intrahb_reward>  (29) 
-0

>  <i_i_glide_confnum>  (29) 
2

>  <i_i_glide_posenum>  (29) 
13

>  <r_i_glide_eff_state_penalty>  (29) 
0

>  <ligand_id>  (29) 
7

>  <original_smiles>  (29) 
CCn1cnc2c1c(=O)nc(-c1cocn1)n2C

>  <smiles>  (29) 
[H]c1nc(-c2nc(=O)c3c(nc([H])n3C([H])([H])C([H])([H])[H])n2C([H])([H])[H])c([H])o1

$$$$
7:0:2
     RDKit          3D

 29 31  0  0  1  0  0  0  0  0999 V2000
   -4.1870    3.3814    9.1608 C   0  0  0  0  0  0  0  0  0  0  0  0
   -2.7127    3.4650    9.5733 C   0  0  0  0  0  0  0  0  0  0  0  0
   -1.8846    4.0353    8.5238 N   0  0  0  0  0  0  0  0  0  0  0  0
   -1.3185    5.2576    8.5159 C   0  0  0  0  0  0  0  0  0  0  0  0
   -0.5871    5.5375    7.4370 N   0  0  0  0  0  0  0  0  0  0  0  0
   -0.6839    4.3695    6.6865 C   0  0  0  0  0  0  0  0  0  0  0  0
   -1.4730    3.4632    7.3225 C   0  0  0  0  0  0  0  0  0  0  0  0
   -1.7625    2.1340    6.7351 C   0  0  0  0  0  0  0  0  0  0  0  0
   -2.5115    1.3419    7.2980 O   0  0  0  0  0  0  0  0  0  0  0  0
   -1.1190    1.8452    5.5190 N   0  0  0  0  0  0  0  0  0  0  0  0
   -0.3324    2.7176    4.9335 C   0  0  0  0  0  0  0  0  0  0  0  0
    0.3515    2.2913    3.6913 C   0  0  0  0  0  0  0  0  0  0  0  0
    1.6145    2.5818    3.2363 C   0  0  0  0  0  0  0  0  0  0  0  0
    1.8235    1.9758    2.0306 O   0  0  0  0  0  0  0  0  0  0  0  0
    0.6550    1.3232    1.7881 C   0  0  0  0  0  0  0  0  0  0  0  0
   -0.2388    1.4357    2.7668 N   0  0  0  0  0  0  0  0  0  0  0  0
   -0.1391    4.0212    5.4420 N   0  0  0  0  0  0  0  0  0  0  0  0
    0.5898    5.0674    4.7325 C   0  0  0  0  0  0  0  0  0  0  0  0
   -4.7910    2.9598    9.9687 H   0  0  0  0  0  0  0  0  0  0  0  0
   -4.3381    2.7557    8.2828 H   0  0  0  0  0  0  0  0  0  0  0  0
   -4.5764    4.3687    8.9019 H   0  0  0  0  0  0  0  0  0  0  0  0
   -2.6248    4.0903   10.4610 H   0  0  0  0  0  0  0  0  0  0  0  0
   -2.3207    2.4850    9.8458 H   0  0  0  0  0  0  0  0  0  0  0  0
   -1.4486    5.9697    9.3212 H   0  0  0  0  0  0  0  0  0  0  0  0
    2.4110    3.1950    3.6271 H   0  0  0  0  0  0  0  0  0  0  0  0
    0.5002    0.7310    0.8956 H   0  0  0  0  0  0  0  0  0  0  0  0
    0.4150    5.0110    3.6567 H   0  0  0  0  0  0  0  0  0  0  0  0
    1.6584    4.9581    4.9130 H   0  0  0  0  0  0  0  0  0  0  0  0
    0.3011    6.0667    5.0527 H   0  0  0  0  0  0  0  0  0  0  0  0
  1  2  1  0
  1 19  1  0
  1 20  1  0
  1 21  1  0
  2  3  1  0
  2 22  1  0
  2 23  1  0
  3  7  1  0
  3  4  1  0
  4  5  2  0
  4 24  1  0
  5  6  1  0
  6 17  1  0
  6  7  2  0
  7  8  1  0
  8  9  2  0
  8 10  1  0
 10 11  2  0
 11 12  1  0
 11 17  1  0
 12 16  1  0
 12 13  2  0
 13 14  1  0
 13 25  1  0
 14 15  1  0
 15 16  2  0
 15 26  1  0
 17 18  1  0
 18 27  1  0
 18 28  1  0
 18 29  1  0
M  END
>  <i_m_ct_stereo_status>  (30) 
1

>  <s_m_source_file>  (30) 
/var/tmp/pbs.5076255.sched01/tmps52fw2z9/0bkrl5082.sdf

>  <i_m_source_file_index>  (30) 
10

>  <i_lp_mmshare_version>  (30) 
48012

>  <i_f3d_flags>  (30) 
0

>  <s_epik_input>  (30) 
W0NIM11bQ0gyXW4oW2NIXW4xKWMoYzEyKWMoPU8pbmMobjJbQ0gzXSktYzNbY0hdb1tjSF1uMw==

>  <s_epik_cmdline>  (30) 
J2VwaWtfcHl0aG9uJywgJy1waHQnLCAnMi4wJywgJy1waCcsICc3LjAnLCAnLXRuJywgJzgnLCAnLW1hJywgJzIwMCcsICctaW1hZScsICc8aW5maWxlLm1hZT4nLCAnLW9tYWUnLCAnPG91dGZpbGUubWFlPic=

>  <r_lp_tautomer_probability>  (30) 
1

>  <r_epik_Ionization_Penalty>  (30) 
7.6988e-05

>  <r_epik_Ionization_Penalty_Charging>  (30) 
1.95329e-09

>  <r_epik_Ionization_Penalty_Neutral>  (30) 
7.69861e-05

>  <r_epik_State_Penalty>  (30) 
-0

>  <r_epik_Charging_Adjusted_Penalty>  (30) 
1.95329e-09

>  <i_epik_Tot_Q>  (30) 
0

>  <i_epik_Tot_abs_Q>  (30) 
0

>  <s_lp_Force_Field>  (30) 
OPLS3e

>  <r_lp_Energy>  (30) 
29.0864

>  <b_lp_Chiralities_Consistent>  (30) 
1

>  <s_lp_Variant>  (30) 
7:0-1

>  <s_i_glide_gridfile>  (30) 
pfpi4k_grid

>  <i_i_glide_lignum>  (30) 
10

>  <i_i_glide_rotatable_bonds>  (30) 
2

>  <r_i_docking_score>  (30) 
-3.09445

>  <r_i_glide_ligand_efficiency>  (30) 
-0.171914

>  <r_i_glide_ligand_efficiency_sa>  (30) 
-0.450542

>  <r_i_glide_ligand_efficiency_ln>  (30) 
-0.795414

>  <r_i_glide_gscore>  (30) 
-3.09445

>  <r_i_glide_lipo>  (30) 
-0.0980067

>  <r_i_glide_hbond>  (30) 
-0.16

>  <r_i_glide_metal>  (30) 
-0

>  <r_i_glide_rewards>  (30) 
-1.73702

>  <r_i_glide_evdw>  (30) 
-20.7357

>  <r_i_glide_ecoul>  (30) 
-2.05082

>  <r_i_glide_erotb>  (30) 
0.289375

>  <r_i_glide_esite>  (30) 
-0.0443944

>  <r_i_glide_emodel>  (30) 
-27.9311

>  <r_i_glide_energy>  (30) 
-22.7866

>  <r_i_glide_einternal>  (30) 
0.139426

>  <r_i_glide_intrahb_reward>  (30) 
-0

>  <i_i_glide_confnum>  (30) 
3

>  <i_i_glide_posenum>  (30) 
35

>  <r_i_glide_eff_state_penalty>  (30) 
0

>  <ligand_id>  (30) 
7

>  <original_smiles>  (30) 
CCn1cnc2c1c(=O)nc(-c1cocn1)n2C

>  <smiles>  (30) 
[H]c1nc(-c2nc(=O)c3c(nc([H])n3C([H])([H])C([H])([H])[H])n2C([H])([H])[H])c([H])o1

$$$$
8:0:0
     RDKit          3D

 19 21  0  0  1  0  0  0  0  0999 V2000
   -6.9489   -4.5713   -3.9742 C   0  0  0  0  0  0  0  0  0  0  0  0
   -7.5763   -4.9822   -5.2641 C   0  0  0  0  0  0  0  0  0  0  0  0
   -8.8757   -3.9725   -5.8607 S   0  0  0  0  0  0  0  0  0  0  0  0
   -9.1801   -4.8334   -7.2733 N   0  0  0  0  0  0  0  0  0  0  0  0
   -8.3512   -5.8574   -7.2820 C   0  0  0  0  0  0  0  0  0  0  0  0
   -8.2735   -6.8242   -8.2523 N   0  0  0  0  0  0  0  0  0  0  0  0
   -7.3937   -7.8676   -8.2198 C   0  0  0  0  0  0  0  0  0  0  0  0
   -6.5313   -7.9324   -7.1322 N   0  0  0  0  0  0  0  0  0  0  0  0
   -5.5913   -8.8819   -6.9448 N   0  0  0  0  0  0  0  0  0  0  0  0
   -4.9940   -8.5664   -5.7779 C   0  0  0  0  0  0  0  0  0  0  0  0
   -5.5095   -7.3718   -5.1482 C   0  0  0  0  0  0  0  0  0  0  0  0
   -6.4953   -7.0718   -6.1222 C   0  0  0  0  0  0  0  0  0  0  0  0
   -7.4445   -5.9868   -6.1991 C   0  0  0  0  0  0  0  0  0  0  0  0
   -6.1627   -5.2236   -3.6275 H   0  0  0  0  0  0  0  0  0  0  0  0
   -7.7005   -4.5288   -3.1855 H   0  0  0  0  0  0  0  0  0  0  0  0
   -6.5383   -3.5624   -4.0575 H   0  0  0  0  0  0  0  0  0  0  0  0
   -7.3576   -8.6129   -9.0078 H   0  0  0  0  0  0  0  0  0  0  0  0
   -4.2029   -9.2422   -5.4604 H   0  0  0  0  0  0  0  0  0  0  0  0
   -5.2573   -6.8560   -4.2316 H   0  0  0  0  0  0  0  0  0  0  0  0
  1  2  1  0
  1 14  1  0
  1 15  1  0
  1 16  1  0
  2 13  2  0
  2  3  1  0
  3  4  1  0
  4  5  2  0
  5 13  1  0
  5  6  1  0
  6  7  2  0
  7  8  1  0
  7 17  1  0
  8 12  1  0
  8  9  1  0
  9 10  2  0
 10 11  1  0
 10 18  1  0
 11 12  2  0
 11 19  1  0
 12 13  1  0
M  END
>  <i_m_ct_stereo_status>  (31) 
1

>  <s_m_source_file>  (31) 
/var/tmp/pbs.5076255.sched01/tmps52fw2z9/0bkrl5082.sdf

>  <i_m_source_file_index>  (31) 
11

>  <i_lp_mmshare_version>  (31) 
48012

>  <i_f3d_flags>  (31) 
0

>  <s_epik_input>  (31) 
bjFzYyhbQ0gzXSljKGMxMiljM24oW2NIXW4yKW5bY0hdW2NIXTM=

>  <s_epik_cmdline>  (31) 
J2VwaWtfcHl0aG9uJywgJy1waHQnLCAnMi4wJywgJy1waCcsICc3LjAnLCAnLXRuJywgJzgnLCAnLW1hJywgJzIwMCcsICctaW1hZScsICc8aW5maWxlLm1hZT4nLCAnLW9tYWUnLCAnPG91dGZpbGUubWFlPic=

>  <r_lp_tautomer_probability>  (31) 
1

>  <r_epik_Ionization_Penalty>  (31) 
5.076e-10

>  <r_epik_Ionization_Penalty_Charging>  (31) 
0

>  <r_epik_Ionization_Penalty_Neutral>  (31) 
5.076e-10

>  <r_epik_State_Penalty>  (31) 
-0

>  <r_epik_Charging_Adjusted_Penalty>  (31) 
0

>  <i_epik_Tot_Q>  (31) 
0

>  <i_epik_Tot_abs_Q>  (31) 
0

>  <s_lp_Force_Field>  (31) 
OPLS3e

>  <r_lp_Energy>  (31) 
16.1407

>  <b_lp_Chiralities_Consistent>  (31) 
1

>  <s_lp_Variant>  (31) 
8:0-1

>  <s_i_glide_gridfile>  (31) 
pfpi4k_grid

>  <i_i_glide_lignum>  (31) 
11

>  <i_i_glide_rotatable_bonds>  (31) 
0

>  <r_i_docking_score>  (31) 
-6.91684

>  <r_i_glide_ligand_efficiency>  (31) 
-0.532065

>  <r_i_glide_ligand_efficiency_sa>  (31) 
-1.25106

>  <r_i_glide_ligand_efficiency_ln>  (31) 
-1.94024

>  <r_i_glide_gscore>  (31) 
-6.91684

>  <r_i_glide_lipo>  (31) 
-2.09401

>  <r_i_glide_hbond>  (31) 
0

>  <r_i_glide_metal>  (31) 
-0

>  <r_i_glide_rewards>  (31) 
-3.25636

>  <r_i_glide_evdw>  (31) 
-27.2089

>  <r_i_glide_ecoul>  (31) 
-1.37349

>  <r_i_glide_erotb>  (31) 
0

>  <r_i_glide_esite>  (31) 
0

>  <r_i_glide_emodel>  (31) 
-40.69

>  <r_i_glide_energy>  (31) 
-28.5824

>  <r_i_glide_einternal>  (31) 
0

>  <r_i_glide_intrahb_reward>  (31) 
-0

>  <i_i_glide_confnum>  (31) 
2

>  <i_i_glide_posenum>  (31) 
1

>  <r_i_glide_eff_state_penalty>  (31) 
0

>  <ligand_id>  (31) 
8

>  <original_smiles>  (31) 
Cc1snc2ncn3nccc3c12

>  <smiles>  (31) 
[H]c1nn2c([H])nc3nsc(C([H])([H])[H])c3c2c1[H]

$$$$
8:0:1
     RDKit          3D

 19 21  0  0  1  0  0  0  0  0999 V2000
   -6.1004   -6.0998   -4.0677 C   0  0  0  0  0  0  0  0  0  0  0  0
   -6.5109   -6.6779   -5.3631 C   0  0  0  0  0  0  0  0  0  0  0  0
   -5.6535   -8.1198   -5.8644 S   0  0  0  0  0  0  0  0  0  0  0  0
   -6.4614   -8.3497   -7.3245 N   0  0  0  0  0  0  0  0  0  0  0  0
   -7.3412   -7.3834   -7.4341 C   0  0  0  0  0  0  0  0  0  0  0  0
   -8.2041   -7.1825   -8.4823 N   0  0  0  0  0  0  0  0  0  0  0  0
   -9.0925   -6.1424   -8.5516 C   0  0  0  0  0  0  0  0  0  0  0  0
   -9.0922   -5.2457   -7.4856 N   0  0  0  0  0  0  0  0  0  0  0  0
   -9.8914   -4.1581   -7.3863 N   0  0  0  0  0  0  0  0  0  0  0  0
   -9.5732   -3.5915   -6.1979 C   0  0  0  0  0  0  0  0  0  0  0  0
   -8.5263   -4.2729   -5.4700 C   0  0  0  0  0  0  0  0  0  0  0  0
   -8.3214   -5.3066   -6.4084 C   0  0  0  0  0  0  0  0  0  0  0  0
   -7.4023   -6.4332   -6.3858 C   0  0  0  0  0  0  0  0  0  0  0  0
   -6.6299   -5.2036   -3.7712 H   0  0  0  0  0  0  0  0  0  0  0  0
   -5.0365   -5.8663   -4.0939 H   0  0  0  0  0  0  0  0  0  0  0  0
   -6.2074   -6.8330   -3.2658 H   0  0  0  0  0  0  0  0  0  0  0  0
   -9.7661   -6.0152   -9.3920 H   0  0  0  0  0  0  0  0  0  0  0  0
  -10.1420   -2.7032   -5.9624 H   0  0  0  0  0  0  0  0  0  0  0  0
   -8.0391   -4.0890   -4.5140 H   0  0  0  0  0  0  0  0  0  0  0  0
  1  2  1  0
  1 14  1  0
  1 15  1  0
  1 16  1  0
  2 13  2  0
  2  3  1  0
  3  4  1  0
  4  5  2  0
  5 13  1  0
  5  6  1  0
  6  7  2  0
  7  8  1  0
  7 17  1  0
  8 12  1  0
  8  9  1  0
  9 10  2  0
 10 11  1  0
 10 18  1  0
 11 12  2  0
 11 19  1  0
 12 13  1  0
M  END
>  <i_m_ct_stereo_status>  (32) 
1

>  <s_m_source_file>  (32) 
/var/tmp/pbs.5076255.sched01/tmps52fw2z9/0bkrl5082.sdf

>  <i_m_source_file_index>  (32) 
11

>  <i_lp_mmshare_version>  (32) 
48012

>  <i_f3d_flags>  (32) 
0

>  <s_epik_input>  (32) 
bjFzYyhbQ0gzXSljKGMxMiljM24oW2NIXW4yKW5bY0hdW2NIXTM=

>  <s_epik_cmdline>  (32) 
J2VwaWtfcHl0aG9uJywgJy1waHQnLCAnMi4wJywgJy1waCcsICc3LjAnLCAnLXRuJywgJzgnLCAnLW1hJywgJzIwMCcsICctaW1hZScsICc8aW5maWxlLm1hZT4nLCAnLW9tYWUnLCAnPG91dGZpbGUubWFlPic=

>  <r_lp_tautomer_probability>  (32) 
1

>  <r_epik_Ionization_Penalty>  (32) 
5.076e-10

>  <r_epik_Ionization_Penalty_Charging>  (32) 
0

>  <r_epik_Ionization_Penalty_Neutral>  (32) 
5.076e-10

>  <r_epik_State_Penalty>  (32) 
-0

>  <r_epik_Charging_Adjusted_Penalty>  (32) 
0

>  <i_epik_Tot_Q>  (32) 
0

>  <i_epik_Tot_abs_Q>  (32) 
0

>  <s_lp_Force_Field>  (32) 
OPLS3e

>  <r_lp_Energy>  (32) 
16.1407

>  <b_lp_Chiralities_Consistent>  (32) 
1

>  <s_lp_Variant>  (32) 
8:0-1

>  <s_i_glide_gridfile>  (32) 
pfpi4k_grid

>  <i_i_glide_lignum>  (32) 
11

>  <i_i_glide_rotatable_bonds>  (32) 
0

>  <r_i_docking_score>  (32) 
-6.44533

>  <r_i_glide_ligand_efficiency>  (32) 
-0.495794

>  <r_i_glide_ligand_efficiency_sa>  (32) 
-1.16578

>  <r_i_glide_ligand_efficiency_ln>  (32) 
-1.80797

>  <r_i_glide_gscore>  (32) 
-6.44533

>  <r_i_glide_lipo>  (32) 
-1.99285

>  <r_i_glide_hbond>  (32) 
0

>  <r_i_glide_metal>  (32) 
-0

>  <r_i_glide_rewards>  (32) 
-2.97807

>  <r_i_glide_evdw>  (32) 
-26.2905

>  <r_i_glide_ecoul>  (32) 
-1.0659

>  <r_i_glide_erotb>  (32) 
0

>  <r_i_glide_esite>  (32) 
0

>  <r_i_glide_emodel>  (32) 
-38.6263

>  <r_i_glide_energy>  (32) 
-27.3564

>  <r_i_glide_einternal>  (32) 
0

>  <r_i_glide_intrahb_reward>  (32) 
-0

>  <i_i_glide_confnum>  (32) 
1

>  <i_i_glide_posenum>  (32) 
12

>  <r_i_glide_eff_state_penalty>  (32) 
0

>  <ligand_id>  (32) 
8

>  <original_smiles>  (32) 
Cc1snc2ncn3nccc3c12

>  <smiles>  (32) 
[H]c1nn2c([H])nc3nsc(C([H])([H])[H])c3c2c1[H]

$$$$
8:0:2
     RDKit          3D

 19 21  0  0  1  0  0  0  0  0999 V2000
   -6.6160   -4.5854   -3.9144 C   0  0  0  0  0  0  0  0  0  0  0  0
   -6.7594   -5.5813   -5.0097 C   0  0  0  0  0  0  0  0  0  0  0  0
   -5.5532   -6.8385   -5.0864 S   0  0  0  0  0  0  0  0  0  0  0  0
   -6.1687   -7.6393   -6.4335 N   0  0  0  0  0  0  0  0  0  0  0  0
   -7.2467   -6.9840   -6.8079 C   0  0  0  0  0  0  0  0  0  0  0  0
   -8.0511   -7.2963   -7.8745 N   0  0  0  0  0  0  0  0  0  0  0  0
   -9.1556   -6.5770   -8.2275 C   0  0  0  0  0  0  0  0  0  0  0  0
   -9.4575   -5.4673   -7.4511 N   0  0  0  0  0  0  0  0  0  0  0  0
  -10.5114   -4.6563   -7.6482 N   0  0  0  0  0  0  0  0  0  0  0  0
  -10.4363   -3.7249   -6.6701 C   0  0  0  0  0  0  0  0  0  0  0  0
   -9.3127   -3.8877   -5.7806 C   0  0  0  0  0  0  0  0  0  0  0  0
   -8.7734   -5.0458   -6.3957 C   0  0  0  0  0  0  0  0  0  0  0  0
   -7.6152   -5.8386   -6.0591 C   0  0  0  0  0  0  0  0  0  0  0  0
   -7.3911   -3.8445   -3.8947 H   0  0  0  0  0  0  0  0  0  0  0  0
   -5.6565   -4.0661   -3.9902 H   0  0  0  0  0  0  0  0  0  0  0  0
   -6.6167   -5.0876   -2.9430 H   0  0  0  0  0  0  0  0  0  0  0  0
   -9.7827   -6.8581   -9.0709 H   0  0  0  0  0  0  0  0  0  0  0  0
  -11.2284   -2.9837   -6.6680 H   0  0  0  0  0  0  0  0  0  0  0  0
   -8.9758   -3.3356   -4.9115 H   0  0  0  0  0  0  0  0  0  0  0  0
  1  2  1  0
  1 14  1  0
  1 15  1  0
  1 16  1  0
  2 13  2  0
  2  3  1  0
  3  4  1  0
  4  5  2  0
  5 13  1  0
  5  6  1  0
  6  7  2  0
  7  8  1  0
  7 17  1  0
  8 12  1  0
  8  9  1  0
  9 10  2  0
 10 11  1  0
 10 18  1  0
 11 12  2  0
 11 19  1  0
 12 13  1  0
M  END
>  <i_m_ct_stereo_status>  (33) 
1

>  <s_m_source_file>  (33) 
/var/tmp/pbs.5076255.sched01/tmps52fw2z9/0bkrl5082.sdf

>  <i_m_source_file_index>  (33) 
11

>  <i_lp_mmshare_version>  (33) 
48012

>  <i_f3d_flags>  (33) 
0

>  <s_epik_input>  (33) 
bjFzYyhbQ0gzXSljKGMxMiljM24oW2NIXW4yKW5bY0hdW2NIXTM=

>  <s_epik_cmdline>  (33) 
J2VwaWtfcHl0aG9uJywgJy1waHQnLCAnMi4wJywgJy1waCcsICc3LjAnLCAnLXRuJywgJzgnLCAnLW1hJywgJzIwMCcsICctaW1hZScsICc8aW5maWxlLm1hZT4nLCAnLW9tYWUnLCAnPG91dGZpbGUubWFlPic=

>  <r_lp_tautomer_probability>  (33) 
1

>  <r_epik_Ionization_Penalty>  (33) 
5.076e-10

>  <r_epik_Ionization_Penalty_Charging>  (33) 
0

>  <r_epik_Ionization_Penalty_Neutral>  (33) 
5.076e-10

>  <r_epik_State_Penalty>  (33) 
-0

>  <r_epik_Charging_Adjusted_Penalty>  (33) 
0

>  <i_epik_Tot_Q>  (33) 
0

>  <i_epik_Tot_abs_Q>  (33) 
0

>  <s_lp_Force_Field>  (33) 
OPLS3e

>  <r_lp_Energy>  (33) 
16.1407

>  <b_lp_Chiralities_Consistent>  (33) 
1

>  <s_lp_Variant>  (33) 
8:0-1

>  <s_i_glide_gridfile>  (33) 
pfpi4k_grid

>  <i_i_glide_lignum>  (33) 
11

>  <i_i_glide_rotatable_bonds>  (33) 
0

>  <r_i_docking_score>  (33) 
-6.27985

>  <r_i_glide_ligand_efficiency>  (33) 
-0.483065

>  <r_i_glide_ligand_efficiency_sa>  (33) 
-1.13585

>  <r_i_glide_ligand_efficiency_ln>  (33) 
-1.76155

>  <r_i_glide_gscore>  (33) 
-6.27985

>  <r_i_glide_lipo>  (33) 
-1.81303

>  <r_i_glide_hbond>  (33) 
0

>  <r_i_glide_metal>  (33) 
-0

>  <r_i_glide_rewards>  (33) 
-3.00212

>  <r_i_glide_evdw>  (33) 
-26.7447

>  <r_i_glide_ecoul>  (33) 
-0.849754

>  <r_i_glide_erotb>  (33) 
0

>  <r_i_glide_esite>  (33) 
0

>  <r_i_glide_emodel>  (33) 
-38.5835

>  <r_i_glide_energy>  (33) 
-27.5944

>  <r_i_glide_einternal>  (33) 
0

>  <r_i_glide_intrahb_reward>  (33) 
-0

>  <i_i_glide_confnum>  (33) 
1

>  <i_i_glide_posenum>  (33) 
15

>  <r_i_glide_eff_state_penalty>  (33) 
0

>  <ligand_id>  (33) 
8

>  <original_smiles>  (33) 
Cc1snc2ncn3nccc3c12

>  <smiles>  (33) 
[H]c1nn2c([H])nc3nsc(C([H])([H])[H])c3c2c1[H]

$$$$
9:0:0
     RDKit          3D

 29 31  0  0  1  0  0  0  0  0999 V2000
   -1.5203   -8.7813    2.3775 C   0  0  0  0  0  0  0  0  0  0  0  0
   -0.3782   -8.0228    3.0790 C   0  0  0  0  0  0  0  0  0  0  0  0
   -0.7012   -7.9460    4.5795 C   0  0  0  0  0  0  0  0  0  0  0  0
    0.8255   -8.7096    2.8920 O   0  0  0  0  0  0  0  0  0  0  0  0
    1.5157   -7.8890    1.9632 C   0  0  2  0  0  0  0  0  0  0  0  0
    3.0594   -7.8922    1.9178 C   0  0  0  0  0  0  0  0  0  0  0  0
    3.4629   -6.8873    0.9695 O   0  0  0  0  0  0  0  0  0  0  0  0
    2.9319   -5.6203    1.2453 C   0  0  1  0  0  0  0  0  0  0  0  0
    3.3927   -4.6601    0.1502 C   0  0  0  0  0  0  0  0  0  0  0  0
    2.5927   -3.8714   -0.5854 N   0  0  0  0  0  0  0  0  0  0  0  0
    3.3134   -3.0590   -1.4880 C   0  0  0  0  0  0  0  0  0  0  0  0
    4.6656   -3.2512   -1.4415 C   0  0  0  0  0  0  0  0  0  0  0  0
    5.1033   -4.4501   -0.2660 S   0  0  0  0  0  0  0  0  0  0  0  0
    1.5253   -5.6409    1.3365 O   0  0  0  0  0  0  0  0  0  0  0  0
    1.1032   -6.5080    2.3641 C   0  0  1  0  0  0  0  0  0  0  0  0
   -0.2587   -6.7148    2.5508 O   0  0  0  0  0  0  0  0  0  0  0  0
   -1.3684   -8.9202    1.3020 H   0  0  0  0  0  0  0  0  0  0  0  0
   -2.4680   -8.2760    2.5611 H   0  0  0  0  0  0  0  0  0  0  0  0
   -1.5835   -9.7612    2.8455 H   0  0  0  0  0  0  0  0  0  0  0  0
    0.0698   -7.4584    5.1837 H   0  0  0  0  0  0  0  0  0  0  0  0
   -0.8265   -8.9662    4.9308 H   0  0  0  0  0  0  0  0  0  0  0  0
   -1.6589   -7.4480    4.7177 H   0  0  0  0  0  0  0  0  0  0  0  0
    1.1040   -8.0959    0.9673 H   0  0  0  0  0  0  0  0  0  0  0  0
    3.4922   -7.6849    2.9141 H   0  0  0  0  0  0  0  0  0  0  0  0
    3.4373   -8.8500    1.5347 H   0  0  0  0  0  0  0  0  0  0  0  0
    3.3403   -5.2924    2.2025 H   0  0  0  0  0  0  0  0  0  0  0  0
    2.7888   -2.3778   -2.1275 H   0  0  0  0  0  0  0  0  0  0  0  0
    5.4090   -2.7511   -2.0473 H   0  0  0  0  0  0  0  0  0  0  0  0
    1.5452   -6.2235    3.3232 H   0  0  0  0  0  0  0  0  0  0  0  0
  1  2  1  0
  1 17  1  0
  1 18  1  0
  1 19  1  0
  2 16  1  0
  2  3  1  0
  2  4  1  0
  3 20  1  0
  3 21  1  0
  3 22  1  0
  4  5  1  0
  5 15  1  0
  5  6  1  0
  5 23  1  6
  6  7  1  0
  6 24  1  0
  6 25  1  0
  7  8  1  0
  8  9  1  0
  8 14  1  0
  8 26  1  1
  9 13  1  0
  9 10  2  0
 10 11  1  0
 11 12  2  0
 11 27  1  0
 12 13  1  0
 12 28  1  0
 14 15  1  0
 15 16  1  0
 15 29  1  1
M  END
>  <i_m_ct_stereo_status>  (34) 
1

>  <s_m_source_file>  (34) 
/var/tmp/pbs.5076255.sched01/tmps52fw2z9/0bkrl5082.sdf

>  <i_m_source_file_index>  (34) 
12

>  <i_lp_mmshare_version>  (34) 
48012

>  <i_f3d_flags>  (34) 
0

>  <s_epik_input>  (34) 
W0NIM11DKE8xKShbQ0gzXSlPW0NAQEhdKFtDQEhdMTIpT1tDQEBIXShPW0NIMl0yKWMzbltjSF1bY0hdczM=

>  <s_epik_cmdline>  (34) 
J2VwaWtfcHl0aG9uJywgJy1waHQnLCAnMi4wJywgJy1waCcsICc3LjAnLCAnLXRuJywgJzgnLCAnLW1hJywgJzIwMCcsICctaW1hZScsICc8aW5maWxlLm1hZT4nLCAnLW9tYWUnLCAnPG91dGZpbGUubWFlPic=

>  <r_lp_tautomer_probability>  (34) 
1

>  <r_epik_Ionization_Penalty>  (34) 
0.000102107

>  <r_epik_Ionization_Penalty_Charging>  (34) 
0

>  <r_epik_Ionization_Penalty_Neutral>  (34) 
0.000102107

>  <r_epik_State_Penalty>  (34) 
-0

>  <r_epik_Charging_Adjusted_Penalty>  (34) 
0

>  <i_epik_Tot_Q>  (34) 
0

>  <i_epik_Tot_abs_Q>  (34) 
0

>  <s_epik_Chemistry_Notes>  (34) 
This compound contains an acetal/aminal-like group ( X-CH(R)-Y where X, Y are N, S, or O) that may be acid/base labile, releasing an aldehyde.

>  <s_lp_Force_Field>  (34) 
OPLS3e

>  <r_lp_Energy>  (34) 
16.2326

>  <b_lp_Chiralities_Consistent>  (34) 
1

>  <s_lp_Variant>  (34) 
9:0-1

>  <s_i_glide_gridfile>  (34) 
pfpi4k_grid

>  <i_i_glide_lignum>  (34) 
12

>  <i_i_glide_rotatable_bonds>  (34) 
1

>  <r_i_docking_score>  (34) 
-3.55352

>  <r_i_glide_ligand_efficiency>  (34) 
-0.222095

>  <r_i_glide_ligand_efficiency_sa>  (34) 
-0.559645

>  <r_i_glide_ligand_efficiency_ln>  (34) 
-0.941933

>  <r_i_glide_gscore>  (34) 
-3.55352

>  <r_i_glide_lipo>  (34) 
-0.264387

>  <r_i_glide_hbond>  (34) 
-0.280695

>  <r_i_glide_metal>  (34) 
-0

>  <r_i_glide_rewards>  (34) 
-1.75036

>  <r_i_glide_evdw>  (34) 
-22.0785

>  <r_i_glide_ecoul>  (34) 
-2.29451

>  <r_i_glide_erotb>  (34) 
0.293366

>  <r_i_glide_esite>  (34) 
-0.103349

>  <r_i_glide_emodel>  (34) 
-30.4943

>  <r_i_glide_energy>  (34) 
-24.373

>  <r_i_glide_einternal>  (34) 
0.0891258

>  <r_i_glide_intrahb_reward>  (34) 
-0

>  <i_i_glide_confnum>  (34) 
2

>  <i_i_glide_posenum>  (34) 
21

>  <r_i_glide_eff_state_penalty>  (34) 
0

>  <ligand_id>  (34) 
9

>  <original_smiles>  (34) 
CC1(C)OC2COC(c3nccs3)OC2O1

>  <smiles>  (34) 
[H]c1nc(C2([H])OC([H])([H])C3([H])OC(C([H])([H])[H])(C([H])([H])[H])OC3([H])O2)sc1[H]

$$$$
9:0:1
     RDKit          3D

 29 31  0  0  1  0  0  0  0  0999 V2000
    3.6567   -1.7295   -0.1476 C   0  0  0  0  0  0  0  0  0  0  0  0
    3.9739   -3.2221   -0.3766 C   0  0  0  0  0  0  0  0  0  0  0  0
    4.8775   -3.3892   -1.6179 C   0  0  0  0  0  0  0  0  0  0  0  0
    4.6525   -3.7259    0.7613 O   0  0  0  0  0  0  0  0  0  0  0  0
    3.6519   -4.4970    1.3757 C   0  0  2  0  0  0  0  0  0  0  0  0
    4.0556   -5.7118    2.2476 C   0  0  0  0  0  0  0  0  0  0  0  0
    2.8386   -6.3609    2.6349 O   0  0  0  0  0  0  0  0  0  0  0  0
    2.0575   -6.7599    1.5357 C   0  0  1  0  0  0  0  0  0  0  0  0
    0.7927   -7.4105    2.0754 C   0  0  0  0  0  0  0  0  0  0  0  0
   -0.4399   -6.8760    2.0740 N   0  0  0  0  0  0  0  0  0  0  0  0
   -1.3942   -7.7638    2.6122 C   0  0  0  0  0  0  0  0  0  0  0  0
   -0.8517   -8.9410    3.0599 C   0  0  0  0  0  0  0  0  0  0  0  0
    0.8651   -8.9849    2.8450 S   0  0  0  0  0  0  0  0  0  0  0  0
    1.7228   -5.6689    0.6958 O   0  0  0  0  0  0  0  0  0  0  0  0
    2.9028   -5.0711    0.2027 C   0  0  1  0  0  0  0  0  0  0  0  0
    2.7838   -3.9387   -0.5661 O   0  0  0  0  0  0  0  0  0  0  0  0
    3.0344   -1.5260    0.7182 H   0  0  0  0  0  0  0  0  0  0  0  0
    3.1806   -1.3493   -1.0517 H   0  0  0  0  0  0  0  0  0  0  0  0
    4.6102   -1.2370   -0.0419 H   0  0  0  0  0  0  0  0  0  0  0  0
    5.1770   -4.4089   -1.8298 H   0  0  0  0  0  0  0  0  0  0  0  0
    5.7471   -2.7837   -1.4303 H   0  0  0  0  0  0  0  0  0  0  0  0
    4.3540   -2.9596   -2.4698 H   0  0  0  0  0  0  0  0  0  0  0  0
    2.9729   -3.8259    1.9024 H   0  0  0  0  0  0  0  0  0  0  0  0
    4.7210   -6.3972    1.6981 H   0  0  0  0  0  0  0  0  0  0  0  0
    4.5087   -5.3696    3.1777 H   0  0  0  0  0  0  0  0  0  0  0  0
    2.6684   -7.4596    0.9508 H   0  0  0  0  0  0  0  0  0  0  0  0
   -2.4286   -7.5180    2.6575 H   0  0  0  0  0  0  0  0  0  0  0  0
   -1.3795   -9.7705    3.5192 H   0  0  0  0  0  0  0  0  0  0  0  0
    3.5275   -5.8182   -0.3124 H   0  0  0  0  0  0  0  0  0  0  0  0
  1  2  1  0
  1 17  1  0
  1 18  1  0
  1 19  1  0
  2 16  1  0
  2  3  1  0
  2  4  1  0
  3 20  1  0
  3 21  1  0
  3 22  1  0
  4  5  1  0
  5 15  1  0
  5  6  1  0
  5 23  1  1
  6  7  1  0
  6 24  1  0
  6 25  1  0
  7  8  1  0
  8  9  1  0
  8 14  1  0
  8 26  1  6
  9 13  1  0
  9 10  2  0
 10 11  1  0
 11 12  2  0
 11 27  1  0
 12 13  1  0
 12 28  1  0
 14 15  1  0
 15 16  1  0
 15 29  1  6
M  END
>  <i_m_ct_stereo_status>  (35) 
1

>  <s_m_source_file>  (35) 
/var/tmp/pbs.5076255.sched01/tmps52fw2z9/0bkrl5082.sdf

>  <i_m_source_file_index>  (35) 
12

>  <i_lp_mmshare_version>  (35) 
48012

>  <i_f3d_flags>  (35) 
0

>  <s_epik_input>  (35) 
W0NIM11DKE8xKShbQ0gzXSlPW0NAQEhdKFtDQEhdMTIpT1tDQEBIXShPW0NIMl0yKWMzbltjSF1bY0hdczM=

>  <s_epik_cmdline>  (35) 
J2VwaWtfcHl0aG9uJywgJy1waHQnLCAnMi4wJywgJy1waCcsICc3LjAnLCAnLXRuJywgJzgnLCAnLW1hJywgJzIwMCcsICctaW1hZScsICc8aW5maWxlLm1hZT4nLCAnLW9tYWUnLCAnPG91dGZpbGUubWFlPic=

>  <r_lp_tautomer_probability>  (35) 
1

>  <r_epik_Ionization_Penalty>  (35) 
0.000102107

>  <r_epik_Ionization_Penalty_Charging>  (35) 
0

>  <r_epik_Ionization_Penalty_Neutral>  (35) 
0.000102107

>  <r_epik_State_Penalty>  (35) 
-0

>  <r_epik_Charging_Adjusted_Penalty>  (35) 
0

>  <i_epik_Tot_Q>  (35) 
0

>  <i_epik_Tot_abs_Q>  (35) 
0

>  <s_epik_Chemistry_Notes>  (35) 
This compound contains an acetal/aminal-like group ( X-CH(R)-Y where X, Y are N, S, or O) that may be acid/base labile, releasing an aldehyde.

>  <s_lp_Force_Field>  (35) 
OPLS3e

>  <r_lp_Energy>  (35) 
16.2326

>  <b_lp_Chiralities_Consistent>  (35) 
1

>  <s_lp_Variant>  (35) 
9:0-1

>  <s_i_glide_gridfile>  (35) 
pfpi4k_grid

>  <i_i_glide_lignum>  (35) 
12

>  <i_i_glide_rotatable_bonds>  (35) 
1

>  <r_i_docking_score>  (35) 
-3.53266

>  <r_i_glide_ligand_efficiency>  (35) 
-0.220791

>  <r_i_glide_ligand_efficiency_sa>  (35) 
-0.556359

>  <r_i_glide_ligand_efficiency_ln>  (35) 
-0.936403

>  <r_i_glide_gscore>  (35) 
-3.53266

>  <r_i_glide_lipo>  (35) 
-0.0642512

>  <r_i_glide_hbond>  (35) 
-0.278341

>  <r_i_glide_metal>  (35) 
-0

>  <r_i_glide_rewards>  (35) 
-1.78709

>  <r_i_glide_evdw>  (35) 
-20.506

>  <r_i_glide_ecoul>  (35) 
-4.05768

>  <r_i_glide_erotb>  (35) 
0.293366

>  <r_i_glide_esite>  (35) 
-0.0623968

>  <r_i_glide_emodel>  (35) 
-30.5506

>  <r_i_glide_energy>  (35) 
-24.5637

>  <r_i_glide_einternal>  (35) 
0.0649909

>  <r_i_glide_intrahb_reward>  (35) 
-0

>  <i_i_glide_confnum>  (35) 
3

>  <i_i_glide_posenum>  (35) 
28

>  <r_i_glide_eff_state_penalty>  (35) 
0

>  <ligand_id>  (35) 
9

>  <original_smiles>  (35) 
CC1(C)OC2COC(c3nccs3)OC2O1

>  <smiles>  (35) 
[H]c1nc(C2([H])OC([H])([H])C3([H])OC(C([H])([H])[H])(C([H])([H])[H])OC3([H])O2)sc1[H]

$$$$
9:0:2
     RDKit          3D

 29 31  0  0  1  0  0  0  0  0999 V2000
   -1.4798   -8.7010    2.2501 C   0  0  0  0  0  0  0  0  0  0  0  0
   -0.3249   -7.9892    2.9725 C   0  0  0  0  0  0  0  0  0  0  0  0
   -0.6760   -7.8960    4.4627 C   0  0  0  0  0  0  0  0  0  0  0  0
    0.8479   -8.7310    2.8187 O   0  0  0  0  0  0  0  0  0  0  0  0
    1.5807   -7.9436    1.9091 C   0  0  2  0  0  0  0  0  0  0  0  0
    3.1240   -7.9902    1.9055 C   0  0  0  0  0  0  0  0  0  0  0  0
    3.5605   -7.0071    0.9660 O   0  0  0  0  0  0  0  0  0  0  0  0
    3.0861   -5.7247    1.2262 C   0  0  1  0  0  0  0  0  0  0  0  0
    3.6066   -4.7913    0.1440 C   0  0  0  0  0  0  0  0  0  0  0  0
    4.8906   -4.7859   -0.2994 N   0  0  0  0  0  0  0  0  0  0  0  0
    5.1496   -3.7940   -1.2588 C   0  0  0  0  0  0  0  0  0  0  0  0
    4.0673   -3.0335   -1.5588 C   0  0  0  0  0  0  0  0  0  0  0  0
    2.6622   -3.5175   -0.6452 S   0  0  0  0  0  0  0  0  0  0  0  0
    1.6704   -5.7001    1.2827 O   0  0  0  0  0  0  0  0  0  0  0  0
    1.2172   -6.5438    2.3092 C   0  0  1  0  0  0  0  0  0  0  0  0
   -0.1466   -6.6944    2.4517 O   0  0  0  0  0  0  0  0  0  0  0  0
   -1.3488   -8.8524    1.1824 H   0  0  0  0  0  0  0  0  0  0  0  0
   -2.4137   -8.1643    2.4149 H   0  0  0  0  0  0  0  0  0  0  0  0
   -1.5898   -9.6744    2.7185 H   0  0  0  0  0  0  0  0  0  0  0  0
    0.0898   -7.4439    5.0978 H   0  0  0  0  0  0  0  0  0  0  0  0
   -0.8587   -8.9104    4.8002 H   0  0  0  0  0  0  0  0  0  0  0  0
   -1.6282   -7.3743    4.5734 H   0  0  0  0  0  0  0  0  0  0  0  0
    1.1830   -8.1235    0.8984 H   0  0  0  0  0  0  0  0  0  0  0  0
    3.5485   -7.7983    2.9062 H   0  0  0  0  0  0  0  0  0  0  0  0
    3.4843   -8.9433    1.5146 H   0  0  0  0  0  0  0  0  0  0  0  0
    3.4854   -5.4211    2.1916 H   0  0  0  0  0  0  0  0  0  0  0  0
    6.1373   -3.6857   -1.7041 H   0  0  0  0  0  0  0  0  0  0  0  0
    4.0063   -2.2222   -2.2709 H   0  0  0  0  0  0  0  0  0  0  0  0
    1.6504   -6.2725    3.2836 H   0  0  0  0  0  0  0  0  0  0  0  0
  1  2  1  0
  1 17  1  0
  1 18  1  0
  1 19  1  0
  2 16  1  0
  2  3  1  0
  2  4  1  0
  3 20  1  0
  3 21  1  0
  3 22  1  0
  4  5  1  0
  5 15  1  0
  5  6  1  0
  5 23  1  6
  6  7  1  0
  6 24  1  0
  6 25  1  0
  7  8  1  0
  8  9  1  0
  8 14  1  0
  8 26  1  1
  9 13  1  0
  9 10  2  0
 10 11  1  0
 11 12  2  0
 11 27  1  0
 12 13  1  0
 12 28  1  0
 14 15  1  0
 15 16  1  0
 15 29  1  1
M  END
>  <i_m_ct_stereo_status>  (36) 
1

>  <s_m_source_file>  (36) 
/var/tmp/pbs.5076255.sched01/tmps52fw2z9/0bkrl5082.sdf

>  <i_m_source_file_index>  (36) 
12

>  <i_lp_mmshare_version>  (36) 
48012

>  <i_f3d_flags>  (36) 
0

>  <s_epik_input>  (36) 
W0NIM11DKE8xKShbQ0gzXSlPW0NAQEhdKFtDQEhdMTIpT1tDQEBIXShPW0NIMl0yKWMzbltjSF1bY0hdczM=

>  <s_epik_cmdline>  (36) 
J2VwaWtfcHl0aG9uJywgJy1waHQnLCAnMi4wJywgJy1waCcsICc3LjAnLCAnLXRuJywgJzgnLCAnLW1hJywgJzIwMCcsICctaW1hZScsICc8aW5maWxlLm1hZT4nLCAnLW9tYWUnLCAnPG91dGZpbGUubWFlPic=

>  <r_lp_tautomer_probability>  (36) 
1

>  <r_epik_Ionization_Penalty>  (36) 
0.000102107

>  <r_epik_Ionization_Penalty_Charging>  (36) 
0

>  <r_epik_Ionization_Penalty_Neutral>  (36) 
0.000102107

>  <r_epik_State_Penalty>  (36) 
-0

>  <r_epik_Charging_Adjusted_Penalty>  (36) 
0

>  <i_epik_Tot_Q>  (36) 
0

>  <i_epik_Tot_abs_Q>  (36) 
0

>  <s_epik_Chemistry_Notes>  (36) 
This compound contains an acetal/aminal-like group ( X-CH(R)-Y where X, Y are N, S, or O) that may be acid/base labile, releasing an aldehyde.

>  <s_lp_Force_Field>  (36) 
OPLS3e

>  <r_lp_Energy>  (36) 
16.2326

>  <b_lp_Chiralities_Consistent>  (36) 
1

>  <s_lp_Variant>  (36) 
9:0-1

>  <s_i_glide_gridfile>  (36) 
pfpi4k_grid

>  <i_i_glide_lignum>  (36) 
12

>  <i_i_glide_rotatable_bonds>  (36) 
1

>  <r_i_docking_score>  (36) 
-3.37786

>  <r_i_glide_ligand_efficiency>  (36) 
-0.211116

>  <r_i_glide_ligand_efficiency_sa>  (36) 
-0.53198

>  <r_i_glide_ligand_efficiency_ln>  (36) 
-0.89537

>  <r_i_glide_gscore>  (36) 
-3.37786

>  <r_i_glide_lipo>  (36) 
-0.145677

>  <r_i_glide_hbond>  (36) 
-0.258987

>  <r_i_glide_metal>  (36) 
-0

>  <r_i_glide_rewards>  (36) 
-1.75347

>  <r_i_glide_evdw>  (36) 
-21.7857

>  <r_i_glide_ecoul>  (36) 
-2.19809

>  <r_i_glide_erotb>  (36) 
0.293366

>  <r_i_glide_esite>  (36) 
-0.094097

>  <r_i_glide_emodel>  (36) 
-29.5976

>  <r_i_glide_energy>  (36) 
-23.9838

>  <r_i_glide_einternal>  (36) 
0.232268

>  <r_i_glide_intrahb_reward>  (36) 
-0

>  <i_i_glide_confnum>  (36) 
4

>  <i_i_glide_posenum>  (36) 
19

>  <r_i_glide_eff_state_penalty>  (36) 
0

>  <ligand_id>  (36) 
9

>  <original_smiles>  (36) 
CC1(C)OC2COC(c3nccs3)OC2O1

>  <smiles>  (36) 
[H]c1nc(C2([H])OC([H])([H])C3([H])OC(C([H])([H])[H])(C([H])([H])[H])OC3([H])O2)sc1[H]

$$$$
10:0:0
     RDKit          3D

 13 14  0  0  1  0  0  0  0  0999 V2000
   -0.0014   -9.7295    3.2796 C   0  0  0  0  0  0  0  0  0  0  0  0
   -1.0737   -8.8506    2.9858 C   0  0  0  0  0  0  0  0  0  0  0  0
   -0.9937   -7.6784    2.3561 N   0  0  0  0  0  0  0  0  0  0  0  0
    0.2820   -7.4043    1.9792 N   0  0  0  0  0  0  0  0  0  0  0  0
    0.6000   -6.2612    1.3119 N   0  0  0  0  0  0  0  0  0  0  0  0
    1.9174   -6.3727    1.1817 C   0  0  0  0  0  0  0  0  0  0  0  0
    2.4852   -7.5027    1.6898 N   0  0  0  0  0  0  0  0  0  0  0  0
    1.4474   -8.1619    2.1973 C   0  0  0  0  0  0  0  0  0  0  0  0
    1.2721   -9.3889    2.8846 C   0  0  0  0  0  0  0  0  0  0  0  0
   -0.1868  -10.6574    3.8151 H   0  0  0  0  0  0  0  0  0  0  0  0
   -2.0725   -9.1427    3.3024 H   0  0  0  0  0  0  0  0  0  0  0  0
    2.5018   -5.6118    0.6831 H   0  0  0  0  0  0  0  0  0  0  0  0
    2.1244  -10.0277    3.0908 H   0  0  0  0  0  0  0  0  0  0  0  0
  1  9  2  0
  1  2  1  0
  1 10  1  0
  2  3  2  0
  2 11  1  0
  3  4  1  0
  4  8  1  0
  4  5  1  0
  5  6  2  0
  6  7  1  0
  6 12  1  0
  7  8  2  0
  8  9  1  0
  9 13  1  0
M  END
>  <i_m_ct_stereo_status>  (37) 
1

>  <s_m_source_file>  (37) 
/var/tmp/pbs.5076255.sched01/tmps52fw2z9/0bkrl5082.sdf

>  <i_m_source_file_index>  (37) 
13

>  <i_lp_mmshare_version>  (37) 
48012

>  <i_f3d_flags>  (37) 
0

>  <s_epik_input>  (37) 
bjFbY0hdW2NIXVtjSF1jKG4xMiluW2NIXW4y

>  <s_epik_cmdline>  (37) 
J2VwaWtfcHl0aG9uJywgJy1waHQnLCAnMi4wJywgJy1waCcsICc3LjAnLCAnLXRuJywgJzgnLCAnLW1hJywgJzIwMCcsICctaW1hZScsICc8aW5maWxlLm1hZT4nLCAnLW9tYWUnLCAnPG91dGZpbGUubWFlPic=

>  <r_lp_tautomer_probability>  (37) 
1

>  <r_epik_Ionization_Penalty>  (37) 
1.08026e-06

>  <r_epik_Ionization_Penalty_Charging>  (37) 
0

>  <r_epik_Ionization_Penalty_Neutral>  (37) 
1.08026e-06

>  <r_epik_State_Penalty>  (37) 
-0

>  <r_epik_Charging_Adjusted_Penalty>  (37) 
0

>  <i_epik_Tot_Q>  (37) 
0

>  <i_epik_Tot_abs_Q>  (37) 
0

>  <s_lp_Force_Field>  (37) 
OPLS3e

>  <r_lp_Energy>  (37) 
14.2275

>  <b_lp_Chiralities_Consistent>  (37) 
1

>  <s_lp_Variant>  (37) 
10:0-1

>  <s_i_glide_gridfile>  (37) 
pfpi4k_grid

>  <i_i_glide_lignum>  (37) 
13

>  <i_i_glide_rotatable_bonds>  (37) 
0

>  <r_i_docking_score>  (37) 
-4.1342

>  <r_i_glide_ligand_efficiency>  (37) 
-0.459355

>  <r_i_glide_ligand_efficiency_sa>  (37) 
-0.955497

>  <r_i_glide_ligand_efficiency_ln>  (37) 
-1.29306

>  <r_i_glide_gscore>  (37) 
-4.1342

>  <r_i_glide_lipo>  (37) 
-0.0256005

>  <r_i_glide_hbond>  (37) 
-0.16

>  <r_i_glide_metal>  (37) 
-0

>  <r_i_glide_rewards>  (37) 
-2.25

>  <r_i_glide_evdw>  (37) 
-14.0704

>  <r_i_glide_ecoul>  (37) 
-5.75733

>  <r_i_glide_erotb>  (37) 
0

>  <r_i_glide_esite>  (37) 
-0.131474

>  <r_i_glide_emodel>  (37) 
-26.0356

>  <r_i_glide_energy>  (37) 
-19.8278

>  <r_i_glide_einternal>  (37) 
0

>  <r_i_glide_intrahb_reward>  (37) 
-0

>  <i_i_glide_confnum>  (37) 
1

>  <i_i_glide_posenum>  (37) 
20

>  <r_i_glide_eff_state_penalty>  (37) 
0

>  <ligand_id>  (37) 
10

>  <original_smiles>  (37) 
c1cnn2ncnc2c1

>  <smiles>  (37) 
[H]c1nc2c([H])c([H])c([H])nn2n1

$$$$
10:0:1
     RDKit          3D

 13 14  0  0  1  0  0  0  0  0999 V2000
    3.9939   -4.7103    1.2575 C   0  0  0  0  0  0  0  0  0  0  0  0
    4.1111   -5.4185    2.4832 C   0  0  0  0  0  0  0  0  0  0  0  0
    3.2365   -6.2858    2.9889 N   0  0  0  0  0  0  0  0  0  0  0  0
    2.1650   -6.4526    2.1729 N   0  0  0  0  0  0  0  0  0  0  0  0
    1.1238   -7.2625    2.5005 N   0  0  0  0  0  0  0  0  0  0  0  0
    0.3249   -7.1443    1.4450 C   0  0  0  0  0  0  0  0  0  0  0  0
    0.7225   -6.2573    0.4820 N   0  0  0  0  0  0  0  0  0  0  0  0
    1.9058   -5.8385    0.9309 C   0  0  0  0  0  0  0  0  0  0  0  0
    2.8835   -4.9170    0.4731 C   0  0  0  0  0  0  0  0  0  0  0  0
    4.7658   -4.0145    0.9412 H   0  0  0  0  0  0  0  0  0  0  0  0
    4.9955   -5.2543    3.0873 H   0  0  0  0  0  0  0  0  0  0  0  0
   -0.6095   -7.6896    1.3865 H   0  0  0  0  0  0  0  0  0  0  0  0
    2.7430   -4.3937   -0.4674 H   0  0  0  0  0  0  0  0  0  0  0  0
  1  9  2  0
  1  2  1  0
  1 10  1  0
  2  3  2  0
  2 11  1  0
  3  4  1  0
  4  8  1  0
  4  5  1  0
  5  6  2  0
  6  7  1  0
  6 12  1  0
  7  8  2  0
  8  9  1  0
  9 13  1  0
M  END
>  <i_m_ct_stereo_status>  (38) 
1

>  <s_m_source_file>  (38) 
/var/tmp/pbs.5076255.sched01/tmps52fw2z9/0bkrl5082.sdf

>  <i_m_source_file_index>  (38) 
13

>  <i_lp_mmshare_version>  (38) 
48012

>  <i_f3d_flags>  (38) 
0

>  <s_epik_input>  (38) 
bjFbY0hdW2NIXVtjSF1jKG4xMiluW2NIXW4y

>  <s_epik_cmdline>  (38) 
J2VwaWtfcHl0aG9uJywgJy1waHQnLCAnMi4wJywgJy1waCcsICc3LjAnLCAnLXRuJywgJzgnLCAnLW1hJywgJzIwMCcsICctaW1hZScsICc8aW5maWxlLm1hZT4nLCAnLW9tYWUnLCAnPG91dGZpbGUubWFlPic=

>  <r_lp_tautomer_probability>  (38) 
1

>  <r_epik_Ionization_Penalty>  (38) 
1.08026e-06

>  <r_epik_Ionization_Penalty_Charging>  (38) 
0

>  <r_epik_Ionization_Penalty_Neutral>  (38) 
1.08026e-06

>  <r_epik_State_Penalty>  (38) 
-0

>  <r_epik_Charging_Adjusted_Penalty>  (38) 
0

>  <i_epik_Tot_Q>  (38) 
0

>  <i_epik_Tot_abs_Q>  (38) 
0

>  <s_lp_Force_Field>  (38) 
OPLS3e

>  <r_lp_Energy>  (38) 
14.2275

>  <b_lp_Chiralities_Consistent>  (38) 
1

>  <s_lp_Variant>  (38) 
10:0-1

>  <s_i_glide_gridfile>  (38) 
pfpi4k_grid

>  <i_i_glide_lignum>  (38) 
13

>  <i_i_glide_rotatable_bonds>  (38) 
0

>  <r_i_docking_score>  (38) 
-3.93666

>  <r_i_glide_ligand_efficiency>  (38) 
-0.437407

>  <r_i_glide_ligand_efficiency_sa>  (38) 
-0.909844

>  <r_i_glide_ligand_efficiency_ln>  (38) 
-1.23128

>  <r_i_glide_gscore>  (38) 
-3.93666

>  <r_i_glide_lipo>  (38) 
-0.0183519

>  <r_i_glide_hbond>  (38) 
-0.229702

>  <r_i_glide_metal>  (38) 
-0

>  <r_i_glide_rewards>  (38) 
-2.25

>  <r_i_glide_evdw>  (38) 
-9.24169

>  <r_i_glide_ecoul>  (38) 
-5.40016

>  <r_i_glide_erotb>  (38) 
0

>  <r_i_glide_esite>  (38) 
-0.166502

>  <r_i_glide_emodel>  (38) 
-20.5519

>  <r_i_glide_energy>  (38) 
-14.6419

>  <r_i_glide_einternal>  (38) 
0

>  <r_i_glide_intrahb_reward>  (38) 
-0

>  <i_i_glide_confnum>  (38) 
1

>  <i_i_glide_posenum>  (38) 
13

>  <r_i_glide_eff_state_penalty>  (38) 
0

>  <ligand_id>  (38) 
10

>  <original_smiles>  (38) 
c1cnn2ncnc2c1

>  <smiles>  (38) 
[H]c1nc2c([H])c([H])c([H])nn2n1

$$$$
10:0:2
     RDKit          3D

 13 14  0  0  1  0  0  0  0  0999 V2000
    2.9996   -2.1051   -3.6478 C   0  0  0  0  0  0  0  0  0  0  0  0
    3.9254   -1.1409   -3.1803 C   0  0  0  0  0  0  0  0  0  0  0  0
    4.4374   -1.0586   -1.9540 N   0  0  0  0  0  0  0  0  0  0  0  0
    3.9284   -2.0115   -1.1302 N   0  0  0  0  0  0  0  0  0  0  0  0
    4.3026   -2.1146    0.1719 N   0  0  0  0  0  0  0  0  0  0  0  0
    3.5888   -3.1549    0.5862 C   0  0  0  0  0  0  0  0  0  0  0  0
    2.7843   -3.7523   -0.3381 N   0  0  0  0  0  0  0  0  0  0  0  0
    3.0051   -3.0289   -1.4342 C   0  0  0  0  0  0  0  0  0  0  0  0
    2.5312   -3.0569   -2.7725 C   0  0  0  0  0  0  0  0  0  0  0  0
    2.6315   -2.0833   -4.6678 H   0  0  0  0  0  0  0  0  0  0  0  0
    4.2686   -0.3841   -3.8747 H   0  0  0  0  0  0  0  0  0  0  0  0
    3.6599   -3.5084    1.6056 H   0  0  0  0  0  0  0  0  0  0  0  0
    1.8206   -3.8200   -3.0763 H   0  0  0  0  0  0  0  0  0  0  0  0
  1  9  2  0
  1  2  1  0
  1 10  1  0
  2  3  2  0
  2 11  1  0
  3  4  1  0
  4  8  1  0
  4  5  1  0
  5  6  2  0
  6  7  1  0
  6 12  1  0
  7  8  2  0
  8  9  1  0
  9 13  1  0
M  END
>  <i_m_ct_stereo_status>  (39) 
1

>  <s_m_source_file>  (39) 
/var/tmp/pbs.5076255.sched01/tmps52fw2z9/0bkrl5082.sdf

>  <i_m_source_file_index>  (39) 
13

>  <i_lp_mmshare_version>  (39) 
48012

>  <i_f3d_flags>  (39) 
0

>  <s_epik_input>  (39) 
bjFbY0hdW2NIXVtjSF1jKG4xMiluW2NIXW4y

>  <s_epik_cmdline>  (39) 
J2VwaWtfcHl0aG9uJywgJy1waHQnLCAnMi4wJywgJy1waCcsICc3LjAnLCAnLXRuJywgJzgnLCAnLW1hJywgJzIwMCcsICctaW1hZScsICc8aW5maWxlLm1hZT4nLCAnLW9tYWUnLCAnPG91dGZpbGUubWFlPic=

>  <r_lp_tautomer_probability>  (39) 
1

>  <r_epik_Ionization_Penalty>  (39) 
1.08026e-06

>  <r_epik_Ionization_Penalty_Charging>  (39) 
0

>  <r_epik_Ionization_Penalty_Neutral>  (39) 
1.08026e-06

>  <r_epik_State_Penalty>  (39) 
-0

>  <r_epik_Charging_Adjusted_Penalty>  (39) 
0

>  <i_epik_Tot_Q>  (39) 
0

>  <i_epik_Tot_abs_Q>  (39) 
0

>  <s_lp_Force_Field>  (39) 
OPLS3e

>  <r_lp_Energy>  (39) 
14.2275

>  <b_lp_Chiralities_Consistent>  (39) 
1

>  <s_lp_Variant>  (39) 
10:0-1

>  <s_i_glide_gridfile>  (39) 
pfpi4k_grid

>  <i_i_glide_lignum>  (39) 
13

>  <i_i_glide_rotatable_bonds>  (39) 
0

>  <r_i_docking_score>  (39) 
-3.76475

>  <r_i_glide_ligand_efficiency>  (39) 
-0.418305

>  <r_i_glide_ligand_efficiency_sa>  (39) 
-0.87011

>  <r_i_glide_ligand_efficiency_ln>  (39) 
-1.1775

>  <r_i_glide_gscore>  (39) 
-3.76475

>  <r_i_glide_lipo>  (39) 
-0.392825

>  <r_i_glide_hbond>  (39) 
0

>  <r_i_glide_metal>  (39) 
-0

>  <r_i_glide_rewards>  (39) 
-2.25008

>  <r_i_glide_evdw>  (39) 
-15.7558

>  <r_i_glide_ecoul>  (39) 
-1.88939

>  <r_i_glide_erotb>  (39) 
0

>  <r_i_glide_esite>  (39) 
-0.0506463

>  <r_i_glide_emodel>  (39) 
-23.2963

>  <r_i_glide_energy>  (39) 
-17.6452

>  <r_i_glide_einternal>  (39) 
0

>  <r_i_glide_intrahb_reward>  (39) 
-0

>  <i_i_glide_confnum>  (39) 
1

>  <i_i_glide_posenum>  (39) 
2

>  <r_i_glide_eff_state_penalty>  (39) 
0

>  <ligand_id>  (39) 
10

>  <original_smiles>  (39) 
c1cnn2ncnc2c1

>  <smiles>  (39) 
[H]c1nc2c([H])c([H])c([H])nn2n1

$$$$
12:0:0
     RDKit          3D

 41 44  0  0  1  0  0  0  0  0999 V2000
    1.3261  -10.8132    5.1394 C   0  0  0  0  0  0  0  0  0  0  0  0
    0.2152  -10.1477    4.3992 N   0  0  2  0  0  0  0  0  0  0  0  0
    0.2473  -10.1889    2.9205 C   0  0  1  0  0  0  0  0  0  0  0  0
   -0.9931   -9.3357    2.5625 C   0  0  0  0  0  0  0  0  0  0  0  0
   -1.1240   -8.3360    3.7272 C   0  0  0  0  0  0  0  0  0  0  0  0
    0.0281   -8.7260    4.6757 C   0  0  2  0  0  0  0  0  0  0  0  0
    1.3101   -7.9587    4.3374 C   0  0  0  0  0  0  0  0  0  0  0  0
    1.6708   -8.0533    2.8215 C   0  0  1  0  0  0  0  0  0  0  0  0
    2.9881   -7.5485    2.5624 O   0  0  0  0  0  0  0  0  0  0  0  0
    3.1106   -6.2392    2.1841 C   0  0  0  0  0  0  0  0  0  0  0  0
    2.5117   -5.1071    2.7069 C   0  0  0  0  0  0  0  0  0  0  0  0
    1.6190   -4.9270    3.7065 N   0  0  0  0  0  0  0  0  0  0  0  0
    1.2215   -3.6847    3.9856 C   0  0  0  0  0  0  0  0  0  0  0  0
    1.6724   -2.5320    3.2664 C   0  0  0  0  0  0  0  0  0  0  0  0
    2.5974   -2.7241    2.2245 C   0  0  0  0  0  0  0  0  0  0  0  0
    3.0139   -4.0545    1.9605 C   0  0  0  0  0  0  0  0  0  0  0  0
    3.8917   -4.4588    1.0110 N   0  0  0  0  0  0  0  0  0  0  0  0
    3.9560   -5.8298    1.1620 N   0  0  0  0  0  0  0  0  0  0  0  0
    4.8082   -6.6189    0.2980 C   0  0  0  0  0  0  0  0  0  0  0  0
    1.5533   -9.5355    2.3701 C   0  0  0  0  0  0  0  0  0  0  0  0
    2.3289  -10.4236    4.9284 H   0  0  0  0  0  0  0  0  0  0  0  0
    1.3540  -11.8799    4.9171 H   0  0  0  0  0  0  0  0  0  0  0  0
    1.1777  -10.6616    6.2064 H   0  0  0  0  0  0  0  0  0  0  0  0
    0.1671  -11.2237    2.5741 H   0  0  0  0  0  0  0  0  0  0  0  0
   -0.9103   -8.8346    1.5937 H   0  0  0  0  0  0  0  0  0  0  0  0
   -1.8867   -9.9527    2.5236 H   0  0  0  0  0  0  0  0  0  0  0  0
   -1.0899   -7.2890    3.3984 H   0  0  0  0  0  0  0  0  0  0  0  0
   -2.0825   -8.4731    4.2274 H   0  0  0  0  0  0  0  0  0  0  0  0
   -0.2333   -8.5319    5.7165 H   0  0  0  0  0  0  0  0  0  0  0  0
    1.0281   -6.9829    4.7021 H   0  0  0  0  0  0  0  0  0  0  0  0
    2.1719   -8.2530    4.9414 H   0  0  0  0  0  0  0  0  0  0  0  0
    0.9597   -7.4986    2.2071 H   0  0  0  0  0  0  0  0  0  0  0  0
    0.4938   -3.5903    4.7945 H   0  0  0  0  0  0  0  0  0  0  0  0
    1.2939   -1.5559    3.5188 H   0  0  0  0  0  0  0  0  0  0  0  0
    2.9763   -1.9125    1.6295 H   0  0  0  0  0  0  0  0  0  0  0  0
    4.6017   -7.6932    0.4086 H   0  0  0  0  0  0  0  0  0  0  0  0
    5.8583   -6.4381    0.5356 H   0  0  0  0  0  0  0  0  0  0  0  0
    4.6256   -6.3398   -0.7390 H   0  0  0  0  0  0  0  0  0  0  0  0
    2.4205  -10.1204    2.6797 H   0  0  0  0  0  0  0  0  0  0  0  0
    1.5628   -9.6052    1.2801 H   0  0  0  0  0  0  0  0  0  0  0  0
   -0.6817  -10.5526    4.6784 H   0  0  0  0  0  0  0  0  0  0  0  0
  1  2  1  0
  1 21  1  0
  1 22  1  0
  1 23  1  0
  2  6  1  0
  2  3  1  0
  2 41  1  1
  3 20  1  0
  3  4  1  0
  3 24  1  1
  4  5  1  0
  4 25  1  0
  4 26  1  0
  5  6  1  0
  5 27  1  0
  5 28  1  0
  6  7  1  0
  6 29  1  1
  7  8  1  0
  7 30  1  0
  7 31  1  0
  8  9  1  0
  8 20  1  0
  8 32  1  6
  9 10  1  0
 10 18  1  0
 10 11  2  0
 11 16  1  0
 11 12  1  0
 12 13  2  0
 13 14  1  0
 13 33  1  0
 14 15  2  0
 14 34  1  0
 15 16  1  0
 15 35  1  0
 16 17  2  0
 17 18  1  0
 18 19  1  0
 19 36  1  0
 19 37  1  0
 19 38  1  0
 20 39  1  0
 20 40  1  0
M  CHG  1   2   1
M  END
>  <i_m_ct_stereo_status>  (40) 
1

>  <s_m_source_file>  (40) 
/var/tmp/pbs.5076255.sched01/tmps52fw2z9/0bkrl5082.sdf

>  <i_m_source_file_index>  (40) 
15

>  <i_lp_mmshare_version>  (40) 
48012

>  <i_f3d_flags>  (40) 
0

>  <s_epik_input>  (40) 
W0NIM11OKFtDQEBIXTEyKVtDQEhdKFtDSDJdW0NIMl0xKVtDSDJdW0NASF0oW0NIMl0yKU9jM24oW0NIM10pbmMoYzM0KVtjSF1bY0hdW2NIXW40

>  <s_epik_cmdline>  (40) 
J2VwaWtfcHl0aG9uJywgJy1waHQnLCAnMi4wJywgJy1waCcsICc3LjAnLCAnLXRuJywgJzgnLCAnLW1hJywgJzIwMCcsICctaW1hZScsICc8aW5maWxlLm1hZT4nLCAnLW9tYWUnLCAnPG91dGZpbGUubWFlPic=

>  <r_lp_tautomer_probability>  (40) 
1

>  <r_epik_Ionization_Penalty>  (40) 
0.00384795

>  <r_epik_Ionization_Penalty_Charging>  (40) 
0.00384489

>  <r_epik_Ionization_Penalty_Neutral>  (40) 
3.05412e-06

>  <r_epik_State_Penalty>  (40) 
0.00274552

>  <r_epik_Charging_Adjusted_Penalty>  (40) 
0.00659041

>  <i_epik_Tot_Q>  (40) 
1

>  <i_epik_Tot_abs_Q>  (40) 
1

>  <s_lp_Force_Field>  (40) 
OPLS3e

>  <r_lp_Energy>  (40) 
39.221

>  <b_lp_Chiralities_Consistent>  (40) 
1

>  <s_lp_Variant>  (40) 
12:0-1

>  <s_i_glide_gridfile>  (40) 
pfpi4k_grid

>  <i_i_glide_lignum>  (40) 
15

>  <i_i_glide_rotatable_bonds>  (40) 
2

>  <r_i_docking_score>  (40) 
-3.69003

>  <r_i_glide_ligand_efficiency>  (40) 
-0.184501

>  <r_i_glide_ligand_efficiency_sa>  (40) 
-0.500814

>  <r_i_glide_ligand_efficiency_ln>  (40) 
-0.923492

>  <r_i_glide_gscore>  (40) 
-3.69003

>  <r_i_glide_lipo>  (40) 
-0.475986

>  <r_i_glide_hbond>  (40) 
-0.2

>  <r_i_glide_metal>  (40) 
-0

>  <r_i_glide_rewards>  (40) 
-1.60995

>  <r_i_glide_evdw>  (40) 
-18.3862

>  <r_i_glide_ecoul>  (40) 
-5.85996

>  <r_i_glide_erotb>  (40) 
0.480122

>  <r_i_glide_esite>  (40) 
-0.0859113

>  <r_i_glide_emodel>  (40) 
-31.86

>  <r_i_glide_energy>  (40) 
-24.2462

>  <r_i_glide_einternal>  (40) 
0.436636

>  <r_i_glide_intrahb_reward>  (40) 
-0

>  <i_i_glide_confnum>  (40) 
5

>  <i_i_glide_posenum>  (40) 
34

>  <r_i_glide_eff_state_penalty>  (40) 
0

>  <ligand_id>  (40) 
12

>  <original_smiles>  (40) 
CN1C2CCC1CC(Oc1c3ncccc3nn1C)C2

>  <smiles>  (40) 
[H]c1nc2c(OC3([H])C([H])([H])C4([H])C([H])([H])C([H])([H])C([H])(C3([H])[H])[N+]4([H])C([H])([H])[H])n(C([H])([H])[H])nc2c([H])c1[H]

$$$$
12:0:1
     RDKit          3D

 41 44  0  0  1  0  0  0  0  0999 V2000
    1.2113  -11.5537    4.2697 C   0  0  0  0  0  0  0  0  0  0  0  0
    0.2204  -10.4370    4.1677 N   0  0  2  0  0  0  0  0  0  0  0  0
    0.1011   -9.7529    2.8680 C   0  0  1  0  0  0  0  0  0  0  0  0
   -0.9604   -8.6801    3.1708 C   0  0  0  0  0  0  0  0  0  0  0  0
   -0.7978   -8.3979    4.6846 C   0  0  0  0  0  0  0  0  0  0  0  0
    0.3482   -9.3301    5.1292 C   0  0  2  0  0  0  0  0  0  0  0  0
    1.7244   -8.6208    4.9786 C   0  0  0  0  0  0  0  0  0  0  0  0
    1.9351   -8.0665    3.5428 C   0  0  1  0  0  0  0  0  0  0  0  0
    3.3012   -7.6985    3.3519 O   0  0  0  0  0  0  0  0  0  0  0  0
    3.5612   -7.0170    2.2086 C   0  0  0  0  0  0  0  0  0  0  0  0
    3.3107   -5.6932    1.9238 C   0  0  0  0  0  0  0  0  0  0  0  0
    2.7304   -4.7056    2.6666 N   0  0  0  0  0  0  0  0  0  0  0  0
    2.6549   -3.4891    2.0772 C   0  0  0  0  0  0  0  0  0  0  0  0
    3.1041   -3.2185    0.7613 C   0  0  0  0  0  0  0  0  0  0  0  0
    3.6916   -4.2674    0.0147 C   0  0  0  0  0  0  0  0  0  0  0  0
    3.7856   -5.5142    0.6483 C   0  0  0  0  0  0  0  0  0  0  0  0
    4.3276   -6.6378    0.1082 N   0  0  0  0  0  0  0  0  0  0  0  0
    4.1837   -7.5834    1.1013 N   0  0  0  0  0  0  0  0  0  0  0  0
    4.6317   -8.9408    0.8733 C   0  0  0  0  0  0  0  0  0  0  0  0
    1.4498   -9.0951    2.4803 C   0  0  0  0  0  0  0  0  0  0  0  0
    2.2570  -11.2614    4.1290 H   0  0  0  0  0  0  0  0  0  0  0  0
    1.0124  -12.3224    3.5218 H   0  0  0  0  0  0  0  0  0  0  0  0
    1.1626  -12.0294    5.2502 H   0  0  0  0  0  0  0  0  0  0  0  0
   -0.2240  -10.4481    2.0903 H   0  0  0  0  0  0  0  0  0  0  0  0
   -0.8418   -7.7849    2.5532 H   0  0  0  0  0  0  0  0  0  0  0  0
   -1.9532   -9.0864    2.9772 H   0  0  0  0  0  0  0  0  0  0  0  0
   -0.5961   -7.3480    4.9128 H   0  0  0  0  0  0  0  0  0  0  0  0
   -1.7201   -8.6598    5.2009 H   0  0  0  0  0  0  0  0  0  0  0  0
    0.1983   -9.7038    6.1458 H   0  0  0  0  0  0  0  0  0  0  0  0
    1.7958   -7.8055    5.7016 H   0  0  0  0  0  0  0  0  0  0  0  0
    2.5269   -9.3046    5.2529 H   0  0  0  0  0  0  0  0  0  0  0  0
    1.3290   -7.1614    3.4604 H   0  0  0  0  0  0  0  0  0  0  0  0
    2.2013   -2.7009    2.6683 H   0  0  0  0  0  0  0  0  0  0  0  0
    2.9967   -2.2366    0.3264 H   0  0  0  0  0  0  0  0  0  0  0  0
    4.0487   -4.1304   -0.9923 H   0  0  0  0  0  0  0  0  0  0  0  0
    4.2965   -9.6042    1.6736 H   0  0  0  0  0  0  0  0  0  0  0  0
    5.7204   -8.9765    0.8395 H   0  0  0  0  0  0  0  0  0  0  0  0
    4.2136   -9.3064   -0.0664 H   0  0  0  0  0  0  0  0  0  0  0  0
    2.1885   -9.8811    2.3374 H   0  0  0  0  0  0  0  0  0  0  0  0
    1.3555   -8.6077    1.5088 H   0  0  0  0  0  0  0  0  0  0  0  0
   -0.7203  -10.7848    4.3806 H   0  0  0  0  0  0  0  0  0  0  0  0
  1  2  1  0
  1 21  1  0
  1 22  1  0
  1 23  1  0
  2  6  1  0
  2  3  1  0
  2 41  1  1
  3 20  1  0
  3  4  1  0
  3 24  1  6
  4  5  1  0
  4 25  1  0
  4 26  1  0
  5  6  1  0
  5 27  1  0
  5 28  1  0
  6  7  1  0
  6 29  1  1
  7  8  1  0
  7 30  1  0
  7 31  1  0
  8  9  1  0
  8 20  1  0
  8 32  1  1
  9 10  1  0
 10 18  1  0
 10 11  2  0
 11 16  1  0
 11 12  1  0
 12 13  2  0
 13 14  1  0
 13 33  1  0
 14 15  2  0
 14 34  1  0
 15 16  1  0
 15 35  1  0
 16 17  2  0
 17 18  1  0
 18 19  1  0
 19 36  1  0
 19 37  1  0
 19 38  1  0
 20 39  1  0
 20 40  1  0
M  CHG  1   2   1
M  END
>  <i_m_ct_stereo_status>  (41) 
1

>  <s_m_source_file>  (41) 
/var/tmp/pbs.5076255.sched01/tmps52fw2z9/0bkrl5082.sdf

>  <i_m_source_file_index>  (41) 
15

>  <i_lp_mmshare_version>  (41) 
48012

>  <i_f3d_flags>  (41) 
0

>  <s_epik_input>  (41) 
W0NIM11OKFtDQEBIXTEyKVtDQEhdKFtDSDJdW0NIMl0xKVtDSDJdW0NASF0oW0NIMl0yKU9jM24oW0NIM10pbmMoYzM0KVtjSF1bY0hdW2NIXW40

>  <s_epik_cmdline>  (41) 
J2VwaWtfcHl0aG9uJywgJy1waHQnLCAnMi4wJywgJy1waCcsICc3LjAnLCAnLXRuJywgJzgnLCAnLW1hJywgJzIwMCcsICctaW1hZScsICc8aW5maWxlLm1hZT4nLCAnLW9tYWUnLCAnPG91dGZpbGUubWFlPic=

>  <r_lp_tautomer_probability>  (41) 
1

>  <r_epik_Ionization_Penalty>  (41) 
0.00384795

>  <r_epik_Ionization_Penalty_Charging>  (41) 
0.00384489

>  <r_epik_Ionization_Penalty_Neutral>  (41) 
3.05412e-06

>  <r_epik_State_Penalty>  (41) 
0.00274552

>  <r_epik_Charging_Adjusted_Penalty>  (41) 
0.00659041

>  <i_epik_Tot_Q>  (41) 
1

>  <i_epik_Tot_abs_Q>  (41) 
1

>  <s_lp_Force_Field>  (41) 
OPLS3e

>  <r_lp_Energy>  (41) 
39.221

>  <b_lp_Chiralities_Consistent>  (41) 
1

>  <s_lp_Variant>  (41) 
12:0-1

>  <s_i_glide_gridfile>  (41) 
pfpi4k_grid

>  <i_i_glide_lignum>  (41) 
15

>  <i_i_glide_rotatable_bonds>  (41) 
2

>  <r_i_docking_score>  (41) 
-3.54404

>  <r_i_glide_ligand_efficiency>  (41) 
-0.177202

>  <r_i_glide_ligand_efficiency_sa>  (41) 
-0.481

>  <r_i_glide_ligand_efficiency_ln>  (41) 
-0.886956

>  <r_i_glide_gscore>  (41) 
-3.54404

>  <r_i_glide_lipo>  (41) 
-0.168032

>  <r_i_glide_hbond>  (41) 
-0.2

>  <r_i_glide_metal>  (41) 
-0

>  <r_i_glide_rewards>  (41) 
-1.65021

>  <r_i_glide_evdw>  (41) 
-20.0047

>  <r_i_glide_ecoul>  (41) 
-6.18572

>  <r_i_glide_erotb>  (41) 
0.480122

>  <r_i_glide_esite>  (41) 
-0.0778244

>  <r_i_glide_emodel>  (41) 
-34.127

>  <r_i_glide_energy>  (41) 
-26.1905

>  <r_i_glide_einternal>  (41) 
0.714722

>  <r_i_glide_intrahb_reward>  (41) 
-0

>  <i_i_glide_confnum>  (41) 
1

>  <i_i_glide_posenum>  (41) 
38

>  <r_i_glide_eff_state_penalty>  (41) 
0

>  <ligand_id>  (41) 
12

>  <original_smiles>  (41) 
CN1C2CCC1CC(Oc1c3ncccc3nn1C)C2

>  <smiles>  (41) 
[H]c1nc2c(OC3([H])C([H])([H])C4([H])C([H])([H])C([H])([H])C([H])(C3([H])[H])[N+]4([H])C([H])([H])[H])n(C([H])([H])[H])nc2c([H])c1[H]

$$$$
12:0:2
     RDKit          3D

 41 44  0  0  1  0  0  0  0  0999 V2000
    2.2221   -9.4262    3.0659 C   0  0  0  0  0  0  0  0  0  0  0  0
    0.7870   -9.1864    2.7479 N   0  0  2  0  0  0  0  0  0  0  0  0
    0.4186   -7.8500    2.2577 C   0  0  1  0  0  0  0  0  0  0  0  0
   -1.1077   -7.9580    2.0992 C   0  0  0  0  0  0  0  0  0  0  0  0
   -1.5215   -9.0195    3.1348 C   0  0  0  0  0  0  0  0  0  0  0  0
   -0.2002   -9.4242    3.8207 C   0  0  2  0  0  0  0  0  0  0  0  0
    0.0799   -8.5033    5.0494 C   0  0  0  0  0  0  0  0  0  0  0  0
    0.0546   -6.9935    4.6655 C   0  0  1  0  0  0  0  0  0  0  0  0
    0.6653   -6.1800    5.6772 O   0  0  0  0  0  0  0  0  0  0  0  0
    0.2636   -4.8810    5.7190 C   0  0  0  0  0  0  0  0  0  0  0  0
    0.6772   -3.8320    4.9205 C   0  0  0  0  0  0  0  0  0  0  0  0
    1.5534   -3.7704    3.8907 N   0  0  0  0  0  0  0  0  0  0  0  0
    1.6979   -2.5712    3.2787 C   0  0  0  0  0  0  0  0  0  0  0  0
    1.0033   -1.4021    3.6855 C   0  0  0  0  0  0  0  0  0  0  0  0
    0.1162   -1.4849    4.7752 C   0  0  0  0  0  0  0  0  0  0  0  0
   -0.0380   -2.7498    5.3919 C   0  0  0  0  0  0  0  0  0  0  0  0
   -0.8412   -3.0349    6.4300 N   0  0  0  0  0  0  0  0  0  0  0  0
   -0.6373   -4.3826    6.6513 N   0  0  0  0  0  0  0  0  0  0  0  0
   -1.3298   -5.0539    7.7200 C   0  0  0  0  0  0  0  0  0  0  0  0
    0.7642   -6.7762    3.3070 C   0  0  0  0  0  0  0  0  0  0  0  0
    2.6143   -8.8134    3.8800 H   0  0  0  0  0  0  0  0  0  0  0  0
    2.8471   -9.2260    2.1979 H   0  0  0  0  0  0  0  0  0  0  0  0
    2.3813  -10.4633    3.3515 H   0  0  0  0  0  0  0  0  0  0  0  0
    0.9128   -7.6225    1.3104 H   0  0  0  0  0  0  0  0  0  0  0  0
   -1.6296   -7.0077    2.2410 H   0  0  0  0  0  0  0  0  0  0  0  0
   -1.3407   -8.3101    1.0993 H   0  0  0  0  0  0  0  0  0  0  0  0
   -2.2755   -8.6680    3.8460 H   0  0  0  0  0  0  0  0  0  0  0  0
   -1.9508   -9.8669    2.6085 H   0  0  0  0  0  0  0  0  0  0  0  0
   -0.1895  -10.4789    4.1083 H   0  0  0  0  0  0  0  0  0  0  0  0
   -0.6605   -8.7061    5.8282 H   0  0  0  0  0  0  0  0  0  0  0  0
    1.0345   -8.7660    5.5028 H   0  0  0  0  0  0  0  0  0  0  0  0
   -0.9990   -6.7121    4.5707 H   0  0  0  0  0  0  0  0  0  0  0  0
    2.3722   -2.5477    2.4257 H   0  0  0  0  0  0  0  0  0  0  0  0
    1.1572   -0.4712    3.1629 H   0  0  0  0  0  0  0  0  0  0  0  0
   -0.4321   -0.6305    5.1332 H   0  0  0  0  0  0  0  0  0  0  0  0
   -0.9187   -6.0579    7.8672 H   0  0  0  0  0  0  0  0  0  0  0  0
   -2.3901   -5.1282    7.4775 H   0  0  0  0  0  0  0  0  0  0  0  0
   -1.2169   -4.4943    8.6491 H   0  0  0  0  0  0  0  0  0  0  0  0
    1.8413   -6.7063    3.4648 H   0  0  0  0  0  0  0  0  0  0  0  0
    0.4491   -5.8296    2.8808 H   0  0  0  0  0  0  0  0  0  0  0  0
    0.5128   -9.8020    1.9896 H   0  0  0  0  0  0  0  0  0  0  0  0
  1  2  1  0
  1 21  1  0
  1 22  1  0
  1 23  1  0
  2  6  1  0
  2  3  1  0
  2 41  1  6
  3 20  1  0
  3  4  1  0
  3 24  1  6
  4  5  1  0
  4 25  1  0
  4 26  1  0
  5  6  1  0
  5 27  1  0
  5 28  1  0
  6  7  1  0
  6 29  1  1
  7  8  1  0
  7 30  1  0
  7 31  1  0
  8  9  1  0
  8 20  1  0
  8 32  1  6
  9 10  1  0
 10 18  1  0
 10 11  2  0
 11 16  1  0
 11 12  1  0
 12 13  2  0
 13 14  1  0
 13 33  1  0
 14 15  2  0
 14 34  1  0
 15 16  1  0
 15 35  1  0
 16 17  2  0
 17 18  1  0
 18 19  1  0
 19 36  1  0
 19 37  1  0
 19 38  1  0
 20 39  1  0
 20 40  1  0
M  CHG  1   2   1
M  END
>  <i_m_ct_stereo_status>  (42) 
1

>  <s_m_source_file>  (42) 
/var/tmp/pbs.5076255.sched01/tmps52fw2z9/0bkrl5082.sdf

>  <i_m_source_file_index>  (42) 
15

>  <i_lp_mmshare_version>  (42) 
48012

>  <i_f3d_flags>  (42) 
0

>  <s_epik_input>  (42) 
W0NIM11OKFtDQEBIXTEyKVtDQEhdKFtDSDJdW0NIMl0xKVtDSDJdW0NASF0oW0NIMl0yKU9jM24oW0NIM10pbmMoYzM0KVtjSF1bY0hdW2NIXW40

>  <s_epik_cmdline>  (42) 
J2VwaWtfcHl0aG9uJywgJy1waHQnLCAnMi4wJywgJy1waCcsICc3LjAnLCAnLXRuJywgJzgnLCAnLW1hJywgJzIwMCcsICctaW1hZScsICc8aW5maWxlLm1hZT4nLCAnLW9tYWUnLCAnPG91dGZpbGUubWFlPic=

>  <r_lp_tautomer_probability>  (42) 
1

>  <r_epik_Ionization_Penalty>  (42) 
0.00384795

>  <r_epik_Ionization_Penalty_Charging>  (42) 
0.00384489

>  <r_epik_Ionization_Penalty_Neutral>  (42) 
3.05412e-06

>  <r_epik_State_Penalty>  (42) 
0.00274552

>  <r_epik_Charging_Adjusted_Penalty>  (42) 
0.00659041

>  <i_epik_Tot_Q>  (42) 
1

>  <i_epik_Tot_abs_Q>  (42) 
1

>  <s_lp_Force_Field>  (42) 
OPLS3e

>  <r_lp_Energy>  (42) 
39.221

>  <b_lp_Chiralities_Consistent>  (42) 
1

>  <s_lp_Variant>  (42) 
12:0-1

>  <s_i_glide_gridfile>  (42) 
pfpi4k_grid

>  <i_i_glide_lignum>  (42) 
15

>  <i_i_glide_rotatable_bonds>  (42) 
2

>  <r_i_docking_score>  (42) 
-2.76768

>  <r_i_glide_ligand_efficiency>  (42) 
-0.138384

>  <r_i_glide_ligand_efficiency_sa>  (42) 
-0.375632

>  <r_i_glide_ligand_efficiency_ln>  (42) 
-0.692659

>  <r_i_glide_gscore>  (42) 
-2.76768

>  <r_i_glide_lipo>  (42) 
-0.0627713

>  <r_i_glide_hbond>  (42) 
0

>  <r_i_glide_metal>  (42) 
-0

>  <r_i_glide_rewards>  (42) 
-1.54532

>  <r_i_glide_evdw>  (42) 
-20.1007

>  <r_i_glide_ecoul>  (42) 
-4.09701

>  <r_i_glide_erotb>  (42) 
0.480122

>  <r_i_glide_esite>  (42) 
-0.0201239

>  <r_i_glide_emodel>  (42) 
-29.8437

>  <r_i_glide_energy>  (42) 
-24.1977

>  <r_i_glide_einternal>  (42) 
1.3864

>  <r_i_glide_intrahb_reward>  (42) 
-0

>  <i_i_glide_confnum>  (42) 
5

>  <i_i_glide_posenum>  (42) 
6

>  <r_i_glide_eff_state_penalty>  (42) 
0

>  <ligand_id>  (42) 
12

>  <original_smiles>  (42) 
CN1C2CCC1CC(Oc1c3ncccc3nn1C)C2

>  <smiles>  (42) 
[H]c1nc2c(OC3([H])C([H])([H])C4([H])C([H])([H])C([H])([H])C([H])(C3([H])[H])[N+]4([H])C([H])([H])[H])n(C([H])([H])[H])nc2c([H])c1[H]

$$$$
12:1:0
     RDKit          3D

 41 44  0  0  1  0  0  0  0  0999 V2000
    3.0351   -1.1732   -3.2496 C   0  0  0  0  0  0  0  0  0  0  0  0
    3.0256   -1.8559   -1.9294 N   0  0  1  0  0  0  0  0  0  0  0  0
    3.2477   -3.3128   -2.0120 C   0  0  1  0  0  0  0  0  0  0  0  0
    4.7748   -3.4481   -2.1733 C   0  0  0  0  0  0  0  0  0  0  0  0
    5.3391   -2.1759   -1.5057 C   0  0  0  0  0  0  0  0  0  0  0  0
    4.0903   -1.4166   -1.0121 C   0  0  2  0  0  0  0  0  0  0  0  0
    3.6783   -1.8328    0.4240 C   0  0  0  0  0  0  0  0  0  0  0  0
    3.4856   -3.3705    0.5358 C   0  0  1  0  0  0  0  0  0  0  0  0
    2.7547   -3.7236    1.7100 O   0  0  0  0  0  0  0  0  0  0  0  0
    2.9881   -4.9806    2.1650 C   0  0  0  0  0  0  0  0  0  0  0  0
    2.1444   -6.0787    2.0917 C   0  0  0  0  0  0  0  0  0  0  0  0
    0.9075   -6.2324    1.5640 N   0  0  0  0  0  0  0  0  0  0  0  0
    0.3607   -7.4685    1.6767 C   0  0  0  0  0  0  0  0  0  0  0  0
    1.0186   -8.5614    2.2895 C   0  0  0  0  0  0  0  0  0  0  0  0
    2.3109   -8.3775    2.8172 C   0  0  0  0  0  0  0  0  0  0  0  0
    2.8627   -7.0898    2.7068 C   0  0  0  0  0  0  0  0  0  0  0  0
    4.0750   -6.7079    3.1540 N   0  0  0  0  0  0  0  0  0  0  0  0
    4.1484   -5.3719    2.8183 N   0  0  0  0  0  0  0  0  0  0  0  0
    5.3301   -4.6098    3.1599 C   0  0  0  0  0  0  0  0  0  0  0  0
    2.7473   -3.9398   -0.6946 C   0  0  0  0  0  0  0  0  0  0  0  0
    3.9742   -1.3206   -3.7831 H   0  0  0  0  0  0  0  0  0  0  0  0
    2.8931   -0.0992   -3.1357 H   0  0  0  0  0  0  0  0  0  0  0  0
    2.2407   -1.5577   -3.8888 H   0  0  0  0  0  0  0  0  0  0  0  0
    2.7060   -3.7544   -2.8487 H   0  0  0  0  0  0  0  0  0  0  0  0
    5.1661   -4.3676   -1.7355 H   0  0  0  0  0  0  0  0  0  0  0  0
    5.0426   -3.4644   -3.2311 H   0  0  0  0  0  0  0  0  0  0  0  0
    6.0492   -2.3953   -0.7056 H   0  0  0  0  0  0  0  0  0  0  0  0
    5.8675   -1.5799   -2.2504 H   0  0  0  0  0  0  0  0  0  0  0  0
    4.2327   -0.3366   -1.0535 H   0  0  0  0  0  0  0  0  0  0  0  0
    4.4261   -1.4896    1.1436 H   0  0  0  0  0  0  0  0  0  0  0  0
    2.7500   -1.3223    0.6838 H   0  0  0  0  0  0  0  0  0  0  0  0
    4.4865   -3.8096    0.5658 H   0  0  0  0  0  0  0  0  0  0  0  0
   -0.6261   -7.5934    1.2499 H   0  0  0  0  0  0  0  0  0  0  0  0
    0.5411   -9.5305    2.3279 H   0  0  0  0  0  0  0  0  0  0  0  0
    2.8544   -9.1860    3.2842 H   0  0  0  0  0  0  0  0  0  0  0  0
    5.1682   -3.5491    2.9600 H   0  0  0  0  0  0  0  0  0  0  0  0
    6.1738   -4.9579    2.5658 H   0  0  0  0  0  0  0  0  0  0  0  0
    5.5599   -4.7344    4.2169 H   0  0  0  0  0  0  0  0  0  0  0  0
    1.6833   -3.7360   -0.6056 H   0  0  0  0  0  0  0  0  0  0  0  0
    2.8521   -5.0249   -0.7105 H   0  0  0  0  0  0  0  0  0  0  0  0
    2.1155   -1.6491   -1.4918 H   0  0  0  0  0  0  0  0  0  0  0  0
  1  2  1  0
  1 21  1  0
  1 22  1  0
  1 23  1  0
  2  6  1  0
  2  3  1  0
  2 41  1  1
  3 20  1  0
  3  4  1  0
  3 24  1  6
  4  5  1  0
  4 25  1  0
  4 26  1  0
  5  6  1  0
  5 27  1  0
  5 28  1  0
  6  7  1  0
  6 29  1  1
  7  8  1  0
  7 30  1  0
  7 31  1  0
  8  9  1  0
  8 20  1  0
  8 32  1  1
  9 10  1  0
 10 18  1  0
 10 11  2  0
 11 16  1  0
 11 12  1  0
 12 13  2  0
 13 14  1  0
 13 33  1  0
 14 15  2  0
 14 34  1  0
 15 16  1  0
 15 35  1  0
 16 17  2  0
 17 18  1  0
 18 19  1  0
 19 36  1  0
 19 37  1  0
 19 38  1  0
 20 39  1  0
 20 40  1  0
M  CHG  1   2   1
M  END
>  <i_m_ct_stereo_status>  (43) 
1

>  <s_m_source_file>  (43) 
/var/tmp/pbs.5076255.sched01/tmps52fw2z9/0bkrl5082.sdf

>  <i_m_source_file_index>  (43) 
16

>  <i_lp_mmshare_version>  (43) 
48012

>  <i_f3d_flags>  (43) 
0

>  <s_epik_input>  (43) 
W0NIM11OKFtDQEBIXTEyKVtDQEhdKFtDSDJdW0NIMl0xKVtDSDJdW0NASF0oW0NIMl0yKU9jM24oW0NIM10pbmMoYzM0KVtjSF1bY0hdW2NIXW40

>  <s_epik_cmdline>  (43) 
J2VwaWtfcHl0aG9uJywgJy1waHQnLCAnMi4wJywgJy1waCcsICc3LjAnLCAnLXRuJywgJzgnLCAnLW1hJywgJzIwMCcsICctaW1hZScsICc8aW5maWxlLm1hZT4nLCAnLW9tYWUnLCAnPG91dGZpbGUubWFlPic=

>  <r_lp_tautomer_probability>  (43) 
1

>  <r_epik_Ionization_Penalty>  (43) 
0.00384795

>  <r_epik_Ionization_Penalty_Charging>  (43) 
0.00384489

>  <r_epik_Ionization_Penalty_Neutral>  (43) 
3.05412e-06

>  <r_epik_State_Penalty>  (43) 
0.00274552

>  <r_epik_Charging_Adjusted_Penalty>  (43) 
0.00659041

>  <i_epik_Tot_Q>  (43) 
1

>  <i_epik_Tot_abs_Q>  (43) 
1

>  <s_lp_Force_Field>  (43) 
OPLS3e

>  <r_lp_Energy>  (43) 
38.3116

>  <b_lp_Chiralities_Consistent>  (43) 
1

>  <s_lp_Variant>  (43) 
12:0-2

>  <s_i_glide_gridfile>  (43) 
pfpi4k_grid

>  <i_i_glide_lignum>  (43) 
16

>  <i_i_glide_rotatable_bonds>  (43) 
2

>  <r_i_docking_score>  (43) 
-3.89323

>  <r_i_glide_ligand_efficiency>  (43) 
-0.194661

>  <r_i_glide_ligand_efficiency_sa>  (43) 
-0.528392

>  <r_i_glide_ligand_efficiency_ln>  (43) 
-0.974346

>  <r_i_glide_gscore>  (43) 
-3.89323

>  <r_i_glide_lipo>  (43) 
-0.113653

>  <r_i_glide_hbond>  (43) 
-0.3563

>  <r_i_glide_metal>  (43) 
-0

>  <r_i_glide_rewards>  (43) 
-1.54532

>  <r_i_glide_evdw>  (43) 
-19.1401

>  <r_i_glide_ecoul>  (43) 
-8.77949

>  <r_i_glide_erotb>  (43) 
0.480122

>  <r_i_glide_esite>  (43) 
-0.0841467

>  <r_i_glide_emodel>  (43) 
-36.1746

>  <r_i_glide_energy>  (43) 
-27.9196

>  <r_i_glide_einternal>  (43) 
0.955978

>  <r_i_glide_intrahb_reward>  (43) 
-0

>  <i_i_glide_confnum>  (43) 
4

>  <i_i_glide_posenum>  (43) 
23

>  <r_i_glide_eff_state_penalty>  (43) 
0

>  <ligand_id>  (43) 
12

>  <original_smiles>  (43) 
CN1C2CCC1CC(Oc1c3ncccc3nn1C)C2

>  <smiles>  (43) 
[H]c1nc2c(OC3([H])C([H])([H])C4([H])C([H])([H])C([H])([H])C([H])(C3([H])[H])[N+]4([H])C([H])([H])[H])n(C([H])([H])[H])nc2c([H])c1[H]

$$$$
12:1:1
     RDKit          3D

 41 44  0  0  1  0  0  0  0  0999 V2000
   -0.1449    0.3445    3.5763 C   0  0  0  0  0  0  0  0  0  0  0  0
    1.0921   -0.3113    3.0782 N   0  0  1  0  0  0  0  0  0  0  0  0
    1.6764    0.3498    1.9026 C   0  0  1  0  0  0  0  0  0  0  0  0
    2.4589    1.5362    2.4767 C   0  0  0  0  0  0  0  0  0  0  0  0
    2.8153    1.0984    3.9103 C   0  0  0  0  0  0  0  0  0  0  0  0
    2.2185   -0.3153    4.0324 C   0  0  2  0  0  0  0  0  0  0  0  0
    3.2211   -1.4137    3.5864 C   0  0  0  0  0  0  0  0  0  0  0  0
    3.7499   -1.1671    2.1475 C   0  0  1  0  0  0  0  0  0  0  0  0
    4.3306   -2.3684    1.6249 O   0  0  0  0  0  0  0  0  0  0  0  0
    4.7295   -2.3113    0.3273 C   0  0  0  0  0  0  0  0  0  0  0  0
    4.0012   -2.6582   -0.8003 C   0  0  0  0  0  0  0  0  0  0  0  0
    2.7493   -3.1471   -0.9312 N   0  0  0  0  0  0  0  0  0  0  0  0
    2.2899   -3.3064   -2.1972 C   0  0  0  0  0  0  0  0  0  0  0  0
    3.0736   -3.0440   -3.3478 C   0  0  0  0  0  0  0  0  0  0  0  0
    4.3856   -2.5607   -3.1778 C   0  0  0  0  0  0  0  0  0  0  0  0
    4.8374   -2.3562   -1.8640 C   0  0  0  0  0  0  0  0  0  0  0  0
    6.0364   -1.8620   -1.4863 N   0  0  0  0  0  0  0  0  0  0  0  0
    5.9672   -1.8546   -0.1075 N   0  0  0  0  0  0  0  0  0  0  0  0
    7.0990   -1.3980    0.6593 C   0  0  0  0  0  0  0  0  0  0  0  0
    2.6082   -0.6680    1.2330 C   0  0  0  0  0  0  0  0  0  0  0  0
    0.0238    1.3913    3.8365 H   0  0  0  0  0  0  0  0  0  0  0  0
   -0.5257   -0.1605    4.4648 H   0  0  0  0  0  0  0  0  0  0  0  0
   -0.9259    0.3264    2.8140 H   0  0  0  0  0  0  0  0  0  0  0  0
    0.9151    0.6550    1.1854 H   0  0  0  0  0  0  0  0  0  0  0  0
    3.3437    1.7512    1.8819 H   0  0  0  0  0  0  0  0  0  0  0  0
    1.8301    2.4276    2.4891 H   0  0  0  0  0  0  0  0  0  0  0  0
    3.8881    1.1273    4.1085 H   0  0  0  0  0  0  0  0  0  0  0  0
    2.3375    1.7690    4.6245 H   0  0  0  0  0  0  0  0  0  0  0  0
    1.8805   -0.5283    5.0443 H   0  0  0  0  0  0  0  0  0  0  0  0
    4.0546   -1.4816    4.2877 H   0  0  0  0  0  0  0  0  0  0  0  0
    2.7279   -2.3851    3.6264 H   0  0  0  0  0  0  0  0  0  0  0  0
    4.5287   -0.4052    2.1946 H   0  0  0  0  0  0  0  0  0  0  0  0
    1.2719   -3.6566   -2.2930 H   0  0  0  0  0  0  0  0  0  0  0  0
    2.6673   -3.2256   -4.3287 H   0  0  0  0  0  0  0  0  0  0  0  0
    5.0144   -2.3509   -4.0220 H   0  0  0  0  0  0  0  0  0  0  0  0
    6.9213   -1.5521    1.7203 H   0  0  0  0  0  0  0  0  0  0  0  0
    7.2538   -0.3360    0.4837 H   0  0  0  0  0  0  0  0  0  0  0  0
    7.9977   -1.9434    0.3706 H   0  0  0  0  0  0  0  0  0  0  0  0
    1.9970   -1.5219    0.9493 H   0  0  0  0  0  0  0  0  0  0  0  0
    3.0094   -0.2473    0.3121 H   0  0  0  0  0  0  0  0  0  0  0  0
    0.8764   -1.2654    2.8274 H   0  0  0  0  0  0  0  0  0  0  0  0
  1  2  1  0
  1 21  1  0
  1 22  1  0
  1 23  1  0
  2  6  1  0
  2  3  1  0
  2 41  1  6
  3 20  1  0
  3  4  1  0
  3 24  1  6
  4  5  1  0
  4 25  1  0
  4 26  1  0
  5  6  1  0
  5 27  1  0
  5 28  1  0
  6  7  1  0
  6 29  1  1
  7  8  1  0
  7 30  1  0
  7 31  1  0
  8  9  1  0
  8 20  1  0
  8 32  1  1
  9 10  1  0
 10 18  1  0
 10 11  2  0
 11 16  1  0
 11 12  1  0
 12 13  2  0
 13 14  1  0
 13 33  1  0
 14 15  2  0
 14 34  1  0
 15 16  1  0
 15 35  1  0
 16 17  2  0
 17 18  1  0
 18 19  1  0
 19 36  1  0
 19 37  1  0
 19 38  1  0
 20 39  1  0
 20 40  1  0
M  CHG  1   2   1
M  END
>  <i_m_ct_stereo_status>  (44) 
1

>  <s_m_source_file>  (44) 
/var/tmp/pbs.5076255.sched01/tmps52fw2z9/0bkrl5082.sdf

>  <i_m_source_file_index>  (44) 
16

>  <i_lp_mmshare_version>  (44) 
48012

>  <i_f3d_flags>  (44) 
0

>  <s_epik_input>  (44) 
W0NIM11OKFtDQEBIXTEyKVtDQEhdKFtDSDJdW0NIMl0xKVtDSDJdW0NASF0oW0NIMl0yKU9jM24oW0NIM10pbmMoYzM0KVtjSF1bY0hdW2NIXW40

>  <s_epik_cmdline>  (44) 
J2VwaWtfcHl0aG9uJywgJy1waHQnLCAnMi4wJywgJy1waCcsICc3LjAnLCAnLXRuJywgJzgnLCAnLW1hJywgJzIwMCcsICctaW1hZScsICc8aW5maWxlLm1hZT4nLCAnLW9tYWUnLCAnPG91dGZpbGUubWFlPic=

>  <r_lp_tautomer_probability>  (44) 
1

>  <r_epik_Ionization_Penalty>  (44) 
0.00384795

>  <r_epik_Ionization_Penalty_Charging>  (44) 
0.00384489

>  <r_epik_Ionization_Penalty_Neutral>  (44) 
3.05412e-06

>  <r_epik_State_Penalty>  (44) 
0.00274552

>  <r_epik_Charging_Adjusted_Penalty>  (44) 
0.00659041

>  <i_epik_Tot_Q>  (44) 
1

>  <i_epik_Tot_abs_Q>  (44) 
1

>  <s_lp_Force_Field>  (44) 
OPLS3e

>  <r_lp_Energy>  (44) 
38.3116

>  <b_lp_Chiralities_Consistent>  (44) 
1

>  <s_lp_Variant>  (44) 
12:0-2

>  <s_i_glide_gridfile>  (44) 
pfpi4k_grid

>  <i_i_glide_lignum>  (44) 
16

>  <i_i_glide_rotatable_bonds>  (44) 
2

>  <r_i_docking_score>  (44) 
-3.50407

>  <r_i_glide_ligand_efficiency>  (44) 
-0.175203

>  <r_i_glide_ligand_efficiency_sa>  (44) 
-0.475575

>  <r_i_glide_ligand_efficiency_ln>  (44) 
-0.876952

>  <r_i_glide_gscore>  (44) 
-3.50407

>  <r_i_glide_lipo>  (44) 
-0.478156

>  <r_i_glide_hbond>  (44) 
-0.101372

>  <r_i_glide_metal>  (44) 
-0

>  <r_i_glide_rewards>  (44) 
-1.54532

>  <r_i_glide_evdw>  (44) 
-21.5413

>  <r_i_glide_ecoul>  (44) 
-5.00259

>  <r_i_glide_erotb>  (44) 
0.480122

>  <r_i_glide_esite>  (44) 
-0.0318879

>  <r_i_glide_emodel>  (44) 
-32.8482

>  <r_i_glide_energy>  (44) 
-26.5439

>  <r_i_glide_einternal>  (44) 
2.76185

>  <r_i_glide_intrahb_reward>  (44) 
-0

>  <i_i_glide_confnum>  (44) 
5

>  <i_i_glide_posenum>  (44) 
6

>  <r_i_glide_eff_state_penalty>  (44) 
0

>  <ligand_id>  (44) 
12

>  <original_smiles>  (44) 
CN1C2CCC1CC(Oc1c3ncccc3nn1C)C2

>  <smiles>  (44) 
[H]c1nc2c(OC3([H])C([H])([H])C4([H])C([H])([H])C([H])([H])C([H])(C3([H])[H])[N+]4([H])C([H])([H])[H])n(C([H])([H])[H])nc2c([H])c1[H]

$$$$
12:1:2
     RDKit          3D

 41 44  0  0  1  0  0  0  0  0999 V2000
    3.2784   -1.2243   -3.0622 C   0  0  0  0  0  0  0  0  0  0  0  0
    3.4166   -1.8534   -1.7276 N   0  0  1  0  0  0  0  0  0  0  0  0
    3.2529   -3.3156   -1.7508 C   0  0  1  0  0  0  0  0  0  0  0  0
    4.6174   -3.8515   -2.2271 C   0  0  0  0  0  0  0  0  0  0  0  0
    5.6208   -2.7591   -1.8111 C   0  0  0  0  0  0  0  0  0  0  0  0
    4.7502   -1.6918   -1.1124 C   0  0  2  0  0  0  0  0  0  0  0  0
    4.6107   -1.9641    0.4061 C   0  0  0  0  0  0  0  0  0  0  0  0
    4.0851   -3.3988    0.6726 C   0  0  1  0  0  0  0  0  0  0  0  0
    3.6480   -3.5235    2.0252 O   0  0  0  0  0  0  0  0  0  0  0  0
    3.0683   -4.7075    2.3680 C   0  0  0  0  0  0  0  0  0  0  0  0
    3.3582   -6.0038    1.9542 C   0  0  0  0  0  0  0  0  0  0  0  0
    4.3043   -6.4921    1.1198 N   0  0  0  0  0  0  0  0  0  0  0  0
    4.2858   -7.8260    0.8916 C   0  0  0  0  0  0  0  0  0  0  0  0
    3.3599   -8.7098    1.4961 C   0  0  0  0  0  0  0  0  0  0  0  0
    2.3843   -8.1786    2.3665 C   0  0  0  0  0  0  0  0  0  0  0  0
    2.3954   -6.7886    2.5747 C   0  0  0  0  0  0  0  0  0  0  0  0
    1.5353   -6.0852    3.3393 N   0  0  0  0  0  0  0  0  0  0  0  0
    1.9731   -4.7804    3.2166 N   0  0  0  0  0  0  0  0  0  0  0  0
    1.2841   -3.7187    3.9132 C   0  0  0  0  0  0  0  0  0  0  0  0
    2.9371   -3.7571   -0.3166 C   0  0  0  0  0  0  0  0  0  0  0  0
    3.9961   -1.6265   -3.7794 H   0  0  0  0  0  0  0  0  0  0  0  0
    3.4332   -0.1462   -3.0027 H   0  0  0  0  0  0  0  0  0  0  0  0
    2.2820   -1.4155   -3.4603 H   0  0  0  0  0  0  0  0  0  0  0  0
    2.4348   -3.6251   -2.4020 H   0  0  0  0  0  0  0  0  0  0  0  0
    4.8640   -4.8270   -1.8055 H   0  0  0  0  0  0  0  0  0  0  0  0
    4.6127   -3.9686   -3.3105 H   0  0  0  0  0  0  0  0  0  0  0  0
    6.4217   -3.1418   -1.1764 H   0  0  0  0  0  0  0  0  0  0  0  0
    6.0918   -2.3444   -2.7013 H   0  0  0  0  0  0  0  0  0  0  0  0
    5.1380   -0.6855   -1.2663 H   0  0  0  0  0  0  0  0  0  0  0  0
    5.5666   -1.8149    0.9113 H   0  0  0  0  0  0  0  0  0  0  0  0
    3.9308   -1.2307    0.8401 H   0  0  0  0  0  0  0  0  0  0  0  0
    4.9319   -4.0684    0.5285 H   0  0  0  0  0  0  0  0  0  0  0  0
    5.0218   -8.2038    0.1942 H   0  0  0  0  0  0  0  0  0  0  0  0
    3.4022   -9.7685    1.2867 H   0  0  0  0  0  0  0  0  0  0  0  0
    1.6482   -8.8099    2.8460 H   0  0  0  0  0  0  0  0  0  0  0  0
    1.6411   -2.7448    3.5731 H   0  0  0  0  0  0  0  0  0  0  0  0
    1.4596   -3.8013    4.9870 H   0  0  0  0  0  0  0  0  0  0  0  0
    0.2155   -3.7792    3.7218 H   0  0  0  0  0  0  0  0  0  0  0  0
    2.0159   -3.2757    0.0126 H   0  0  0  0  0  0  0  0  0  0  0  0
    2.7342   -4.8280   -0.3418 H   0  0  0  0  0  0  0  0  0  0  0  0
    2.6991   -1.4608   -1.1231 H   0  0  0  0  0  0  0  0  0  0  0  0
  1  2  1  0
  1 21  1  0
  1 22  1  0
  1 23  1  0
  2  6  1  0
  2  3  1  0
  2 41  1  1
  3 20  1  0
  3  4  1  0
  3 24  1  6
  4  5  1  0
  4 25  1  0
  4 26  1  0
  5  6  1  0
  5 27  1  0
  5 28  1  0
  6  7  1  0
  6 29  1  1
  7  8  1  0
  7 30  1  0
  7 31  1  0
  8  9  1  0
  8 20  1  0
  8 32  1  1
  9 10  1  0
 10 18  1  0
 10 11  2  0
 11 16  1  0
 11 12  1  0
 12 13  2  0
 13 14  1  0
 13 33  1  0
 14 15  2  0
 14 34  1  0
 15 16  1  0
 15 35  1  0
 16 17  2  0
 17 18  1  0
 18 19  1  0
 19 36  1  0
 19 37  1  0
 19 38  1  0
 20 39  1  0
 20 40  1  0
M  CHG  1   2   1
M  END
>  <i_m_ct_stereo_status>  (45) 
1

>  <s_m_source_file>  (45) 
/var/tmp/pbs.5076255.sched01/tmps52fw2z9/0bkrl5082.sdf

>  <i_m_source_file_index>  (45) 
16

>  <i_lp_mmshare_version>  (45) 
48012

>  <i_f3d_flags>  (45) 
0

>  <s_epik_input>  (45) 
W0NIM11OKFtDQEBIXTEyKVtDQEhdKFtDSDJdW0NIMl0xKVtDSDJdW0NASF0oW0NIMl0yKU9jM24oW0NIM10pbmMoYzM0KVtjSF1bY0hdW2NIXW40

>  <s_epik_cmdline>  (45) 
J2VwaWtfcHl0aG9uJywgJy1waHQnLCAnMi4wJywgJy1waCcsICc3LjAnLCAnLXRuJywgJzgnLCAnLW1hJywgJzIwMCcsICctaW1hZScsICc8aW5maWxlLm1hZT4nLCAnLW9tYWUnLCAnPG91dGZpbGUubWFlPic=

>  <r_lp_tautomer_probability>  (45) 
1

>  <r_epik_Ionization_Penalty>  (45) 
0.00384795

>  <r_epik_Ionization_Penalty_Charging>  (45) 
0.00384489

>  <r_epik_Ionization_Penalty_Neutral>  (45) 
3.05412e-06

>  <r_epik_State_Penalty>  (45) 
0.00274552

>  <r_epik_Charging_Adjusted_Penalty>  (45) 
0.00659041

>  <i_epik_Tot_Q>  (45) 
1

>  <i_epik_Tot_abs_Q>  (45) 
1

>  <s_lp_Force_Field>  (45) 
OPLS3e

>  <r_lp_Energy>  (45) 
38.3116

>  <b_lp_Chiralities_Consistent>  (45) 
1

>  <s_lp_Variant>  (45) 
12:0-2

>  <s_i_glide_gridfile>  (45) 
pfpi4k_grid

>  <i_i_glide_lignum>  (45) 
16

>  <i_i_glide_rotatable_bonds>  (45) 
2

>  <r_i_docking_score>  (45) 
-3.30796

>  <r_i_glide_ligand_efficiency>  (45) 
-0.165398

>  <r_i_glide_ligand_efficiency_sa>  (45) 
-0.448959

>  <r_i_glide_ligand_efficiency_ln>  (45) 
-0.827873

>  <r_i_glide_gscore>  (45) 
-3.30796

>  <r_i_glide_lipo>  (45) 
-0.171016

>  <r_i_glide_hbond>  (45) 
-0.186498

>  <r_i_glide_metal>  (45) 
-0

>  <r_i_glide_rewards>  (45) 
-1.54532

>  <r_i_glide_evdw>  (45) 
-20.2465

>  <r_i_glide_ecoul>  (45) 
-5.27873

>  <r_i_glide_erotb>  (45) 
0.480122

>  <r_i_glide_esite>  (45) 
-0.0811157

>  <r_i_glide_emodel>  (45) 
-32.1626

>  <r_i_glide_energy>  (45) 
-25.5252

>  <r_i_glide_einternal>  (45) 
1.41515

>  <r_i_glide_intrahb_reward>  (45) 
-0

>  <i_i_glide_confnum>  (45) 
4

>  <i_i_glide_posenum>  (45) 
1

>  <r_i_glide_eff_state_penalty>  (45) 
0

>  <ligand_id>  (45) 
12

>  <original_smiles>  (45) 
CN1C2CCC1CC(Oc1c3ncccc3nn1C)C2

>  <smiles>  (45) 
[H]c1nc2c(OC3([H])C([H])([H])C4([H])C([H])([H])C([H])([H])C([H])(C3([H])[H])[N+]4([H])C([H])([H])[H])n(C([H])([H])[H])nc2c([H])c1[H]

$$$$
13:0:0
     RDKit          3D

 63 69  0  0  1  0  0  0  0  0999 V2000
    3.9937   -1.8558   -0.8671 C   0  0  0  0  0  0  0  0  0  0  0  0
    4.0360   -3.3552   -0.5403 C   0  0  2  0  0  0  0  0  0  0  0  0
    3.0845   -3.7946    0.5834 C   0  0  0  0  0  0  0  0  0  0  0  0
    3.9153   -4.3087    1.7692 C   0  0  1  0  0  0  0  0  0  0  0  0
    4.0294   -3.3840    2.8910 O   0  0  0  0  0  0  0  0  0  0  0  0
    3.2837   -4.5843    3.1133 C   0  0  1  0  0  0  0  0  0  0  0  0
    1.7723   -4.6207    3.3189 C   0  0  0  0  0  0  0  0  0  0  0  0
    1.9940   -6.0081    3.9098 C   0  0  2  0  0  0  0  0  0  0  0  0
    1.4031   -6.7121    5.1055 C   0  0  2  0  0  0  0  0  0  0  0  0
    2.2135   -8.0191    4.9247 C   0  0  1  0  0  0  0  0  0  0  0  0
    3.6569   -7.7936    5.3877 C   0  0  1  0  0  0  0  0  0  0  0  0
    4.2249   -9.0124    5.7982 O   0  0  0  0  0  0  0  0  0  0  0  0
    4.4513   -6.9495    4.2795 C   0  0  1  0  0  0  0  0  0  0  0  0
    5.8367   -6.5907    4.8710 C   0  0  0  0  0  0  0  0  0  0  0  0
    6.3774   -5.5170    4.6174 O   0  0  0  0  0  0  0  0  0  0  0  0
    4.6628   -7.7415    2.9039 C   0  0  2  0  0  0  0  0  0  0  0  0
    5.1521   -9.2191    3.0243 C   0  0  1  0  0  0  0  0  0  0  0  0
    4.0630  -10.3142    2.9605 C   0  0  0  0  0  0  0  0  0  0  0  0
    6.1297   -9.4297    1.8765 C   0  0  0  0  0  0  0  0  0  0  0  0
    6.6176  -10.5094    1.5735 O   0  0  0  0  0  0  0  0  0  0  0  0
    6.3805   -8.2710    1.3151 O   0  0  0  0  0  0  0  0  0  0  0  0
    5.7511   -7.1676    1.9331 C   0  0  1  0  0  0  0  0  0  0  0  0
    5.3746   -6.1877    0.8013 C   0  0  1  0  0  0  0  0  0  0  0  0
    4.2064   -6.6370    0.1407 O   0  0  0  0  0  0  0  0  0  0  0  0
    5.2721   -4.7011    1.2135 C   0  0  2  0  0  0  0  0  0  0  0  0
    6.3445   -4.3789    2.0792 O   0  0  0  0  0  0  0  0  0  0  0  0
    5.3801   -3.7924   -0.0077 C   0  0  0  0  0  0  0  0  0  0  0  0
    6.4478   -3.4569   -0.5300 O   0  0  0  0  0  0  0  0  0  0  0  0
    3.4827   -5.6870    4.1421 C   0  0  1  0  0  0  0  0  0  0  0  0
    3.6305   -4.8922    5.3074 O   0  0  0  0  0  0  0  0  0  0  0  0
    0.8501   -8.0638    5.4949 C   0  0  0  0  0  0  0  0  0  0  0  0
    0.7080   -8.4308    6.9577 C   0  0  0  0  0  0  0  0  0  0  0  0
   -0.3063   -8.6045    4.6713 C   0  0  0  0  0  0  0  0  0  0  0  0
    4.7031   -1.6061   -1.6542 H   0  0  0  0  0  0  0  0  0  0  0  0
    4.2384   -1.2571    0.0096 H   0  0  0  0  0  0  0  0  0  0  0  0
    3.0109   -1.5561   -1.2160 H   0  0  0  0  0  0  0  0  0  0  0  0
    3.8319   -3.9271   -1.4448 H   0  0  0  0  0  0  0  0  0  0  0  0
    2.4268   -2.9848    0.9019 H   0  0  0  0  0  0  0  0  0  0  0  0
    2.4470   -4.6052    0.2195 H   0  0  0  0  0  0  0  0  0  0  0  0
    1.4093   -3.9642    4.1055 H   0  0  0  0  0  0  0  0  0  0  0  0
    1.1245   -4.5549    2.4469 H   0  0  0  0  0  0  0  0  0  0  0  0
    1.9044   -6.6244    3.0270 H   0  0  0  0  0  0  0  0  0  0  0  0
    1.4925   -6.1174    6.0038 H   0  0  0  0  0  0  0  0  0  0  0  0
    2.1959   -8.5411    3.9765 H   0  0  0  0  0  0  0  0  0  0  0  0
    3.6005   -7.2281    6.3140 H   0  0  0  0  0  0  0  0  0  0  0  0
    3.5878   -9.4898    6.3143 H   0  0  0  0  0  0  0  0  0  0  0  0
    6.3155   -7.3393    5.5017 H   0  0  0  0  0  0  0  0  0  0  0  0
    3.7130   -7.7795    2.3685 H   0  0  0  0  0  0  0  0  0  0  0  0
    5.7517   -9.3544    3.9220 H   0  0  0  0  0  0  0  0  0  0  0  0
    4.5097  -11.3084    2.8783 H   0  0  0  0  0  0  0  0  0  0  0  0
    3.4187  -10.1791    2.0892 H   0  0  0  0  0  0  0  0  0  0  0  0
    3.4317  -10.3554    3.8462 H   0  0  0  0  0  0  0  0  0  0  0  0
    6.5910   -6.7552    2.4808 H   0  0  0  0  0  0  0  0  0  0  0  0
    6.1869   -6.2367    0.0802 H   0  0  0  0  0  0  0  0  0  0  0  0
    4.1266   -6.2108   -0.7048 H   0  0  0  0  0  0  0  0  0  0  0  0
    6.2584   -4.8407    2.8984 H   0  0  0  0  0  0  0  0  0  0  0  0
    3.6422   -5.4631    6.0487 H   0  0  0  0  0  0  0  0  0  0  0  0
    0.6886   -9.5148    7.0853 H   0  0  0  0  0  0  0  0  0  0  0  0
   -0.1908   -7.9889    7.3710 H   0  0  0  0  0  0  0  0  0  0  0  0
    1.5550   -8.0259    7.5103 H   0  0  0  0  0  0  0  0  0  0  0  0
   -0.3437   -9.6920    4.7248 H   0  0  0  0  0  0  0  0  0  0  0  0
   -0.1846   -8.3176    3.6253 H   0  0  0  0  0  0  0  0  0  0  0  0
   -1.2517   -8.1938    5.0236 H   0  0  0  0  0  0  0  0  0  0  0  0
  1  2  1  0
  1 34  1  0
  1 35  1  0
  1 36  1  0
  2 27  1  0
  2  3  1  0
  2 37  1  6
  3  4  1  0
  3 38  1  0
  3 39  1  0
  4  6  1  0
  4 25  1  0
  4  5  1  1
  6  5  1  1
  6 29  1  0
  6  7  1  0
  7  8  1  0
  7 40  1  0
  7 41  1  0
  8 29  1  0
  8  9  1  0
  8 42  1  6
  9 31  1  0
  9 10  1  0
  9 43  1  1
 10 11  1  0
 10 31  1  0
 10 44  1  6
 11 12  1  0
 11 13  1  0
 11 45  1  1
 12 46  1  0
 13 14  1  1
 13 16  1  0
 13 29  1  0
 14 15  2  0
 14 47  1  0
 16 22  1  0
 16 17  1  0
 16 48  1  6
 17 18  1  0
 17 19  1  0
 17 49  1  1
 18 50  1  0
 18 51  1  0
 18 52  1  0
 19 20  2  0
 19 21  1  0
 21 22  1  0
 22 23  1  0
 22 53  1  1
 23 24  1  0
 23 25  1  0
 23 54  1  6
 24 55  1  0
 25 26  1  1
 25 27  1  0
 26 56  1  0
 27 28  2  0
 29 30  1  1
 30 57  1  0
 31 32  1  0
 31 33  1  0
 32 58  1  0
 32 59  1  0
 32 60  1  0
 33 61  1  0
 33 62  1  0
 33 63  1  0
M  END
>  <i_m_ct_stereo_status>  (46) 
1

>  <s_m_source_file>  (46) 
/var/tmp/pbs.5076255.sched01/tmps52fw2z9/0bkrl5082.sdf

>  <i_m_source_file_index>  (46) 
17

>  <i_lp_mmshare_version>  (46) 
48012

>  <i_f3d_flags>  (46) 
0

>  <s_epik_input>  (46) 
W0NIM11bQ0BIXShbQ0gyXTEpQyg9TylbQ0BdMihbT0hdKVtDQEhdKFtPSF0pW0NASF0oT0MoPU8pW0NAQEhdM1tDSDNdKVtDQEBIXTNbQ0BdNChbQ0hdPU8pW0NASF0oW09IXSlbQ0BASF0oQzUoW0NIM10pW0NIM10pW0NASF01W0NAQEhdKFtDSDJdNilbQ0BAXTQoW0NAXTYoW0NAXTEyNylPNylbT0hd

>  <s_epik_cmdline>  (46) 
J2VwaWtfcHl0aG9uJywgJy1waHQnLCAnMi4wJywgJy1waCcsICc3LjAnLCAnLXRuJywgJzgnLCAnLW1hJywgJzIwMCcsICctaW1hZScsICc8aW5maWxlLm1hZT4nLCAnLW9tYWUnLCAnPG91dGZpbGUubWFlPic=

>  <r_lp_tautomer_probability>  (46) 
1

>  <r_epik_Ionization_Penalty>  (46) 
8.7435e-06

>  <r_epik_Ionization_Penalty_Charging>  (46) 
0

>  <r_epik_Ionization_Penalty_Neutral>  (46) 
8.7435e-06

>  <r_epik_State_Penalty>  (46) 
-0

>  <r_epik_Charging_Adjusted_Penalty>  (46) 
0

>  <i_epik_Tot_Q>  (46) 
0

>  <i_epik_Tot_abs_Q>  (46) 
0

>  <s_epik_Chemistry_Notes>  (46) 
This compound has an ester and may undergo hydrolysis at high or low pH.

>  <s_lp_Force_Field>  (46) 
OPLS3e

>  <r_lp_Energy>  (46) 
76.9502

>  <b_lp_Chiralities_Consistent>  (46) 
1

>  <s_lp_Variant>  (46) 
13:0-1

>  <s_i_glide_gridfile>  (46) 
pfpi4k_grid

>  <i_i_glide_lignum>  (46) 
17

>  <i_i_glide_rotatable_bonds>  (46) 
5

>  <r_i_docking_score>  (46) 
-3.25311

>  <r_i_glide_ligand_efficiency>  (46) 
-0.098579

>  <r_i_glide_ligand_efficiency_sa>  (46) 
-0.316196

>  <r_i_glide_ligand_efficiency_ln>  (46) 
-0.723474

>  <r_i_glide_gscore>  (46) 
-3.25311

>  <r_i_glide_lipo>  (46) 
-0.266601

>  <r_i_glide_hbond>  (46) 
0

>  <r_i_glide_metal>  (46) 
-0

>  <r_i_glide_rewards>  (46) 
-0.870122

>  <r_i_glide_evdw>  (46) 
-27.2679

>  <r_i_glide_ecoul>  (46) 
-5.01992

>  <r_i_glide_erotb>  (46) 
0

>  <r_i_glide_esite>  (46) 
0

>  <r_i_glide_emodel>  (46) 
-43.3072

>  <r_i_glide_energy>  (46) 
-32.2878

>  <r_i_glide_einternal>  (46) 
1.13652

>  <r_i_glide_intrahb_reward>  (46) 
-0.5

>  <i_i_glide_confnum>  (46) 
2

>  <i_i_glide_posenum>  (46) 
17

>  <r_i_glide_eff_state_penalty>  (46) 
0

>  <ligand_id>  (46) 
13

>  <original_smiles>  (46) 
CC1CC23OC24CC2C5C(C(O)C(C=O)(C6C(C)C(=O)OC6C(O)C3(O)C1=O)C24O)C5(C)C

>  <smiles>  (46) 
[H]OC1([H])C2([H])OC(=O)C([H])(C([H])([H])[H])C2([H])C2(C([H])=O)C([H])(O[H])C3([H])C([H])(C4([H])C([H])([H])C5(OC56C([H])([H])C([H])(C([H])([H])[H])C(=O)C16O[H])C42O[H])C3(C([H])([H])[H])C([H])([H])[H]

$$$$
13:0:1
     RDKit          3D

 63 69  0  0  1  0  0  0  0  0999 V2000
   -0.8131    1.0036    2.9431 C   0  0  0  0  0  0  0  0  0  0  0  0
   -0.3696    2.0495    3.9711 C   0  0  2  0  0  0  0  0  0  0  0  0
    0.4442    1.4809    5.1443 C   0  0  0  0  0  0  0  0  0  0  0  0
   -0.3558    1.6829    6.4416 C   0  0  1  0  0  0  0  0  0  0  0  0
   -1.0045    0.4959    6.9700 O   0  0  0  0  0  0  0  0  0  0  0  0
    0.0763    1.0344    7.7327 C   0  0  1  0  0  0  0  0  0  0  0  0
    1.4256    0.3376    7.9092 C   0  0  0  0  0  0  0  0  0  0  0  0
    1.6184    1.2556    9.1109 C   0  0  2  0  0  0  0  0  0  0  0  0
    2.1873    1.0138   10.4866 C   0  0  2  0  0  0  0  0  0  0  0  0
    1.9751    2.4640   11.0008 C   0  0  1  0  0  0  0  0  0  0  0  0
    0.4829    2.6717   11.3148 C   0  0  1  0  0  0  0  0  0  0  0  0
    0.3146    3.6821   12.2872 O   0  0  0  0  0  0  0  0  0  0  0  0
   -0.3363    2.8383    9.9453 C   0  0  1  0  0  0  0  0  0  0  0  0
   -1.8411    2.8559   10.3161 C   0  0  0  0  0  0  0  0  0  0  0  0
   -2.7059    2.5316    9.5104 O   0  0  0  0  0  0  0  0  0  0  0  0
    0.0298    4.1828    9.1496 C   0  0  2  0  0  0  0  0  0  0  0  0
    0.1091    5.4874    9.9984 C   0  0  1  0  0  0  0  0  0  0  0  0
    1.5180    5.9272   10.4624 C   0  0  0  0  0  0  0  0  0  0  0  0
   -0.4803    6.5804    9.1267 C   0  0  0  0  0  0  0  0  0  0  0  0
   -0.4533    7.7766    9.4071 O   0  0  0  0  0  0  0  0  0  0  0  0
   -1.0115    6.0463    8.0560 O   0  0  0  0  0  0  0  0  0  0  0  0
   -0.9783    4.6360    8.0373 C   0  0  1  0  0  0  0  0  0  0  0  0
   -0.7778    4.2174    6.5622 C   0  0  1  0  0  0  0  0  0  0  0  0
    0.5809    4.3821    6.1874 O   0  0  0  0  0  0  0  0  0  0  0  0
   -1.3334    2.8176    6.1860 C   0  0  2  0  0  0  0  0  0  0  0  0
   -2.6033    2.6152    6.7912 O   0  0  0  0  0  0  0  0  0  0  0  0
   -1.5368    2.7146    4.6745 C   0  0  0  0  0  0  0  0  0  0  0  0
   -2.5258    3.1579    4.0835 O   0  0  0  0  0  0  0  0  0  0  0  0
    0.0973    1.5103    9.1819 C   0  0  1  0  0  0  0  0  0  0  0  0
   -0.5718    0.4178    9.8000 O   0  0  0  0  0  0  0  0  0  0  0  0
    3.1246    1.6596   11.4829 C   0  0  0  0  0  0  0  0  0  0  0  0
    3.1221    1.2063   12.9284 C   0  0  0  0  0  0  0  0  0  0  0  0
    4.5377    1.9798   11.0150 C   0  0  0  0  0  0  0  0  0  0  0  0
   -1.4016    1.4631    2.1511 H   0  0  0  0  0  0  0  0  0  0  0  0
   -1.4261    0.2360    3.4090 H   0  0  0  0  0  0  0  0  0  0  0  0
    0.0411    0.5216    2.4729 H   0  0  0  0  0  0  0  0  0  0  0  0
    0.2004    2.8273    3.4617 H   0  0  0  0  0  0  0  0  0  0  0  0
    0.6894    0.4275    5.0085 H   0  0  0  0  0  0  0  0  0  0  0  0
    1.3929    2.0214    5.2253 H   0  0  0  0  0  0  0  0  0  0  0  0
    1.3593   -0.6936    8.2587 H   0  0  0  0  0  0  0  0  0  0  0  0
    2.1566    0.4150    7.1015 H   0  0  0  0  0  0  0  0  0  0  0  0
    2.1091    2.1109    8.6483 H   0  0  0  0  0  0  0  0  0  0  0  0
    1.7116    0.1640   10.9720 H   0  0  0  0  0  0  0  0  0  0  0  0
    2.3632    3.3011   10.4263 H   0  0  0  0  0  0  0  0  0  0  0  0
    0.1507    1.7756   11.8365 H   0  0  0  0  0  0  0  0  0  0  0  0
   -0.5038    3.5428   12.7420 H   0  0  0  0  0  0  0  0  0  0  0  0
   -2.0938    3.1743   11.3286 H   0  0  0  0  0  0  0  0  0  0  0  0
    1.0104    4.0582    8.6864 H   0  0  0  0  0  0  0  0  0  0  0  0
   -0.5587    5.4344   10.8533 H   0  0  0  0  0  0  0  0  0  0  0  0
    1.4971    6.9321   10.8940 H   0  0  0  0  0  0  0  0  0  0  0  0
    2.2238    5.9453    9.6268 H   0  0  0  0  0  0  0  0  0  0  0  0
    1.9336    5.2886   11.2403 H   0  0  0  0  0  0  0  0  0  0  0  0
   -2.0061    4.4271    8.3142 H   0  0  0  0  0  0  0  0  0  0  0  0
   -1.3476    4.9243    5.9604 H   0  0  0  0  0  0  0  0  0  0  0  0
    0.6491    4.3475    5.2437 H   0  0  0  0  0  0  0  0  0  0  0  0
   -2.5212    2.6267    7.7376 H   0  0  0  0  0  0  0  0  0  0  0  0
   -0.5430    0.5519   10.7322 H   0  0  0  0  0  0  0  0  0  0  0  0
    3.5042    1.9946   13.5779 H   0  0  0  0  0  0  0  0  0  0  0  0
    3.7236    0.3066   13.0453 H   0  0  0  0  0  0  0  0  0  0  0  0
    2.0981    0.9807   13.2311 H   0  0  0  0  0  0  0  0  0  0  0  0
    4.9756    2.7861   11.6034 H   0  0  0  0  0  0  0  0  0  0  0  0
    4.5218    2.2841    9.9682 H   0  0  0  0  0  0  0  0  0  0  0  0
    5.1668    1.0945   11.0951 H   0  0  0  0  0  0  0  0  0  0  0  0
  1  2  1  0
  1 34  1  0
  1 35  1  0
  1 36  1  0
  2 27  1  0
  2  3  1  0
  2 37  1  6
  3  4  1  0
  3 38  1  0
  3 39  1  0
  4  6  1  0
  4 25  1  0
  4  5  1  6
  6  5  1  1
  6 29  1  0
  6  7  1  0
  7  8  1  0
  7 40  1  0
  7 41  1  0
  8 29  1  0
  8  9  1  0
  8 42  1  6
  9 31  1  0
  9 10  1  0
  9 43  1  1
 10 11  1  0
 10 31  1  0
 10 44  1  6
 11 12  1  0
 11 13  1  0
 11 45  1  1
 12 46  1  0
 13 14  1  1
 13 16  1  0
 13 29  1  0
 14 15  2  0
 14 47  1  0
 16 22  1  0
 16 17  1  0
 16 48  1  6
 17 18  1  0
 17 19  1  0
 17 49  1  1
 18 50  1  0
 18 51  1  0
 18 52  1  0
 19 20  2  0
 19 21  1  0
 21 22  1  0
 22 23  1  0
 22 53  1  1
 23 24  1  0
 23 25  1  0
 23 54  1  6
 24 55  1  0
 25 26  1  1
 25 27  1  0
 26 56  1  0
 27 28  2  0
 29 30  1  1
 30 57  1  0
 31 32  1  0
 31 33  1  0
 32 58  1  0
 32 59  1  0
 32 60  1  0
 33 61  1  0
 33 62  1  0
 33 63  1  0
M  END
>  <i_m_ct_stereo_status>  (47) 
1

>  <s_m_source_file>  (47) 
/var/tmp/pbs.5076255.sched01/tmps52fw2z9/0bkrl5082.sdf

>  <i_m_source_file_index>  (47) 
17

>  <i_lp_mmshare_version>  (47) 
48012

>  <i_f3d_flags>  (47) 
0

>  <s_epik_input>  (47) 
W0NIM11bQ0BIXShbQ0gyXTEpQyg9TylbQ0BdMihbT0hdKVtDQEhdKFtPSF0pW0NASF0oT0MoPU8pW0NAQEhdM1tDSDNdKVtDQEBIXTNbQ0BdNChbQ0hdPU8pW0NASF0oW09IXSlbQ0BASF0oQzUoW0NIM10pW0NIM10pW0NASF01W0NAQEhdKFtDSDJdNilbQ0BAXTQoW0NAXTYoW0NAXTEyNylPNylbT0hd

>  <s_epik_cmdline>  (47) 
J2VwaWtfcHl0aG9uJywgJy1waHQnLCAnMi4wJywgJy1waCcsICc3LjAnLCAnLXRuJywgJzgnLCAnLW1hJywgJzIwMCcsICctaW1hZScsICc8aW5maWxlLm1hZT4nLCAnLW9tYWUnLCAnPG91dGZpbGUubWFlPic=

>  <r_lp_tautomer_probability>  (47) 
1

>  <r_epik_Ionization_Penalty>  (47) 
8.7435e-06

>  <r_epik_Ionization_Penalty_Charging>  (47) 
0

>  <r_epik_Ionization_Penalty_Neutral>  (47) 
8.7435e-06

>  <r_epik_State_Penalty>  (47) 
-0

>  <r_epik_Charging_Adjusted_Penalty>  (47) 
0

>  <i_epik_Tot_Q>  (47) 
0

>  <i_epik_Tot_abs_Q>  (47) 
0

>  <s_epik_Chemistry_Notes>  (47) 
This compound has an ester and may undergo hydrolysis at high or low pH.

>  <s_lp_Force_Field>  (47) 
OPLS3e

>  <r_lp_Energy>  (47) 
76.9502

>  <b_lp_Chiralities_Consistent>  (47) 
1

>  <s_lp_Variant>  (47) 
13:0-1

>  <s_i_glide_gridfile>  (47) 
pfpi4k_grid

>  <i_i_glide_lignum>  (47) 
17

>  <i_i_glide_rotatable_bonds>  (47) 
5

>  <r_i_docking_score>  (47) 
-3.08436

>  <r_i_glide_ligand_efficiency>  (47) 
-0.0934655

>  <r_i_glide_ligand_efficiency_sa>  (47) 
-0.299794

>  <r_i_glide_ligand_efficiency_ln>  (47) 
-0.685946

>  <r_i_glide_gscore>  (47) 
-3.08436

>  <r_i_glide_lipo>  (47) 
-0.0266685

>  <r_i_glide_hbond>  (47) 
-0.112275

>  <r_i_glide_metal>  (47) 
-0

>  <r_i_glide_rewards>  (47) 
-0.755753

>  <r_i_glide_evdw>  (47) 
-21.2843

>  <r_i_glide_ecoul>  (47) 
-6.91379

>  <r_i_glide_erotb>  (47) 
0

>  <r_i_glide_esite>  (47) 
-0.0883819

>  <r_i_glide_emodel>  (47) 
-38.5469

>  <r_i_glide_energy>  (47) 
-28.1981

>  <r_i_glide_einternal>  (47) 
1.37022

>  <r_i_glide_intrahb_reward>  (47) 
-0.5

>  <i_i_glide_confnum>  (47) 
1

>  <i_i_glide_posenum>  (47) 
37

>  <r_i_glide_eff_state_penalty>  (47) 
0

>  <ligand_id>  (47) 
13

>  <original_smiles>  (47) 
CC1CC23OC24CC2C5C(C(O)C(C=O)(C6C(C)C(=O)OC6C(O)C3(O)C1=O)C24O)C5(C)C

>  <smiles>  (47) 
[H]OC1([H])C2([H])OC(=O)C([H])(C([H])([H])[H])C2([H])C2(C([H])=O)C([H])(O[H])C3([H])C([H])(C4([H])C([H])([H])C5(OC56C([H])([H])C([H])(C([H])([H])[H])C(=O)C16O[H])C42O[H])C3(C([H])([H])[H])C([H])([H])[H]

$$$$
13:0:2
     RDKit          3D

 63 69  0  0  1  0  0  0  0  0999 V2000
   -0.6610    1.3440    2.8188 C   0  0  0  0  0  0  0  0  0  0  0  0
   -0.2145    2.2979    3.9322 C   0  0  2  0  0  0  0  0  0  0  0  0
    0.5631    1.6197    5.0711 C   0  0  0  0  0  0  0  0  0  0  0  0
   -0.2592    1.7328    6.3661 C   0  0  1  0  0  0  0  0  0  0  0  0
   -0.9430    0.5184    6.7921 O   0  0  0  0  0  0  0  0  0  0  0  0
    0.1349    0.9759    7.6105 C   0  0  1  0  0  0  0  0  0  0  0  0
    1.4698    0.2410    7.7527 C   0  0  0  0  0  0  0  0  0  0  0  0
    1.6573    1.0570    9.0274 C   0  0  2  0  0  0  0  0  0  0  0  0
    2.1933    0.6975   10.3919 C   0  0  2  0  0  0  0  0  0  0  0  0
    1.9944    2.1054   11.0145 C   0  0  1  0  0  0  0  0  0  0  0  0
    0.5013    2.3180   11.3185 C   0  0  1  0  0  0  0  0  0  0  0  0
    0.3288    3.2546   12.3621 O   0  0  0  0  0  0  0  0  0  0  0  0
   -0.2828    2.6084    9.9516 C   0  0  1  0  0  0  0  0  0  0  0  0
   -1.7929    2.6224   10.2806 C   0  0  0  0  0  0  0  0  0  0  0  0
   -2.6293    2.3465    9.4293 O   0  0  0  0  0  0  0  0  0  0  0  0
    0.1181    4.0078    9.2715 C   0  0  2  0  0  0  0  0  0  0  0  0
    0.2024    5.2396   10.2207 C   0  0  1  0  0  0  0  0  0  0  0  0
    1.6114    5.6101   10.7451 C   0  0  0  0  0  0  0  0  0  0  0  0
   -0.3508    6.4064    9.4266 C   0  0  0  0  0  0  0  0  0  0  0  0
   -0.3009    7.5750    9.7985 O   0  0  0  0  0  0  0  0  0  0  0  0
   -0.8771    5.9672    8.3102 O   0  0  0  0  0  0  0  0  0  0  0  0
   -0.8611    4.5620    8.1807 C   0  0  1  0  0  0  0  0  0  0  0  0
   -0.6288    4.2569    6.6841 C   0  0  1  0  0  0  0  0  0  0  0  0
    0.7319    4.4529    6.3334 O   0  0  0  0  0  0  0  0  0  0  0  0
   -1.2053    2.9052    6.1824 C   0  0  2  0  0  0  0  0  0  0  0  0
   -2.4939    2.6797    6.7433 O   0  0  0  0  0  0  0  0  0  0  0  0
   -1.3778    2.9301    4.6650 C   0  0  0  0  0  0  0  0  0  0  0  0
   -2.3516    3.4316    4.0941 O   0  0  0  0  0  0  0  0  0  0  0  0
    0.1422    1.3368    9.0931 C   0  0  1  0  0  0  0  0  0  0  0  0
   -0.5516    0.2105    9.6197 O   0  0  0  0  0  0  0  0  0  0  0  0
    3.1196    1.2423   11.4532 C   0  0  0  0  0  0  0  0  0  0  0  0
    3.0756    0.6756   12.8561 C   0  0  0  0  0  0  0  0  0  0  0  0
    4.5466    1.5696   11.0363 C   0  0  0  0  0  0  0  0  0  0  0  0
   -1.2241    1.8807    2.0588 H   0  0  0  0  0  0  0  0  0  0  0  0
   -1.3007    0.5549    3.2077 H   0  0  0  0  0  0  0  0  0  0  0  0
    0.1921    0.8834    2.3237 H   0  0  0  0  0  0  0  0  0  0  0  0
    0.3812    3.1012    3.4983 H   0  0  0  0  0  0  0  0  0  0  0  0
    0.7930    0.5763    4.8525 H   0  0  0  0  0  0  0  0  0  0  0  0
    1.5183    2.1354    5.2092 H   0  0  0  0  0  0  0  0  0  0  0  0
    1.3744   -0.8108    8.0196 H   0  0  0  0  0  0  0  0  0  0  0  0
    2.2169    0.3633    6.9663 H   0  0  0  0  0  0  0  0  0  0  0  0
    2.1699    1.9387    8.6434 H   0  0  0  0  0  0  0  0  0  0  0  0
    1.6933   -0.1775   10.7942 H   0  0  0  0  0  0  0  0  0  0  0  0
    2.4088    2.9777   10.5193 H   0  0  0  0  0  0  0  0  0  0  0  0
    0.1413    1.3899   11.7626 H   0  0  0  0  0  0  0  0  0  0  0  0
   -0.5140    3.1134   12.7711 H   0  0  0  0  0  0  0  0  0  0  0  0
   -2.0702    2.8910   11.2978 H   0  0  0  0  0  0  0  0  0  0  0  0
    1.1062    3.9004    8.8239 H   0  0  0  0  0  0  0  0  0  0  0  0
   -0.4824    5.1302   11.0587 H   0  0  0  0  0  0  0  0  0  0  0  0
    1.6009    6.5764   11.2551 H   0  0  0  0  0  0  0  0  0  0  0  0
    2.3333    5.6797    9.9279 H   0  0  0  0  0  0  0  0  0  0  0  0
    1.9993    4.9030   11.4775 H   0  0  0  0  0  0  0  0  0  0  0  0
   -1.8988    4.3522    8.4207 H   0  0  0  0  0  0  0  0  0  0  0  0
   -1.1745    5.0142    6.1289 H   0  0  0  0  0  0  0  0  0  0  0  0
    1.2751    3.8360    6.7974 H   0  0  0  0  0  0  0  0  0  0  0  0
   -2.4304    2.6021    7.6882 H   0  0  0  0  0  0  0  0  0  0  0  0
   -0.4896    0.2534   10.5601 H   0  0  0  0  0  0  0  0  0  0  0  0
    3.4583    1.4011   13.5745 H   0  0  0  0  0  0  0  0  0  0  0  0
    3.6566   -0.2437   12.9130 H   0  0  0  0  0  0  0  0  0  0  0  0
    2.0417    0.4480   13.1200 H   0  0  0  0  0  0  0  0  0  0  0  0
    4.9876    2.3175   11.6955 H   0  0  0  0  0  0  0  0  0  0  0  0
    4.5573    1.9554   10.0180 H   0  0  0  0  0  0  0  0  0  0  0  0
    5.1563    0.6678   11.0573 H   0  0  0  0  0  0  0  0  0  0  0  0
  1  2  1  0
  1 34  1  0
  1 35  1  0
  1 36  1  0
  2 27  1  0
  2  3  1  0
  2 37  1  6
  3  4  1  0
  3 38  1  0
  3 39  1  0
  4  6  1  0
  4 25  1  0
  4  5  1  6
  6  5  1  1
  6 29  1  0
  6  7  1  0
  7  8  1  0
  7 40  1  0
  7 41  1  0
  8 29  1  0
  8  9  1  0
  8 42  1  6
  9 31  1  0
  9 10  1  0
  9 43  1  1
 10 11  1  0
 10 31  1  0
 10 44  1  6
 11 12  1  0
 11 13  1  0
 11 45  1  1
 12 46  1  0
 13 14  1  1
 13 16  1  0
 13 29  1  0
 14 15  2  0
 14 47  1  0
 16 22  1  0
 16 17  1  0
 16 48  1  6
 17 18  1  0
 17 19  1  0
 17 49  1  1
 18 50  1  0
 18 51  1  0
 18 52  1  0
 19 20  2  0
 19 21  1  0
 21 22  1  0
 22 23  1  0
 22 53  1  1
 23 24  1  0
 23 25  1  0
 23 54  1  6
 24 55  1  0
 25 26  1  1
 25 27  1  0
 26 56  1  0
 27 28  2  0
 29 30  1  1
 30 57  1  0
 31 32  1  0
 31 33  1  0
 32 58  1  0
 32 59  1  0
 32 60  1  0
 33 61  1  0
 33 62  1  0
 33 63  1  0
M  END
>  <i_m_ct_stereo_status>  (48) 
1

>  <s_m_source_file>  (48) 
/var/tmp/pbs.5076255.sched01/tmps52fw2z9/0bkrl5082.sdf

>  <i_m_source_file_index>  (48) 
17

>  <i_lp_mmshare_version>  (48) 
48012

>  <i_f3d_flags>  (48) 
0

>  <s_epik_input>  (48) 
W0NIM11bQ0BIXShbQ0gyXTEpQyg9TylbQ0BdMihbT0hdKVtDQEhdKFtPSF0pW0NASF0oT0MoPU8pW0NAQEhdM1tDSDNdKVtDQEBIXTNbQ0BdNChbQ0hdPU8pW0NASF0oW09IXSlbQ0BASF0oQzUoW0NIM10pW0NIM10pW0NASF01W0NAQEhdKFtDSDJdNilbQ0BAXTQoW0NAXTYoW0NAXTEyNylPNylbT0hd

>  <s_epik_cmdline>  (48) 
J2VwaWtfcHl0aG9uJywgJy1waHQnLCAnMi4wJywgJy1waCcsICc3LjAnLCAnLXRuJywgJzgnLCAnLW1hJywgJzIwMCcsICctaW1hZScsICc8aW5maWxlLm1hZT4nLCAnLW9tYWUnLCAnPG91dGZpbGUubWFlPic=

>  <r_lp_tautomer_probability>  (48) 
1

>  <r_epik_Ionization_Penalty>  (48) 
8.7435e-06

>  <r_epik_Ionization_Penalty_Charging>  (48) 
0

>  <r_epik_Ionization_Penalty_Neutral>  (48) 
8.7435e-06

>  <r_epik_State_Penalty>  (48) 
-0

>  <r_epik_Charging_Adjusted_Penalty>  (48) 
0

>  <i_epik_Tot_Q>  (48) 
0

>  <i_epik_Tot_abs_Q>  (48) 
0

>  <s_epik_Chemistry_Notes>  (48) 
This compound has an ester and may undergo hydrolysis at high or low pH.

>  <s_lp_Force_Field>  (48) 
OPLS3e

>  <r_lp_Energy>  (48) 
76.9502

>  <b_lp_Chiralities_Consistent>  (48) 
1

>  <s_lp_Variant>  (48) 
13:0-1

>  <s_i_glide_gridfile>  (48) 
pfpi4k_grid

>  <i_i_glide_lignum>  (48) 
17

>  <i_i_glide_rotatable_bonds>  (48) 
5

>  <r_i_docking_score>  (48) 
-3.00713

>  <r_i_glide_ligand_efficiency>  (48) 
-0.0911251

>  <r_i_glide_ligand_efficiency_sa>  (48) 
-0.292287

>  <r_i_glide_ligand_efficiency_ln>  (48) 
-0.66877

>  <r_i_glide_gscore>  (48) 
-3.00713

>  <r_i_glide_lipo>  (48) 
-0.0167583

>  <r_i_glide_hbond>  (48) 
-0.0679493

>  <r_i_glide_metal>  (48) 
-0

>  <r_i_glide_rewards>  (48) 
-0.755753

>  <r_i_glide_evdw>  (48) 
-19.685

>  <r_i_glide_ecoul>  (48) 
-7.22809

>  <r_i_glide_erotb>  (48) 
0

>  <r_i_glide_esite>  (48) 
-0.0982061

>  <r_i_glide_emodel>  (48) 
-37.4163

>  <r_i_glide_energy>  (48) 
-26.9131

>  <r_i_glide_einternal>  (48) 
0.821136

>  <r_i_glide_intrahb_reward>  (48) 
-0.5

>  <i_i_glide_confnum>  (48) 
1

>  <i_i_glide_posenum>  (48) 
28

>  <r_i_glide_eff_state_penalty>  (48) 
0

>  <ligand_id>  (48) 
13

>  <original_smiles>  (48) 
CC1CC23OC24CC2C5C(C(O)C(C=O)(C6C(C)C(=O)OC6C(O)C3(O)C1=O)C24O)C5(C)C

>  <smiles>  (48) 
[H]OC1([H])C2([H])OC(=O)C([H])(C([H])([H])[H])C2([H])C2(C([H])=O)C([H])(O[H])C3([H])C([H])(C4([H])C([H])([H])C5(OC56C([H])([H])C([H])(C([H])([H])[H])C(=O)C16O[H])C42O[H])C3(C([H])([H])[H])C([H])([H])[H]

$$$$
15:0:0
     RDKit          3D

 20 22  0  0  1  0  0  0  0  0999 V2000
    9.0001   -2.2497    0.2717 O   0  0  0  0  0  0  0  0  0  0  0  0
    7.9321   -2.7294   -0.1091 C   0  0  0  0  0  0  0  0  0  0  0  0
    7.0755   -2.2012   -1.0243 N   0  0  0  0  0  0  0  0  0  0  0  0
    5.8907   -2.8641   -1.2939 C   0  0  0  0  0  0  0  0  0  0  0  0
    4.9768   -2.2712   -2.2871 C   0  0  0  0  0  0  0  0  0  0  0  0
    4.6157   -0.9149   -2.1956 C   0  0  0  0  0  0  0  0  0  0  0  0
    3.7833   -0.3717   -3.1910 C   0  0  0  0  0  0  0  0  0  0  0  0
    3.3301   -1.2126   -4.2166 C   0  0  0  0  0  0  0  0  0  0  0  0
    3.6721   -2.5172   -4.3119 N   0  0  0  0  0  0  0  0  0  0  0  0
    4.4679   -3.0391   -3.3585 C   0  0  0  0  0  0  0  0  0  0  0  0
    5.5677   -3.9732   -0.7297 N   0  0  0  0  0  0  0  0  0  0  0  0
    6.4053   -4.5563    0.1887 C   0  0  0  0  0  0  0  0  0  0  0  0
    6.3022   -5.6838    0.8812 N   0  0  0  0  0  0  0  0  0  0  0  0
    7.4694   -5.7495    1.6296 N   0  0  0  0  0  0  0  0  0  0  0  0
    8.2495   -4.7354    1.3964 N   0  0  0  0  0  0  0  0  0  0  0  0
    7.5769   -3.9761    0.5044 N   0  0  0  0  0  0  0  0  0  0  0  0
    4.9866   -0.2907   -1.3893 H   0  0  0  0  0  0  0  0  0  0  0  0
    3.4754    0.6583   -3.1597 H   0  0  0  0  0  0  0  0  0  0  0  0
    2.6709   -0.8186   -4.9749 H   0  0  0  0  0  0  0  0  0  0  0  0
    4.7497   -4.0716   -3.4905 H   0  0  0  0  0  0  0  0  0  0  0  0
  1  2  2  0
  2 16  1  0
  2  3  1  0
  3  4  1  0
  4  5  1  0
  4 11  2  0
  5 10  1  0
  5  6  2  0
  6  7  1  0
  6 17  1  0
  7  8  2  0
  7 18  1  0
  8  9  1  0
  8 19  1  0
  9 10  2  0
 10 20  1  0
 11 12  1  0
 12 16  1  0
 12 13  2  0
 13 14  1  0
 14 15  2  0
 15 16  1  0
M  CHG  1   3  -1
M  END
>  <i_m_ct_stereo_status>  (49) 
1

>  <s_m_source_file>  (49) 
/var/tmp/pbs.5076255.sched01/tmps52fw2z9/0bkrl5082.sdf

>  <i_m_source_file_index>  (49) 
19

>  <i_lp_mmshare_version>  (49) 
48012

>  <i_f3d_flags>  (49) 
0

>  <s_epik_input>  (49) 
bjFubm4oYzEyKWMoPU8pW25IXWMobjIpLWMzW2NIXVtjSF1bY0hdbltjSF0z

>  <s_epik_cmdline>  (49) 
J2VwaWtfcHl0aG9uJywgJy1waHQnLCAnMi4wJywgJy1waCcsICc3LjAnLCAnLXRuJywgJzgnLCAnLW1hJywgJzIwMCcsICctaW1hZScsICc8aW5maWxlLm1hZT4nLCAnLW9tYWUnLCAnPG91dGZpbGUubWFlPic=

>  <r_epik_Ionization_Penalty>  (49) 
0.0500652

>  <r_epik_Ionization_Penalty_Charging>  (49) 
3.07846e-14

>  <r_epik_Ionization_Penalty_Neutral>  (49) 
0.0500652

>  <r_epik_State_Penalty>  (49) 
0.0427867

>  <r_epik_Charging_Adjusted_Penalty>  (49) 
0.0427867

>  <i_epik_Tot_Q>  (49) 
-1

>  <i_epik_Tot_abs_Q>  (49) 
1

>  <s_lp_Force_Field>  (49) 
OPLS3e

>  <r_lp_Energy>  (49) 
47.8561

>  <b_lp_Chiralities_Consistent>  (49) 
1

>  <s_lp_Variant>  (49) 
15:0-1

>  <s_i_glide_gridfile>  (49) 
pfpi4k_grid

>  <i_i_glide_lignum>  (49) 
19

>  <i_i_glide_rotatable_bonds>  (49) 
1

>  <r_i_docking_score>  (49) 
-4.92798

>  <r_i_glide_ligand_efficiency>  (49) 
-0.307998

>  <r_i_glide_ligand_efficiency_sa>  (49) 
-0.776108

>  <r_i_glide_ligand_efficiency_ln>  (49) 
-1.30626

>  <r_i_glide_gscore>  (49) 
-4.92798

>  <r_i_glide_lipo>  (49) 
-0.439347

>  <r_i_glide_hbond>  (49) 
-0.52

>  <r_i_glide_metal>  (49) 
-0

>  <r_i_glide_rewards>  (49) 
-2.44507

>  <r_i_glide_evdw>  (49) 
-24.1914

>  <r_i_glide_ecoul>  (49) 
-4.52081

>  <r_i_glide_erotb>  (49) 
0.364137

>  <r_i_glide_esite>  (49) 
0

>  <r_i_glide_emodel>  (49) 
-38.8454

>  <r_i_glide_energy>  (49) 
-28.7122

>  <r_i_glide_einternal>  (49) 
1.073

>  <r_i_glide_intrahb_reward>  (49) 
-0

>  <i_i_glide_confnum>  (49) 
1

>  <i_i_glide_posenum>  (49) 
5

>  <r_i_glide_eff_state_penalty>  (49) 
0

>  <ligand_id>  (49) 
15

>  <original_smiles>  (49) 
O=c1[nH]c(-c2cccnc2)nc2nnnn12

>  <smiles>  (49) 
[H]c1nc([H])c(-c2nc3nnnn3c(=O)[n-]2)c([H])c1[H]

$$$$
15:0:1
     RDKit          3D

 20 22  0  0  1  0  0  0  0  0999 V2000
    8.9325   -2.2337    0.1348 O   0  0  0  0  0  0  0  0  0  0  0  0
    7.8631   -2.7403   -0.1954 C   0  0  0  0  0  0  0  0  0  0  0  0
    6.9619   -2.2471   -1.0858 N   0  0  0  0  0  0  0  0  0  0  0  0
    5.7629   -2.9158   -1.2800 C   0  0  0  0  0  0  0  0  0  0  0  0
    4.7725   -2.3215   -2.2139 C   0  0  0  0  0  0  0  0  0  0  0  0
    3.9524   -3.1273   -3.0322 C   0  0  0  0  0  0  0  0  0  0  0  0
    3.0538   -2.4917   -3.9159 C   0  0  0  0  0  0  0  0  0  0  0  0
    3.0216   -1.0822   -3.9484 C   0  0  0  0  0  0  0  0  0  0  0  0
    3.8108   -0.3042   -3.1867 N   0  0  0  0  0  0  0  0  0  0  0  0
    4.6363   -0.9194   -2.3182 C   0  0  0  0  0  0  0  0  0  0  0  0
    5.4864   -4.0297   -0.6892 N   0  0  0  0  0  0  0  0  0  0  0  0
    6.3832   -4.5972    0.1812 C   0  0  0  0  0  0  0  0  0  0  0  0
    6.3385   -5.7288    0.8802 N   0  0  0  0  0  0  0  0  0  0  0  0
    7.5516   -5.7674    1.5588 N   0  0  0  0  0  0  0  0  0  0  0  0
    8.2919   -4.7315    1.2920 N   0  0  0  0  0  0  0  0  0  0  0  0
    7.5563   -3.9884    0.4419 N   0  0  0  0  0  0  0  0  0  0  0  0
    4.0246   -4.2054   -3.0041 H   0  0  0  0  0  0  0  0  0  0  0  0
    2.4034   -3.0612   -4.5599 H   0  0  0  0  0  0  0  0  0  0  0  0
    2.3514   -0.5522   -4.6105 H   0  0  0  0  0  0  0  0  0  0  0  0
    5.2524   -0.2613   -1.7223 H   0  0  0  0  0  0  0  0  0  0  0  0
  1  2  2  0
  2 16  1  0
  2  3  1  0
  3  4  1  0
  4  5  1  0
  4 11  2  0
  5 10  1  0
  5  6  2  0
  6  7  1  0
  6 17  1  0
  7  8  2  0
  7 18  1  0
  8  9  1  0
  8 19  1  0
  9 10  2  0
 10 20  1  0
 11 12  1  0
 12 16  1  0
 12 13  2  0
 13 14  1  0
 14 15  2  0
 15 16  1  0
M  CHG  1   3  -1
M  END
>  <i_m_ct_stereo_status>  (50) 
1

>  <s_m_source_file>  (50) 
/var/tmp/pbs.5076255.sched01/tmps52fw2z9/0bkrl5082.sdf

>  <i_m_source_file_index>  (50) 
19

>  <i_lp_mmshare_version>  (50) 
48012

>  <i_f3d_flags>  (50) 
0

>  <s_epik_input>  (50) 
bjFubm4oYzEyKWMoPU8pW25IXWMobjIpLWMzW2NIXVtjSF1bY0hdbltjSF0z

>  <s_epik_cmdline>  (50) 
J2VwaWtfcHl0aG9uJywgJy1waHQnLCAnMi4wJywgJy1waCcsICc3LjAnLCAnLXRuJywgJzgnLCAnLW1hJywgJzIwMCcsICctaW1hZScsICc8aW5maWxlLm1hZT4nLCAnLW9tYWUnLCAnPG91dGZpbGUubWFlPic=

>  <r_epik_Ionization_Penalty>  (50) 
0.0500652

>  <r_epik_Ionization_Penalty_Charging>  (50) 
3.07846e-14

>  <r_epik_Ionization_Penalty_Neutral>  (50) 
0.0500652

>  <r_epik_State_Penalty>  (50) 
0.0427867

>  <r_epik_Charging_Adjusted_Penalty>  (50) 
0.0427867

>  <i_epik_Tot_Q>  (50) 
-1

>  <i_epik_Tot_abs_Q>  (50) 
1

>  <s_lp_Force_Field>  (50) 
OPLS3e

>  <r_lp_Energy>  (50) 
47.8561

>  <b_lp_Chiralities_Consistent>  (50) 
1

>  <s_lp_Variant>  (50) 
15:0-1

>  <s_i_glide_gridfile>  (50) 
pfpi4k_grid

>  <i_i_glide_lignum>  (50) 
19

>  <i_i_glide_rotatable_bonds>  (50) 
1

>  <r_i_docking_score>  (50) 
-4.18438

>  <r_i_glide_ligand_efficiency>  (50) 
-0.261524

>  <r_i_glide_ligand_efficiency_sa>  (50) 
-0.658999

>  <r_i_glide_ligand_efficiency_ln>  (50) 
-1.10915

>  <r_i_glide_gscore>  (50) 
-4.18438

>  <r_i_glide_lipo>  (50) 
-0.344945

>  <r_i_glide_hbond>  (50) 
-0.2

>  <r_i_glide_metal>  (50) 
-0

>  <r_i_glide_rewards>  (50) 
-2.43218

>  <r_i_glide_evdw>  (50) 
-26.4876

>  <r_i_glide_ecoul>  (50) 
-1.64676

>  <r_i_glide_erotb>  (50) 
0.364137

>  <r_i_glide_esite>  (50) 
0

>  <r_i_glide_emodel>  (50) 
-36.9496

>  <r_i_glide_energy>  (50) 
-28.1343

>  <r_i_glide_einternal>  (50) 
0.494442

>  <r_i_glide_intrahb_reward>  (50) 
-0

>  <i_i_glide_confnum>  (50) 
4

>  <i_i_glide_posenum>  (50) 
8

>  <r_i_glide_eff_state_penalty>  (50) 
0

>  <ligand_id>  (50) 
15

>  <original_smiles>  (50) 
O=c1[nH]c(-c2cccnc2)nc2nnnn12

>  <smiles>  (50) 
[H]c1nc([H])c(-c2nc3nnnn3c(=O)[n-]2)c([H])c1[H]

$$$$
15:0:2
     RDKit          3D

 20 22  0  0  1  0  0  0  0  0999 V2000
    6.3030   -5.1134    1.3091 O   0  0  0  0  0  0  0  0  0  0  0  0
    5.2805   -4.7386    0.7420 C   0  0  0  0  0  0  0  0  0  0  0  0
    5.1987   -3.8422   -0.2808 N   0  0  0  0  0  0  0  0  0  0  0  0
    3.9580   -3.5356   -0.8054 C   0  0  0  0  0  0  0  0  0  0  0  0
    3.9088   -2.5916   -1.9377 C   0  0  0  0  0  0  0  0  0  0  0  0
    4.1837   -1.2254   -1.7319 C   0  0  0  0  0  0  0  0  0  0  0  0
    4.1574   -0.3643   -2.8454 C   0  0  0  0  0  0  0  0  0  0  0  0
    3.8518   -0.9001   -4.1089 C   0  0  0  0  0  0  0  0  0  0  0  0
    3.6347   -2.2117   -4.3177 N   0  0  0  0  0  0  0  0  0  0  0  0
    3.6369   -3.0356   -3.2504 C   0  0  0  0  0  0  0  0  0  0  0  0
    2.8602   -4.0445   -0.3597 N   0  0  0  0  0  0  0  0  0  0  0  0
    2.8854   -4.9527    0.6666 C   0  0  0  0  0  0  0  0  0  0  0  0
    1.8978   -5.6055    1.2792 N   0  0  0  0  0  0  0  0  0  0  0  0
    2.5342   -6.3627    2.2578 N   0  0  0  0  0  0  0  0  0  0  0  0
    3.8236   -6.1936    2.2363 N   0  0  0  0  0  0  0  0  0  0  0  0
    4.0519   -5.3137    1.2330 N   0  0  0  0  0  0  0  0  0  0  0  0
    4.4078   -0.8488   -0.7443 H   0  0  0  0  0  0  0  0  0  0  0  0
    4.3360    0.6930   -2.7301 H   0  0  0  0  0  0  0  0  0  0  0  0
    3.8162   -0.2599   -4.9791 H   0  0  0  0  0  0  0  0  0  0  0  0
    3.4598   -4.0778   -3.4720 H   0  0  0  0  0  0  0  0  0  0  0  0
  1  2  2  0
  2 16  1  0
  2  3  1  0
  3  4  1  0
  4  5  1  0
  4 11  2  0
  5 10  1  0
  5  6  2  0
  6  7  1  0
  6 17  1  0
  7  8  2  0
  7 18  1  0
  8  9  1  0
  8 19  1  0
  9 10  2  0
 10 20  1  0
 11 12  1  0
 12 16  1  0
 12 13  2  0
 13 14  1  0
 14 15  2  0
 15 16  1  0
M  CHG  1   3  -1
M  END
>  <i_m_ct_stereo_status>  (51) 
1

>  <s_m_source_file>  (51) 
/var/tmp/pbs.5076255.sched01/tmps52fw2z9/0bkrl5082.sdf

>  <i_m_source_file_index>  (51) 
19

>  <i_lp_mmshare_version>  (51) 
48012

>  <i_f3d_flags>  (51) 
0

>  <s_epik_input>  (51) 
bjFubm4oYzEyKWMoPU8pW25IXWMobjIpLWMzW2NIXVtjSF1bY0hdbltjSF0z

>  <s_epik_cmdline>  (51) 
J2VwaWtfcHl0aG9uJywgJy1waHQnLCAnMi4wJywgJy1waCcsICc3LjAnLCAnLXRuJywgJzgnLCAnLW1hJywgJzIwMCcsICctaW1hZScsICc8aW5maWxlLm1hZT4nLCAnLW9tYWUnLCAnPG91dGZpbGUubWFlPic=

>  <r_epik_Ionization_Penalty>  (51) 
0.0500652

>  <r_epik_Ionization_Penalty_Charging>  (51) 
3.07846e-14

>  <r_epik_Ionization_Penalty_Neutral>  (51) 
0.0500652

>  <r_epik_State_Penalty>  (51) 
0.0427867

>  <r_epik_Charging_Adjusted_Penalty>  (51) 
0.0427867

>  <i_epik_Tot_Q>  (51) 
-1

>  <i_epik_Tot_abs_Q>  (51) 
1

>  <s_lp_Force_Field>  (51) 
OPLS3e

>  <r_lp_Energy>  (51) 
47.8561

>  <b_lp_Chiralities_Consistent>  (51) 
1

>  <s_lp_Variant>  (51) 
15:0-1

>  <s_i_glide_gridfile>  (51) 
pfpi4k_grid

>  <i_i_glide_lignum>  (51) 
19

>  <i_i_glide_rotatable_bonds>  (51) 
1

>  <r_i_docking_score>  (51) 
-4.1411

>  <r_i_glide_ligand_efficiency>  (51) 
-0.258819

>  <r_i_glide_ligand_efficiency_sa>  (51) 
-0.652182

>  <r_i_glide_ligand_efficiency_ln>  (51) 
-1.09768

>  <r_i_glide_gscore>  (51) 
-4.1411

>  <r_i_glide_lipo>  (51) 
-0.461254

>  <r_i_glide_hbond>  (51) 
-0.32

>  <r_i_glide_metal>  (51) 
-0

>  <r_i_glide_rewards>  (51) 
-2.08357

>  <r_i_glide_evdw>  (51) 
-20.9421

>  <r_i_glide_ecoul>  (51) 
-3.3415

>  <r_i_glide_erotb>  (51) 
0.364137

>  <r_i_glide_esite>  (51) 
-0.0920807

>  <r_i_glide_emodel>  (51) 
-32.1833

>  <r_i_glide_energy>  (51) 
-24.2836

>  <r_i_glide_einternal>  (51) 
2.15498

>  <r_i_glide_intrahb_reward>  (51) 
-0

>  <i_i_glide_confnum>  (51) 
1

>  <i_i_glide_posenum>  (51) 
15

>  <r_i_glide_eff_state_penalty>  (51) 
0

>  <ligand_id>  (51) 
15

>  <original_smiles>  (51) 
O=c1[nH]c(-c2cccnc2)nc2nnnn12

>  <smiles>  (51) 
[H]c1nc([H])c(-c2nc3nnnn3c(=O)[n-]2)c([H])c1[H]

$$$$
15:1:0
     RDKit          3D

 21 23  0  0  1  0  0  0  0  0999 V2000
    9.0050   -2.1848    0.2679 O   0  0  0  0  0  0  0  0  0  0  0  0
    7.9622   -2.7191   -0.0958 C   0  0  0  0  0  0  0  0  0  0  0  0
    7.0560   -2.2276   -0.9893 N   0  0  0  0  0  0  0  0  0  0  0  0
    5.8962   -2.9403   -1.2333 C   0  0  0  0  0  0  0  0  0  0  0  0
    4.9172   -2.3680   -2.1842 C   0  0  0  0  0  0  0  0  0  0  0  0
    4.7456   -0.9721   -2.2439 C   0  0  0  0  0  0  0  0  0  0  0  0
    3.8541   -0.4336   -3.1850 C   0  0  0  0  0  0  0  0  0  0  0  0
    3.0952   -1.2943   -3.9994 C   0  0  0  0  0  0  0  0  0  0  0  0
    3.2693   -2.6336   -3.9132 N   0  0  0  0  0  0  0  0  0  0  0  0
    4.1547   -3.1862   -3.0475 C   0  0  0  0  0  0  0  0  0  0  0  0
    5.6469   -4.0727   -0.6737 N   0  0  0  0  0  0  0  0  0  0  0  0
    6.5363   -4.6240    0.2106 C   0  0  0  0  0  0  0  0  0  0  0  0
    6.5123   -5.7703    0.8851 N   0  0  0  0  0  0  0  0  0  0  0  0
    7.7071   -5.7864    1.5968 N   0  0  0  0  0  0  0  0  0  0  0  0
    8.4265   -4.7310    1.3605 N   0  0  0  0  0  0  0  0  0  0  0  0
    7.6874   -3.9904    0.5051 N   0  0  0  0  0  0  0  0  0  0  0  0
    5.3259   -0.3306   -1.6046 H   0  0  0  0  0  0  0  0  0  0  0  0
    3.7668    0.6327   -3.2769 H   0  0  0  0  0  0  0  0  0  0  0  0
    2.3725   -0.9338   -4.7119 H   0  0  0  0  0  0  0  0  0  0  0  0
    4.2467   -4.2541   -3.0671 H   0  0  0  0  0  0  0  0  0  0  0  0
    2.7009   -3.2435   -4.5074 H   0  0  0  0  0  0  0  0  0  0  0  0
  1  2  2  0
  2 16  1  0
  2  3  1  0
  3  4  1  0
  4  5  1  0
  4 11  2  0
  5 10  1  0
  5  6  2  0
  6  7  1  0
  6 17  1  0
  7  8  2  0
  7 18  1  0
  8  9  1  0
  8 19  1  0
  9 10  2  0
  9 21  1  0
 10 20  1  0
 11 12  1  0
 12 16  1  0
 12 13  2  0
 13 14  1  0
 14 15  2  0
 15 16  1  0
M  CHG  2   3  -1   9   1
M  END
>  <i_m_ct_stereo_status>  (52) 
1

>  <s_m_source_file>  (52) 
/var/tmp/pbs.5076255.sched01/tmps52fw2z9/0bkrl5082.sdf

>  <i_m_source_file_index>  (52) 
20

>  <i_lp_mmshare_version>  (52) 
48012

>  <i_f3d_flags>  (52) 
0

>  <s_epik_input>  (52) 
bjFubm4oYzEyKWMoPU8pW25IXWMobjIpLWMzW2NIXVtjSF1bY0hdbltjSF0z

>  <s_epik_cmdline>  (52) 
J2VwaWtfcHl0aG9uJywgJy1waHQnLCAnMi4wJywgJy1waCcsICc3LjAnLCAnLXRuJywgJzgnLCAnLW1hJywgJzIwMCcsICctaW1hZScsICc8aW5maWxlLm1hZT4nLCAnLW9tYWUnLCAnPG91dGZpbGUubWFlPic=

>  <r_epik_Ionization_Penalty>  (52) 
1.4891

>  <r_epik_Ionization_Penalty_Charging>  (52) 
1.4891

>  <r_epik_Ionization_Penalty_Neutral>  (52) 
2.21676e-07

>  <r_epik_State_Penalty>  (52) 
1.57838

>  <r_epik_Charging_Adjusted_Penalty>  (52) 
3.06748

>  <i_epik_Tot_Q>  (52) 
0

>  <i_epik_Tot_abs_Q>  (52) 
2

>  <s_lp_Force_Field>  (52) 
OPLS3e

>  <r_lp_Energy>  (52) 
46.4202

>  <b_lp_Chiralities_Consistent>  (52) 
1

>  <s_lp_Variant>  (52) 
15:0-2

>  <s_i_glide_gridfile>  (52) 
pfpi4k_grid

>  <i_i_glide_lignum>  (52) 
20

>  <i_i_glide_rotatable_bonds>  (52) 
1

>  <r_i_docking_score>  (52) 
-4.64038

>  <r_i_glide_ligand_efficiency>  (52) 
-0.290024

>  <r_i_glide_ligand_efficiency_sa>  (52) 
-0.730814

>  <r_i_glide_ligand_efficiency_ln>  (52) 
-1.23002

>  <r_i_glide_gscore>  (52) 
-4.64038

>  <r_i_glide_lipo>  (52) 
-0.389376

>  <r_i_glide_hbond>  (52) 
-0.2

>  <r_i_glide_metal>  (52) 
-0

>  <r_i_glide_rewards>  (52) 
-2.48265

>  <r_i_glide_evdw>  (52) 
-21.5774

>  <r_i_glide_ecoul>  (52) 
-5.67169

>  <r_i_glide_erotb>  (52) 
0.361272

>  <r_i_glide_esite>  (52) 
0

>  <r_i_glide_emodel>  (52) 
-38.7783

>  <r_i_glide_energy>  (52) 
-27.2491

>  <r_i_glide_einternal>  (52) 
0.387138

>  <r_i_glide_intrahb_reward>  (52) 
-0

>  <i_i_glide_confnum>  (52) 
4

>  <i_i_glide_posenum>  (52) 
2

>  <r_i_glide_eff_state_penalty>  (52) 
0

>  <ligand_id>  (52) 
15

>  <original_smiles>  (52) 
O=c1[nH]c(-c2cccnc2)nc2nnnn12

>  <smiles>  (52) 
[H]c1c([H])c([H])[n+]([H])c([H])c1-c1nc2nnnn2c(=O)[n-]1

$$$$
15:1:1
     RDKit          3D

 21 23  0  0  1  0  0  0  0  0999 V2000
    6.0502   -5.0983    1.4091 O   0  0  0  0  0  0  0  0  0  0  0  0
    5.0057   -4.8137    0.8286 C   0  0  0  0  0  0  0  0  0  0  0  0
    4.8562   -3.8924   -0.1640 N   0  0  0  0  0  0  0  0  0  0  0  0
    3.6044   -3.6862   -0.7083 C   0  0  0  0  0  0  0  0  0  0  0  0
    3.4830   -2.7030   -1.8026 C   0  0  0  0  0  0  0  0  0  0  0  0
    4.2048   -1.4928   -1.7248 C   0  0  0  0  0  0  0  0  0  0  0  0
    4.1030   -0.5727   -2.7836 C   0  0  0  0  0  0  0  0  0  0  0  0
    3.2822   -0.8646   -3.8848 C   0  0  0  0  0  0  0  0  0  0  0  0
    2.6142   -2.0409   -3.9240 N   0  0  0  0  0  0  0  0  0  0  0  0
    2.6777   -2.9542   -2.9335 C   0  0  0  0  0  0  0  0  0  0  0  0
    2.5577   -4.3291   -0.3161 N   0  0  0  0  0  0  0  0  0  0  0  0
    2.6499   -5.2664    0.6816 C   0  0  0  0  0  0  0  0  0  0  0  0
    1.7183   -6.0292    1.2515 N   0  0  0  0  0  0  0  0  0  0  0  0
    2.4061   -6.7608    2.2156 N   0  0  0  0  0  0  0  0  0  0  0  0
    3.6752   -6.4659    2.2321 N   0  0  0  0  0  0  0  0  0  0  0  0
    3.8340   -5.5313    1.2660 N   0  0  0  0  0  0  0  0  0  0  0  0
    4.8181   -1.2938   -0.8570 H   0  0  0  0  0  0  0  0  0  0  0  0
    4.6104    0.3717   -2.7257 H   0  0  0  0  0  0  0  0  0  0  0  0
    3.1159   -0.1933   -4.7155 H   0  0  0  0  0  0  0  0  0  0  0  0
    2.1037   -3.8553   -3.0891 H   0  0  0  0  0  0  0  0  0  0  0  0
    2.0387   -2.2320   -4.7522 H   0  0  0  0  0  0  0  0  0  0  0  0
  1  2  2  0
  2 16  1  0
  2  3  1  0
  3  4  1  0
  4  5  1  0
  4 11  2  0
  5 10  1  0
  5  6  2  0
  6  7  1  0
  6 17  1  0
  7  8  2  0
  7 18  1  0
  8  9  1  0
  8 19  1  0
  9 10  2  0
  9 21  1  0
 10 20  1  0
 11 12  1  0
 12 16  1  0
 12 13  2  0
 13 14  1  0
 14 15  2  0
 15 16  1  0
M  CHG  2   3  -1   9   1
M  END
>  <i_m_ct_stereo_status>  (53) 
1

>  <s_m_source_file>  (53) 
/var/tmp/pbs.5076255.sched01/tmps52fw2z9/0bkrl5082.sdf

>  <i_m_source_file_index>  (53) 
20

>  <i_lp_mmshare_version>  (53) 
48012

>  <i_f3d_flags>  (53) 
0

>  <s_epik_input>  (53) 
bjFubm4oYzEyKWMoPU8pW25IXWMobjIpLWMzW2NIXVtjSF1bY0hdbltjSF0z

>  <s_epik_cmdline>  (53) 
J2VwaWtfcHl0aG9uJywgJy1waHQnLCAnMi4wJywgJy1waCcsICc3LjAnLCAnLXRuJywgJzgnLCAnLW1hJywgJzIwMCcsICctaW1hZScsICc8aW5maWxlLm1hZT4nLCAnLW9tYWUnLCAnPG91dGZpbGUubWFlPic=

>  <r_epik_Ionization_Penalty>  (53) 
1.4891

>  <r_epik_Ionization_Penalty_Charging>  (53) 
1.4891

>  <r_epik_Ionization_Penalty_Neutral>  (53) 
2.21676e-07

>  <r_epik_State_Penalty>  (53) 
1.57838

>  <r_epik_Charging_Adjusted_Penalty>  (53) 
3.06748

>  <i_epik_Tot_Q>  (53) 
0

>  <i_epik_Tot_abs_Q>  (53) 
2

>  <s_lp_Force_Field>  (53) 
OPLS3e

>  <r_lp_Energy>  (53) 
46.4202

>  <b_lp_Chiralities_Consistent>  (53) 
1

>  <s_lp_Variant>  (53) 
15:0-2

>  <s_i_glide_gridfile>  (53) 
pfpi4k_grid

>  <i_i_glide_lignum>  (53) 
20

>  <i_i_glide_rotatable_bonds>  (53) 
1

>  <r_i_docking_score>  (53) 
-4.22054

>  <r_i_glide_ligand_efficiency>  (53) 
-0.263784

>  <r_i_glide_ligand_efficiency_sa>  (53) 
-0.664694

>  <r_i_glide_ligand_efficiency_ln>  (53) 
-1.11874

>  <r_i_glide_gscore>  (53) 
-4.22054

>  <r_i_glide_lipo>  (53) 
-0.415898

>  <r_i_glide_hbond>  (53) 
0

>  <r_i_glide_metal>  (53) 
-0

>  <r_i_glide_rewards>  (53) 
-2.05277

>  <r_i_glide_evdw>  (53) 
-20.428

>  <r_i_glide_ecoul>  (53) 
-6.55985

>  <r_i_glide_erotb>  (53) 
0.361272

>  <r_i_glide_esite>  (53) 
-0.107767

>  <r_i_glide_emodel>  (53) 
-37.3396

>  <r_i_glide_energy>  (53) 
-26.9879

>  <r_i_glide_einternal>  (53) 
0.670094

>  <r_i_glide_intrahb_reward>  (53) 
-0

>  <i_i_glide_confnum>  (53) 
4

>  <i_i_glide_posenum>  (53) 
12

>  <r_i_glide_eff_state_penalty>  (53) 
0

>  <ligand_id>  (53) 
15

>  <original_smiles>  (53) 
O=c1[nH]c(-c2cccnc2)nc2nnnn12

>  <smiles>  (53) 
[H]c1c([H])c([H])[n+]([H])c([H])c1-c1nc2nnnn2c(=O)[n-]1

$$$$
15:1:2
     RDKit          3D

 21 23  0  0  1  0  0  0  0  0999 V2000
    5.5618   -5.9230    1.7432 O   0  0  0  0  0  0  0  0  0  0  0  0
    4.6125   -5.4408    1.1284 C   0  0  0  0  0  0  0  0  0  0  0  0
    4.6496   -4.3584    0.3003 N   0  0  0  0  0  0  0  0  0  0  0  0
    3.4929   -3.9535   -0.3360 C   0  0  0  0  0  0  0  0  0  0  0  0
    3.5842   -2.8181   -1.2811 C   0  0  0  0  0  0  0  0  0  0  0  0
    2.8960   -2.8443   -2.5164 C   0  0  0  0  0  0  0  0  0  0  0  0
    3.0344   -1.7428   -3.3834 C   0  0  0  0  0  0  0  0  0  0  0  0
    3.8342   -0.6469   -3.0037 C   0  0  0  0  0  0  0  0  0  0  0  0
    4.4755   -0.6583   -1.8127 N   0  0  0  0  0  0  0  0  0  0  0  0
    4.3742   -1.6942   -0.9520 C   0  0  0  0  0  0  0  0  0  0  0  0
    2.3601   -4.5374   -0.1574 N   0  0  0  0  0  0  0  0  0  0  0  0
    2.2528   -5.6118    0.6874 C   0  0  0  0  0  0  0  0  0  0  0  0
    1.1925   -6.3338    1.0397 N   0  0  0  0  0  0  0  0  0  0  0  0
    1.7050   -7.2759    1.9306 N   0  0  0  0  0  0  0  0  0  0  0  0
    2.9875   -7.1310    2.1106 N   0  0  0  0  0  0  0  0  0  0  0  0
    3.3400   -6.0874    1.3269 N   0  0  0  0  0  0  0  0  0  0  0  0
    2.2844   -3.6918   -2.8017 H   0  0  0  0  0  0  0  0  0  0  0  0
    2.4948   -1.7270   -4.3168 H   0  0  0  0  0  0  0  0  0  0  0  0
    3.9411    0.2556   -3.5886 H   0  0  0  0  0  0  0  0  0  0  0  0
    4.9140   -1.6174   -0.0177 H   0  0  0  0  0  0  0  0  0  0  0  0
    5.0000    0.1765   -1.5247 H   0  0  0  0  0  0  0  0  0  0  0  0
  1  2  2  0
  2 16  1  0
  2  3  1  0
  3  4  1  0
  4  5  1  0
  4 11  2  0
  5 10  1  0
  5  6  2  0
  6  7  1  0
  6 17  1  0
  7  8  2  0
  7 18  1  0
  8  9  1  0
  8 19  1  0
  9 10  2  0
  9 21  1  0
 10 20  1  0
 11 12  1  0
 12 16  1  0
 12 13  2  0
 13 14  1  0
 14 15  2  0
 15 16  1  0
M  CHG  2   3  -1   9   1
M  END
>  <i_m_ct_stereo_status>  (54) 
1

>  <s_m_source_file>  (54) 
/var/tmp/pbs.5076255.sched01/tmps52fw2z9/0bkrl5082.sdf

>  <i_m_source_file_index>  (54) 
20

>  <i_lp_mmshare_version>  (54) 
48012

>  <i_f3d_flags>  (54) 
0

>  <s_epik_input>  (54) 
bjFubm4oYzEyKWMoPU8pW25IXWMobjIpLWMzW2NIXVtjSF1bY0hdbltjSF0z

>  <s_epik_cmdline>  (54) 
J2VwaWtfcHl0aG9uJywgJy1waHQnLCAnMi4wJywgJy1waCcsICc3LjAnLCAnLXRuJywgJzgnLCAnLW1hJywgJzIwMCcsICctaW1hZScsICc8aW5maWxlLm1hZT4nLCAnLW9tYWUnLCAnPG91dGZpbGUubWFlPic=

>  <r_epik_Ionization_Penalty>  (54) 
1.4891

>  <r_epik_Ionization_Penalty_Charging>  (54) 
1.4891

>  <r_epik_Ionization_Penalty_Neutral>  (54) 
2.21676e-07

>  <r_epik_State_Penalty>  (54) 
1.57838

>  <r_epik_Charging_Adjusted_Penalty>  (54) 
3.06748

>  <i_epik_Tot_Q>  (54) 
0

>  <i_epik_Tot_abs_Q>  (54) 
2

>  <s_lp_Force_Field>  (54) 
OPLS3e

>  <r_lp_Energy>  (54) 
46.4202

>  <b_lp_Chiralities_Consistent>  (54) 
1

>  <s_lp_Variant>  (54) 
15:0-2

>  <s_i_glide_gridfile>  (54) 
pfpi4k_grid

>  <i_i_glide_lignum>  (54) 
20

>  <i_i_glide_rotatable_bonds>  (54) 
1

>  <r_i_docking_score>  (54) 
-4.19287

>  <r_i_glide_ligand_efficiency>  (54) 
-0.262054

>  <r_i_glide_ligand_efficiency_sa>  (54) 
-0.660335

>  <r_i_glide_ligand_efficiency_ln>  (54) 
-1.1114

>  <r_i_glide_gscore>  (54) 
-4.19287

>  <r_i_glide_lipo>  (54) 
-0.248731

>  <r_i_glide_hbond>  (54) 
0

>  <r_i_glide_metal>  (54) 
-0

>  <r_i_glide_rewards>  (54) 
-2.0638

>  <r_i_glide_evdw>  (54) 
-20.7739

>  <r_i_glide_ecoul>  (54) 
-6.67101

>  <r_i_glide_erotb>  (54) 
0.361272

>  <r_i_glide_esite>  (54) 
-0.20226

>  <r_i_glide_emodel>  (54) 
-37.7368

>  <r_i_glide_energy>  (54) 
-27.4449

>  <r_i_glide_einternal>  (54) 
0.71195

>  <r_i_glide_intrahb_reward>  (54) 
-0

>  <i_i_glide_confnum>  (54) 
3

>  <i_i_glide_posenum>  (54) 
38

>  <r_i_glide_eff_state_penalty>  (54) 
0

>  <ligand_id>  (54) 
15

>  <original_smiles>  (54) 
O=c1[nH]c(-c2cccnc2)nc2nnnn12

>  <smiles>  (54) 
[H]c1c([H])c([H])[n+]([H])c([H])c1-c1nc2nnnn2c(=O)[n-]1

$$$$
17:0:0
     RDKit          3D

 38 41  0  0  1  0  0  0  0  0999 V2000
    3.1860   -0.0625   -3.9120 C   0  0  0  0  0  0  0  0  0  0  0  0
    3.7342   -1.3733   -3.4612 C   0  0  0  0  0  0  0  0  0  0  0  0
    3.8151   -2.4058   -4.2912 N   0  0  0  0  0  0  0  0  0  0  0  0
    4.3969   -3.4100   -3.4989 O   0  0  0  0  0  0  0  0  0  0  0  0
    4.5871   -2.8515   -2.2790 C   0  0  0  0  0  0  0  0  0  0  0  0
    5.3339   -3.8379   -1.0312 S   0  0  0  0  0  0  0  0  0  0  0  0
    3.8311   -4.3330   -0.1455 C   0  0  0  0  0  0  0  0  0  0  0  0
    4.0860   -5.5209    0.7240 C   0  0  0  0  0  0  0  0  0  0  0  0
    4.6130   -6.6946    0.3661 N   0  0  0  0  0  0  0  0  0  0  0  0
    4.6046   -7.4757    1.4998 N   0  0  0  0  0  0  0  0  0  0  0  0
    4.0680   -6.7190    2.4598 C   0  0  0  0  0  0  0  0  0  0  0  0
    3.8117   -7.1045    3.8819 C   0  0  0  0  0  0  0  0  0  0  0  0
    2.3961   -6.7700    4.3356 C   0  0  0  0  0  0  0  0  0  0  0  0
    2.2103   -5.6413    5.1645 C   0  0  0  0  0  0  0  0  0  0  0  0
    0.9244   -5.2749    5.5987 C   0  0  0  0  0  0  0  0  0  0  0  0
   -0.1893   -6.0384    5.2095 C   0  0  0  0  0  0  0  0  0  0  0  0
   -0.0252   -7.1625    4.3753 C   0  0  0  0  0  0  0  0  0  0  0  0
   -1.1577   -7.9059    3.9841 C   0  0  0  0  0  0  0  0  0  0  0  0
   -1.0091   -9.0361    3.1598 C   0  0  0  0  0  0  0  0  0  0  0  0
    0.2705   -9.4265    2.7290 C   0  0  0  0  0  0  0  0  0  0  0  0
    1.4039   -8.6853    3.1088 C   0  0  0  0  0  0  0  0  0  0  0  0
    1.2719   -7.5424    3.9362 C   0  0  0  0  0  0  0  0  0  0  0  0
    3.7276   -5.4735    2.0331 O   0  0  0  0  0  0  0  0  0  0  0  0
    4.2130   -1.5773   -2.2017 N   0  0  0  0  0  0  0  0  0  0  0  0
    3.0256   -0.0431   -4.9915 H   0  0  0  0  0  0  0  0  0  0  0  0
    3.8706    0.7377   -3.6392 H   0  0  0  0  0  0  0  0  0  0  0  0
    2.2251    0.1299   -3.4322 H   0  0  0  0  0  0  0  0  0  0  0  0
    3.4701   -3.4999    0.4571 H   0  0  0  0  0  0  0  0  0  0  0  0
    3.0490   -4.5805   -0.8600 H   0  0  0  0  0  0  0  0  0  0  0  0
    4.0125   -8.1692    4.0197 H   0  0  0  0  0  0  0  0  0  0  0  0
    4.5349   -6.5836    4.5099 H   0  0  0  0  0  0  0  0  0  0  0  0
    3.0601   -5.0487    5.4697 H   0  0  0  0  0  0  0  0  0  0  0  0
    0.7937   -4.4084    6.2311 H   0  0  0  0  0  0  0  0  0  0  0  0
   -1.1728   -5.7615    5.5546 H   0  0  0  0  0  0  0  0  0  0  0  0
   -2.1425   -7.6251    4.3248 H   0  0  0  0  0  0  0  0  0  0  0  0
   -1.8744   -9.6165    2.8748 H   0  0  0  0  0  0  0  0  0  0  0  0
    0.3840  -10.2973    2.0990 H   0  0  0  0  0  0  0  0  0  0  0  0
    2.3661   -9.0155    2.7508 H   0  0  0  0  0  0  0  0  0  0  0  0
  1  2  1  0
  1 25  1  0
  1 26  1  0
  1 27  1  0
  2 24  1  0
  2  3  2  0
  3  4  1  0
  4  5  1  0
  5  6  1  0
  5 24  2  0
  6  7  1  0
  7  8  1  0
  7 28  1  0
  7 29  1  0
  8 23  1  0
  8  9  2  0
  9 10  1  0
 10 11  2  0
 11 12  1  0
 11 23  1  0
 12 13  1  0
 12 30  1  0
 12 31  1  0
 13 22  1  0
 13 14  2  0
 14 15  1  0
 14 32  1  0
 15 16  2  0
 15 33  1  0
 16 17  1  0
 16 34  1  0
 17 22  2  0
 17 18  1  0
 18 19  2  0
 18 35  1  0
 19 20  1  0
 19 36  1  0
 20 21  2  0
 20 37  1  0
 21 22  1  0
 21 38  1  0
M  END
>  <i_m_ct_stereo_status>  (55) 
1

>  <s_m_source_file>  (55) 
/var/tmp/pbs.5076255.sched01/tmps52fw2z9/0bkrl5082.sdf

>  <i_m_source_file_index>  (55) 
22

>  <i_lp_mmshare_version>  (55) 
48012

>  <i_f3d_flags>  (55) 
0

>  <s_epik_input>  (55) 
W0NIM11jMW5vYyhuMSlTW0NIMl1jMm5uYyhvMilbQ0gyXWMoW2NIXVtjSF1bY0hdMyljKGMzNClbY0hdW2NIXVtjSF1bY0hdNA==

>  <s_epik_cmdline>  (55) 
J2VwaWtfcHl0aG9uJywgJy1waHQnLCAnMi4wJywgJy1waCcsICc3LjAnLCAnLXRuJywgJzgnLCAnLW1hJywgJzIwMCcsICctaW1hZScsICc8aW5maWxlLm1hZT4nLCAnLW9tYWUnLCAnPG91dGZpbGUubWFlPic=

>  <r_lp_tautomer_probability>  (55) 
1

>  <r_epik_Ionization_Penalty>  (55) 
3.70624e-10

>  <r_epik_Ionization_Penalty_Charging>  (55) 
0

>  <r_epik_Ionization_Penalty_Neutral>  (55) 
3.70624e-10

>  <r_epik_State_Penalty>  (55) 
-0

>  <r_epik_Charging_Adjusted_Penalty>  (55) 
0

>  <i_epik_Tot_Q>  (55) 
0

>  <i_epik_Tot_abs_Q>  (55) 
0

>  <s_lp_Force_Field>  (55) 
OPLS3e

>  <r_lp_Energy>  (55) 
21.5246

>  <b_lp_Chiralities_Consistent>  (55) 
1

>  <s_lp_Variant>  (55) 
17:0-1

>  <s_i_glide_gridfile>  (55) 
pfpi4k_grid

>  <i_i_glide_lignum>  (55) 
22

>  <i_i_glide_rotatable_bonds>  (55) 
5

>  <r_i_docking_score>  (55) 
-3.00683

>  <r_i_glide_ligand_efficiency>  (55) 
-0.125285

>  <r_i_glide_ligand_efficiency_sa>  (55) 
-0.361384

>  <r_i_glide_ligand_efficiency_ln>  (55) 
-0.719673

>  <r_i_glide_gscore>  (55) 
-3.00683

>  <r_i_glide_lipo>  (55) 
-0.270548

>  <r_i_glide_hbond>  (55) 
0

>  <r_i_glide_metal>  (55) 
-0

>  <r_i_glide_rewards>  (55) 
-1.33687

>  <r_i_glide_evdw>  (55) 
-31.7788

>  <r_i_glide_ecoul>  (55) 
-3.91039

>  <r_i_glide_erotb>  (55) 
0.825791

>  <r_i_glide_esite>  (55) 
-0.0497073

>  <r_i_glide_emodel>  (55) 
-41.9006

>  <r_i_glide_energy>  (55) 
-35.6892

>  <r_i_glide_einternal>  (55) 
2.42488

>  <r_i_glide_intrahb_reward>  (55) 
-0

>  <i_i_glide_confnum>  (55) 
4

>  <i_i_glide_posenum>  (55) 
16

>  <r_i_glide_eff_state_penalty>  (55) 
0

>  <ligand_id>  (55) 
17

>  <original_smiles>  (55) 
Cc1noc(SCc2nnc(Cc3cccc4ccccc34)o2)n1

>  <smiles>  (55) 
[H]c1c([H])c([H])c2c(C([H])([H])c3nnc(C([H])([H])Sc4nc(C([H])([H])[H])no4)o3)c([H])c([H])c([H])c2c1[H]

$$$$
17:0:1
     RDKit          3D

 38 41  0  0  1  0  0  0  0  0999 V2000
    3.3000    0.1800   -4.7053 C   0  0  0  0  0  0  0  0  0  0  0  0
    3.7170   -0.9481   -3.8422 C   0  0  0  0  0  0  0  0  0  0  0  0
    3.8010   -2.1813   -4.3188 N   0  0  0  0  0  0  0  0  0  0  0  0
    4.2283   -2.9255   -3.2171 O   0  0  0  0  0  0  0  0  0  0  0  0
    4.3555   -2.0391   -2.2033 C   0  0  0  0  0  0  0  0  0  0  0  0
    4.9183   -2.6068   -0.6371 S   0  0  0  0  0  0  0  0  0  0  0  0
    4.8918   -4.4260   -0.8584 C   0  0  0  0  0  0  0  0  0  0  0  0
    3.8747   -5.0398    0.0437 C   0  0  0  0  0  0  0  0  0  0  0  0
    2.6587   -4.5808    0.3445 N   0  0  0  0  0  0  0  0  0  0  0  0
    2.1096   -5.4974    1.2038 N   0  0  0  0  0  0  0  0  0  0  0  0
    3.0091   -6.4759    1.3206 C   0  0  0  0  0  0  0  0  0  0  0  0
    2.9300   -7.7229    2.1464 C   0  0  0  0  0  0  0  0  0  0  0  0
    1.5745   -7.9712    2.8225 C   0  0  0  0  0  0  0  0  0  0  0  0
    0.3900   -7.7228    2.0816 C   0  0  0  0  0  0  0  0  0  0  0  0
   -0.8804   -7.8792    2.6589 C   0  0  0  0  0  0  0  0  0  0  0  0
   -0.9951   -8.3402    3.9777 C   0  0  0  0  0  0  0  0  0  0  0  0
    0.1666   -8.6358    4.7248 C   0  0  0  0  0  0  0  0  0  0  0  0
    0.0162   -9.1297    6.0360 C   0  0  0  0  0  0  0  0  0  0  0  0
    1.1439   -9.4543    6.8085 C   0  0  0  0  0  0  0  0  0  0  0  0
    2.4293   -9.2725    6.2693 C   0  0  0  0  0  0  0  0  0  0  0  0
    2.5911   -8.7870    4.9580 C   0  0  0  0  0  0  0  0  0  0  0  0
    1.4606   -8.4565    4.1590 C   0  0  0  0  0  0  0  0  0  0  0  0
    4.1509   -6.2387    0.6210 O   0  0  0  0  0  0  0  0  0  0  0  0
    4.0853   -0.7853   -2.5476 N   0  0  0  0  0  0  0  0  0  0  0  0
    3.2701   -0.1179   -5.7540 H   0  0  0  0  0  0  0  0  0  0  0  0
    4.0050    1.0038   -4.6042 H   0  0  0  0  0  0  0  0  0  0  0  0
    2.3074    0.5299   -4.4270 H   0  0  0  0  0  0  0  0  0  0  0  0
    4.6610   -4.7589   -1.8717 H   0  0  0  0  0  0  0  0  0  0  0  0
    5.8754   -4.8173   -0.5851 H   0  0  0  0  0  0  0  0  0  0  0  0
    3.1661   -8.5847    1.5202 H   0  0  0  0  0  0  0  0  0  0  0  0
    3.7400   -7.6340    2.8692 H   0  0  0  0  0  0  0  0  0  0  0  0
    0.4407   -7.4008    1.0512 H   0  0  0  0  0  0  0  0  0  0  0  0
   -1.7670   -7.6454    2.0870 H   0  0  0  0  0  0  0  0  0  0  0  0
   -1.9779   -8.4905    4.4043 H   0  0  0  0  0  0  0  0  0  0  0  0
   -0.9708   -9.2962    6.4416 H   0  0  0  0  0  0  0  0  0  0  0  0
    1.0265   -9.8490    7.8065 H   0  0  0  0  0  0  0  0  0  0  0  0
    3.2970   -9.5322    6.8556 H   0  0  0  0  0  0  0  0  0  0  0  0
    3.6009   -8.7022    4.5936 H   0  0  0  0  0  0  0  0  0  0  0  0
  1  2  1  0
  1 25  1  0
  1 26  1  0
  1 27  1  0
  2 24  1  0
  2  3  2  0
  3  4  1  0
  4  5  1  0
  5  6  1  0
  5 24  2  0
  6  7  1  0
  7  8  1  0
  7 28  1  0
  7 29  1  0
  8 23  1  0
  8  9  2  0
  9 10  1  0
 10 11  2  0
 11 12  1  0
 11 23  1  0
 12 13  1  0
 12 30  1  0
 12 31  1  0
 13 22  1  0
 13 14  2  0
 14 15  1  0
 14 32  1  0
 15 16  2  0
 15 33  1  0
 16 17  1  0
 16 34  1  0
 17 22  2  0
 17 18  1  0
 18 19  2  0
 18 35  1  0
 19 20  1  0
 19 36  1  0
 20 21  2  0
 20 37  1  0
 21 22  1  0
 21 38  1  0
M  END
>  <i_m_ct_stereo_status>  (56) 
1

>  <s_m_source_file>  (56) 
/var/tmp/pbs.5076255.sched01/tmps52fw2z9/0bkrl5082.sdf

>  <i_m_source_file_index>  (56) 
22

>  <i_lp_mmshare_version>  (56) 
48012

>  <i_f3d_flags>  (56) 
0

>  <s_epik_input>  (56) 
W0NIM11jMW5vYyhuMSlTW0NIMl1jMm5uYyhvMilbQ0gyXWMoW2NIXVtjSF1bY0hdMyljKGMzNClbY0hdW2NIXVtjSF1bY0hdNA==

>  <s_epik_cmdline>  (56) 
J2VwaWtfcHl0aG9uJywgJy1waHQnLCAnMi4wJywgJy1waCcsICc3LjAnLCAnLXRuJywgJzgnLCAnLW1hJywgJzIwMCcsICctaW1hZScsICc8aW5maWxlLm1hZT4nLCAnLW9tYWUnLCAnPG91dGZpbGUubWFlPic=

>  <r_lp_tautomer_probability>  (56) 
1

>  <r_epik_Ionization_Penalty>  (56) 
3.70624e-10

>  <r_epik_Ionization_Penalty_Charging>  (56) 
0

>  <r_epik_Ionization_Penalty_Neutral>  (56) 
3.70624e-10

>  <r_epik_State_Penalty>  (56) 
-0

>  <r_epik_Charging_Adjusted_Penalty>  (56) 
0

>  <i_epik_Tot_Q>  (56) 
0

>  <i_epik_Tot_abs_Q>  (56) 
0

>  <s_lp_Force_Field>  (56) 
OPLS3e

>  <r_lp_Energy>  (56) 
21.5246

>  <b_lp_Chiralities_Consistent>  (56) 
1

>  <s_lp_Variant>  (56) 
17:0-1

>  <s_i_glide_gridfile>  (56) 
pfpi4k_grid

>  <i_i_glide_lignum>  (56) 
22

>  <i_i_glide_rotatable_bonds>  (56) 
5

>  <r_i_docking_score>  (56) 
-2.97147

>  <r_i_glide_ligand_efficiency>  (56) 
-0.123811

>  <r_i_glide_ligand_efficiency_sa>  (56) 
-0.357133

>  <r_i_glide_ligand_efficiency_ln>  (56) 
-0.711209

>  <r_i_glide_gscore>  (56) 
-2.97147

>  <r_i_glide_lipo>  (56) 
-0.14157

>  <r_i_glide_hbond>  (56) 
0

>  <r_i_glide_metal>  (56) 
-0

>  <r_i_glide_rewards>  (56) 
-1.36313

>  <r_i_glide_evdw>  (56) 
-34.6428

>  <r_i_glide_ecoul>  (56) 
-2.85449

>  <r_i_glide_erotb>  (56) 
0.825791

>  <r_i_glide_esite>  (56) 
-0.132245

>  <r_i_glide_emodel>  (56) 
-42.6285

>  <r_i_glide_energy>  (56) 
-37.4973

>  <r_i_glide_einternal>  (56) 
3.98681

>  <r_i_glide_intrahb_reward>  (56) 
-0

>  <i_i_glide_confnum>  (56) 
6

>  <i_i_glide_posenum>  (56) 
12

>  <r_i_glide_eff_state_penalty>  (56) 
0

>  <ligand_id>  (56) 
17

>  <original_smiles>  (56) 
Cc1noc(SCc2nnc(Cc3cccc4ccccc34)o2)n1

>  <smiles>  (56) 
[H]c1c([H])c([H])c2c(C([H])([H])c3nnc(C([H])([H])Sc4nc(C([H])([H])[H])no4)o3)c([H])c([H])c([H])c2c1[H]

$$$$
17:0:2
     RDKit          3D

 38 41  0  0  1  0  0  0  0  0999 V2000
    2.0928   -2.7617   -3.6480 C   0  0  0  0  0  0  0  0  0  0  0  0
    3.2708   -2.3582   -2.8537 C   0  0  0  0  0  0  0  0  0  0  0  0
    3.9693   -1.2514   -3.0749 N   0  0  0  0  0  0  0  0  0  0  0  0
    4.9066   -1.2485   -2.0243 O   0  0  0  0  0  0  0  0  0  0  0  0
    4.6663   -2.3906   -1.3328 C   0  0  0  0  0  0  0  0  0  0  0  0
    5.6035   -2.7450    0.1155 S   0  0  0  0  0  0  0  0  0  0  0  0
    5.5092   -4.5792    0.1249 C   0  0  0  0  0  0  0  0  0  0  0  0
    4.1920   -5.1343    0.5813 C   0  0  0  0  0  0  0  0  0  0  0  0
    2.9824   -4.5607    0.5168 N   0  0  0  0  0  0  0  0  0  0  0  0
    2.0771   -5.5011    0.9175 N   0  0  0  0  0  0  0  0  0  0  0  0
    2.8097   -6.5465    1.3145 C   0  0  0  0  0  0  0  0  0  0  0  0
    2.2983   -7.7632    1.9990 C   0  0  0  0  0  0  0  0  0  0  0  0
    1.0282   -7.4785    2.8063 C   0  0  0  0  0  0  0  0  0  0  0  0
   -0.2144   -7.8568    2.2504 C   0  0  0  0  0  0  0  0  0  0  0  0
   -1.4185   -7.6607    2.9511 C   0  0  0  0  0  0  0  0  0  0  0  0
   -1.3861   -7.0594    4.2155 C   0  0  0  0  0  0  0  0  0  0  0  0
   -0.1679   -6.6299    4.7739 C   0  0  0  0  0  0  0  0  0  0  0  0
   -0.1613   -6.0083    6.0383 C   0  0  0  0  0  0  0  0  0  0  0  0
    1.0498   -5.5893    6.6191 C   0  0  0  0  0  0  0  0  0  0  0  0
    2.2616   -5.7844    5.9288 C   0  0  0  0  0  0  0  0  0  0  0  0
    2.2606   -6.4004    4.6616 C   0  0  0  0  0  0  0  0  0  0  0  0
    1.0547   -6.8373    4.0697 C   0  0  0  0  0  0  0  0  0  0  0  0
    4.1440   -6.3961    1.0908 O   0  0  0  0  0  0  0  0  0  0  0  0
    3.7045   -3.1293   -1.8462 N   0  0  0  0  0  0  0  0  0  0  0  0
    1.7820   -1.9728   -4.3213 H   0  0  0  0  0  0  0  0  0  0  0  0
    1.2620   -3.0032   -2.9903 H   0  0  0  0  0  0  0  0  0  0  0  0
    2.3243   -3.6563   -4.2136 H   0  0  0  0  0  0  0  0  0  0  0  0
    5.7406   -4.9461   -0.8736 H   0  0  0  0  0  0  0  0  0  0  0  0
    6.2879   -4.9610    0.7826 H   0  0  0  0  0  0  0  0  0  0  0  0
    2.0992   -8.5163    1.2334 H   0  0  0  0  0  0  0  0  0  0  0  0
    3.0834   -8.1585    2.6550 H   0  0  0  0  0  0  0  0  0  0  0  0
   -0.2492   -8.3239    1.2799 H   0  0  0  0  0  0  0  0  0  0  0  0
   -2.3506   -7.9859    2.5207 H   0  0  0  0  0  0  0  0  0  0  0  0
   -2.3075   -6.8999    4.7513 H   0  0  0  0  0  0  0  0  0  0  0  0
   -1.0870   -5.8555    6.5717 H   0  0  0  0  0  0  0  0  0  0  0  0
    1.0507   -5.1230    7.5924 H   0  0  0  0  0  0  0  0  0  0  0  0
    3.1942   -5.4671    6.3724 H   0  0  0  0  0  0  0  0  0  0  0  0
    3.2095   -6.5249    4.1636 H   0  0  0  0  0  0  0  0  0  0  0  0
  1  2  1  0
  1 25  1  0
  1 26  1  0
  1 27  1  0
  2 24  1  0
  2  3  2  0
  3  4  1  0
  4  5  1  0
  5  6  1  0
  5 24  2  0
  6  7  1  0
  7  8  1  0
  7 28  1  0
  7 29  1  0
  8 23  1  0
  8  9  2  0
  9 10  1  0
 10 11  2  0
 11 12  1  0
 11 23  1  0
 12 13  1  0
 12 30  1  0
 12 31  1  0
 13 22  1  0
 13 14  2  0
 14 15  1  0
 14 32  1  0
 15 16  2  0
 15 33  1  0
 16 17  1  0
 16 34  1  0
 17 22  2  0
 17 18  1  0
 18 19  2  0
 18 35  1  0
 19 20  1  0
 19 36  1  0
 20 21  2  0
 20 37  1  0
 21 22  1  0
 21 38  1  0
M  END
>  <i_m_ct_stereo_status>  (57) 
1

>  <s_m_source_file>  (57) 
/var/tmp/pbs.5076255.sched01/tmps52fw2z9/0bkrl5082.sdf

>  <i_m_source_file_index>  (57) 
22

>  <i_lp_mmshare_version>  (57) 
48012

>  <i_f3d_flags>  (57) 
0

>  <s_epik_input>  (57) 
W0NIM11jMW5vYyhuMSlTW0NIMl1jMm5uYyhvMilbQ0gyXWMoW2NIXVtjSF1bY0hdMyljKGMzNClbY0hdW2NIXVtjSF1bY0hdNA==

>  <s_epik_cmdline>  (57) 
J2VwaWtfcHl0aG9uJywgJy1waHQnLCAnMi4wJywgJy1waCcsICc3LjAnLCAnLXRuJywgJzgnLCAnLW1hJywgJzIwMCcsICctaW1hZScsICc8aW5maWxlLm1hZT4nLCAnLW9tYWUnLCAnPG91dGZpbGUubWFlPic=

>  <r_lp_tautomer_probability>  (57) 
1

>  <r_epik_Ionization_Penalty>  (57) 
3.70624e-10

>  <r_epik_Ionization_Penalty_Charging>  (57) 
0

>  <r_epik_Ionization_Penalty_Neutral>  (57) 
3.70624e-10

>  <r_epik_State_Penalty>  (57) 
-0

>  <r_epik_Charging_Adjusted_Penalty>  (57) 
0

>  <i_epik_Tot_Q>  (57) 
0

>  <i_epik_Tot_abs_Q>  (57) 
0

>  <s_lp_Force_Field>  (57) 
OPLS3e

>  <r_lp_Energy>  (57) 
21.5246

>  <b_lp_Chiralities_Consistent>  (57) 
1

>  <s_lp_Variant>  (57) 
17:0-1

>  <s_i_glide_gridfile>  (57) 
pfpi4k_grid

>  <i_i_glide_lignum>  (57) 
22

>  <i_i_glide_rotatable_bonds>  (57) 
5

>  <r_i_docking_score>  (57) 
-2.56944

>  <r_i_glide_ligand_efficiency>  (57) 
-0.10706

>  <r_i_glide_ligand_efficiency_sa>  (57) 
-0.308815

>  <r_i_glide_ligand_efficiency_ln>  (57) 
-0.614986

>  <r_i_glide_gscore>  (57) 
-2.56944

>  <r_i_glide_lipo>  (57) 
-0.417716

>  <r_i_glide_hbond>  (57) 
0

>  <r_i_glide_metal>  (57) 
-0

>  <r_i_glide_rewards>  (57) 
-1.10192

>  <r_i_glide_evdw>  (57) 
-32.0058

>  <r_i_glide_ecoul>  (57) 
-1.01663

>  <r_i_glide_erotb>  (57) 
0.825791

>  <r_i_glide_esite>  (57) 
-0.122812

>  <r_i_glide_emodel>  (57) 
-37.418

>  <r_i_glide_energy>  (57) 
-33.0224

>  <r_i_glide_einternal>  (57) 
2.14558

>  <r_i_glide_intrahb_reward>  (57) 
-0

>  <i_i_glide_confnum>  (57) 
6

>  <i_i_glide_posenum>  (57) 
1

>  <r_i_glide_eff_state_penalty>  (57) 
0

>  <ligand_id>  (57) 
17

>  <original_smiles>  (57) 
Cc1noc(SCc2nnc(Cc3cccc4ccccc34)o2)n1

>  <smiles>  (57) 
[H]c1c([H])c([H])c2c(C([H])([H])c3nnc(C([H])([H])Sc4nc(C([H])([H])[H])no4)o3)c([H])c([H])c([H])c2c1[H]

$$$$
19:0:0
     RDKit          3D

 87 93  0  0  1  0  0  0  0  0999 V2000
    4.2580   -3.9123    1.4249 C   0  0  0  0  0  0  0  0  0  0  0  0
    4.3850   -2.6587    1.8952 C   0  0  0  0  0  0  0  0  0  0  0  0
    5.1117   -2.0932    3.0755 C   0  0  1  0  0  0  0  0  0  0  0  0
    5.4056   -0.9758    2.0459 C   0  0  1  0  0  0  0  0  0  0  0  0
    6.6179   -1.0846    1.3131 O   0  0  0  0  0  0  0  0  0  0  0  0
    4.0622   -1.3160    1.3263 C   0  0  1  0  0  0  0  0  0  0  0  0
    4.0906   -1.2831   -0.2142 C   0  0  0  0  0  0  0  0  0  0  0  0
    2.7543   -0.6958    1.9430 C   0  0  1  0  0  0  0  0  0  0  0  0
    2.1565    0.1537    0.9697 O   0  0  0  0  0  0  0  0  0  0  0  0
    1.6573   -1.7038    2.3994 C   0  0  0  0  0  0  0  0  0  0  0  0
    0.7799   -1.2859    3.6225 C   0  0  2  0  0  0  0  0  0  0  0  0
   -0.1053   -0.2297    3.2963 O   0  0  0  0  0  0  0  0  0  0  0  0
    0.3177    1.0851    3.2175 C   0  0  1  0  0  0  0  0  0  0  0  0
   -0.4333    1.7341    2.2210 O   0  0  0  0  0  0  0  0  0  0  0  0
    0.1788    1.6746    4.6250 C   0  0  2  0  0  0  0  0  0  0  0  0
   -0.5697    3.0825    4.7320 C   0  0  0  0  0  0  0  0  0  0  0  0
    0.1850    4.2331    4.0227 C   0  0  0  0  0  0  0  0  0  0  0  0
   -2.0361    3.0250    4.2111 C   0  0  0  0  0  0  0  0  0  0  0  0
   -0.8051    3.4486    6.2241 C   0  0  0  0  0  0  0  0  0  0  0  0
    0.3624    3.1487    7.1347 C   0  0  0  0  0  0  0  0  0  0  0  0
    0.8638    1.7235    6.9360 C   0  0  0  0  0  0  0  0  0  0  0  0
    1.4900    1.3763    5.5328 C   0  0  2  0  0  0  0  0  0  0  0  0
    2.6370    2.3993    5.3171 C   0  0  0  0  0  0  0  0  0  0  0  0
    3.6182    2.4538    6.5064 C   0  0  0  0  0  0  0  0  0  0  0  0
    4.0356    1.1220    7.2201 C   0  0  0  0  0  0  0  0  0  0  0  0
    5.5310    0.8524    6.8876 C   0  0  0  0  0  0  0  0  0  0  0  0
    4.0978    1.4632    8.7406 C   0  0  0  0  0  0  0  0  0  0  0  0
    3.0872   -0.1502    6.8903 C   0  0  1  0  0  0  0  0  0  0  0  0
    2.4810   -0.8264    8.1696 C   0  0  0  0  0  0  0  0  0  0  0  0
    1.3828   -0.5922    8.6391 O   0  0  0  0  0  0  0  0  0  0  0  0
    2.2486   -0.1076    5.4848 C   0  0  2  0  0  0  0  0  0  0  0  0
    3.4201   -0.3719    4.3598 C   0  0  2  0  0  0  0  0  0  0  0  0
    3.1315    0.0943    3.0348 O   0  0  0  0  0  0  0  0  0  0  0  0
    4.2253   -1.7626    4.3360 C   0  0  2  0  0  0  0  0  0  0  0  0
    5.2783   -1.6644    5.2738 O   0  0  0  0  0  0  0  0  0  0  0  0
    3.3897   -2.9839    4.7846 C   0  0  0  0  0  0  0  0  0  0  0  0
    2.0178   -2.6978    5.4126 C   0  0  0  0  0  0  0  0  0  0  0  0
    1.2870   -1.3464    5.1287 C   0  0  2  0  0  0  0  0  0  0  0  0
    0.0021   -1.5135    6.0140 C   0  0  0  0  0  0  0  0  0  0  0  0
    3.7812   -4.1033    0.4829 H   0  0  0  0  0  0  0  0  0  0  0  0
    4.6533   -4.7413    1.9756 H   0  0  0  0  0  0  0  0  0  0  0  0
    5.9962   -2.6798    3.3164 H   0  0  0  0  0  0  0  0  0  0  0  0
    5.4160    0.0173    2.4950 H   0  0  0  0  0  0  0  0  0  0  0  0
    7.1947   -0.3985    1.6178 H   0  0  0  0  0  0  0  0  0  0  0  0
    4.2238   -0.2595   -0.5904 H   0  0  0  0  0  0  0  0  0  0  0  0
    3.1826   -1.6911   -0.6710 H   0  0  0  0  0  0  0  0  0  0  0  0
    4.9390   -1.8451   -0.6194 H   0  0  0  0  0  0  0  0  0  0  0  0
    1.6524   -0.3578    0.3318 H   0  0  0  0  0  0  0  0  0  0  0  0
    1.0016   -1.8582    1.5401 H   0  0  0  0  0  0  0  0  0  0  0  0
    2.0129   -2.7228    2.5571 H   0  0  0  0  0  0  0  0  0  0  0  0
    0.0745   -2.1086    3.6024 H   0  0  0  0  0  0  0  0  0  0  0  0
    1.3121    1.2506    2.8981 H   0  0  0  0  0  0  0  0  0  0  0  0
    0.0657    2.4521    1.8630 H   0  0  0  0  0  0  0  0  0  0  0  0
   -0.6149    1.0715    5.0541 H   0  0  0  0  0  0  0  0  0  0  0  0
   -0.4998    4.9310    3.5457 H   0  0  0  0  0  0  0  0  0  0  0  0
    0.8472    3.8617    3.2400 H   0  0  0  0  0  0  0  0  0  0  0  0
    0.7902    4.8267    4.7072 H   0  0  0  0  0  0  0  0  0  0  0  0
   -2.6392    3.8191    4.6461 H   0  0  0  0  0  0  0  0  0  0  0  0
   -2.5148    2.0848    4.4789 H   0  0  0  0  0  0  0  0  0  0  0  0
   -2.1247    3.1490    3.1361 H   0  0  0  0  0  0  0  0  0  0  0  0
   -1.0455    4.5072    6.3143 H   0  0  0  0  0  0  0  0  0  0  0  0
   -1.6765    2.9085    6.6188 H   0  0  0  0  0  0  0  0  0  0  0  0
    1.1388    3.9040    7.0204 H   0  0  0  0  0  0  0  0  0  0  0  0
    0.0202    3.2503    8.1606 H   0  0  0  0  0  0  0  0  0  0  0  0
    1.5544    1.6322    7.7475 H   0  0  0  0  0  0  0  0  0  0  0  0
    0.0494    1.0482    7.1536 H   0  0  0  0  0  0  0  0  0  0  0  0
    3.1622    2.2244    4.3853 H   0  0  0  0  0  0  0  0  0  0  0  0
    2.2635    3.4057    5.1868 H   0  0  0  0  0  0  0  0  0  0  0  0
    4.4980    3.0007    6.1840 H   0  0  0  0  0  0  0  0  0  0  0  0
    3.1863    3.1187    7.2641 H   0  0  0  0  0  0  0  0  0  0  0  0
    5.8761   -0.0885    7.3134 H   0  0  0  0  0  0  0  0  0  0  0  0
    6.1753    1.6289    7.3048 H   0  0  0  0  0  0  0  0  0  0  0  0
    5.7605    0.8560    5.8251 H   0  0  0  0  0  0  0  0  0  0  0  0
    4.5120    0.6506    9.3315 H   0  0  0  0  0  0  0  0  0  0  0  0
    3.1275    1.7132    9.1539 H   0  0  0  0  0  0  0  0  0  0  0  0
    4.7230    2.3337    8.9182 H   0  0  0  0  0  0  0  0  0  0  0  0
    3.7917   -0.9483    6.7502 H   0  0  0  0  0  0  0  0  0  0  0  0
    3.1917   -1.5392    8.6294 H   0  0  0  0  0  0  0  0  0  0  0  0
    4.1925    0.3478    4.5710 H   0  0  0  0  0  0  0  0  0  0  0  0
    5.7898   -0.9181    5.0244 H   0  0  0  0  0  0  0  0  0  0  0  0
    3.2262   -3.6720    3.9582 H   0  0  0  0  0  0  0  0  0  0  0  0
    3.9741   -3.6053    5.4706 H   0  0  0  0  0  0  0  0  0  0  0  0
    1.3681   -3.5237    5.1297 H   0  0  0  0  0  0  0  0  0  0  0  0
    2.1446   -2.8210    6.4866 H   0  0  0  0  0  0  0  0  0  0  0  0
    0.2212   -1.6075    7.0665 H   0  0  0  0  0  0  0  0  0  0  0  0
   -0.5468   -2.4171    5.6773 H   0  0  0  0  0  0  0  0  0  0  0  0
   -0.7481   -0.7377    5.8779 H   0  0  0  0  0  0  0  0  0  0  0  0
  1  2  2  0
  1 40  1  0
  1 41  1  0
  2  6  1  0
  2  3  1  0
  3 34  1  0
  3  4  1  0
  3 42  1  1
  4  5  1  0
  4  6  1  0
  4 43  1  1
  5 44  1  0
  6  7  1  6
  6  8  1  0
  7 45  1  0
  7 46  1  0
  7 47  1  0
  8 33  1  0
  8  9  1  6
  8 10  1  0
  9 48  1  0
 10 11  1  0
 10 49  1  0
 10 50  1  0
 11 38  1  0
 11 12  1  0
 11 51  1  1
 12 13  1  0
 13 14  1  0
 13 15  1  0
 13 52  1  6
 14 53  1  0
 15 22  1  0
 15 16  1  0
 15 54  1  1
 16 17  1  0
 16 18  1  0
 16 19  1  0
 17 55  1  0
 17 56  1  0
 17 57  1  0
 18 58  1  0
 18 59  1  0
 18 60  1  0
 19 20  1  0
 19 61  1  0
 19 62  1  0
 20 21  1  0
 20 63  1  0
 20 64  1  0
 22 21  1  1
 21 65  1  0
 21 66  1  0
 31 22  1  6
 22 23  1  0
 23 24  1  0
 23 67  1  0
 23 68  1  0
 24 25  1  0
 24 69  1  0
 24 70  1  0
 25 26  1  0
 25 27  1  0
 25 28  1  0
 26 71  1  0
 26 72  1  0
 26 73  1  0
 27 74  1  0
 27 75  1  0
 27 76  1  0
 28 29  1  0
 28 31  1  0
 28 77  1  6
 29 30  2  0
 29 78  1  0
 31 38  1  0
 31 32  1  0
 32 33  1  0
 32 34  1  0
 32 79  1  1
 34 35  1  1
 34 36  1  0
 35 80  1  0
 36 37  1  0
 36 81  1  0
 36 82  1  0
 37 38  1  0
 37 83  1  0
 37 84  1  0
 38 39  1  1
 39 85  1  0
 39 86  1  0
 39 87  1  0
M  END
>  <i_m_ct_stereo_status>  (58) 
1

>  <s_m_source_file>  (58) 
/var/tmp/pbs.5076255.sched01/tmps52fw2z9/0bkrl5082.sdf

>  <i_m_source_file_index>  (58) 
24

>  <i_lp_mmshare_version>  (58) 
48012

>  <i_f3d_flags>  (58) 
0

>  <s_epik_input>  (58) 
W0NIMl0xW0NIMl1DKFtDSDNdKShbQ0gzXSlbQ0BASF0oW0NIXT1PKVtDQEBdMihbQ0BAXTEzNClbQ0BIXTVbQ0BdNihbT0hdKVtDQEhdN0MoPVtDSDJdKVtDQF0oW0NIM10pKFtDQEBIXTdbT0hdKVtDQEBdKE81KShbT0hdKVtDSDJdW0NAQEhdKFtDQEBdMihbQ0gzXSlbQ0gyXVtDSDJdNilPW0NAQEhdKFtPSF0pW0NAQEhdM0MoW0NIM10pKFtDSDNdKVtDSDJdW0NIMl1bQ0gyXTQ=

>  <s_epik_cmdline>  (58) 
J2VwaWtfcHl0aG9uJywgJy1waHQnLCAnMi4wJywgJy1waCcsICc3LjAnLCAnLXRuJywgJzgnLCAnLW1hJywgJzIwMCcsICctaW1hZScsICc8aW5maWxlLm1hZT4nLCAnLW9tYWUnLCAnPG91dGZpbGUubWFlPic=

>  <r_lp_tautomer_probability>  (58) 
1

>  <r_epik_Ionization_Penalty>  (58) 
5.37846e-07

>  <r_epik_Ionization_Penalty_Charging>  (58) 
0

>  <r_epik_Ionization_Penalty_Neutral>  (58) 
5.37846e-07

>  <r_epik_State_Penalty>  (58) 
-0

>  <r_epik_Charging_Adjusted_Penalty>  (58) 
0

>  <i_epik_Tot_Q>  (58) 
0

>  <i_epik_Tot_abs_Q>  (58) 
0

>  <s_epik_Chemistry_Notes>  (58) 
This compound contains an acetal/aminal-like group ( X-CH(R)-Y where X, Y are N, S, or O) that may be acid/base labile, releasing an aldehyde.

>  <s_lp_Force_Field>  (58) 
OPLS3e

>  <r_lp_Energy>  (58) 
186.806

>  <b_lp_Chiralities_Consistent>  (58) 
1

>  <s_lp_Variant>  (58) 
19:0-1

>  <s_i_glide_gridfile>  (58) 
pfpi4k_grid

>  <i_i_glide_lignum>  (58) 
24

>  <i_i_glide_rotatable_bonds>  (58) 
5

>  <r_i_docking_score>  (58) 
-2.89466

>  <r_i_glide_ligand_efficiency>  (58) 
-0.074222

>  <r_i_glide_ligand_efficiency_sa>  (58) 
-0.251703

>  <r_i_glide_ligand_efficiency_ln>  (58) 
-0.620697

>  <r_i_glide_gscore>  (58) 
-2.89466

>  <r_i_glide_lipo>  (58) 
-0.234874

>  <r_i_glide_hbond>  (58) 
-0.294022

>  <r_i_glide_metal>  (58) 
-0

>  <r_i_glide_rewards>  (58) 
0

>  <r_i_glide_evdw>  (58) 
-17.7936

>  <r_i_glide_ecoul>  (58) 
-9.41242

>  <r_i_glide_erotb>  (58) 
0

>  <r_i_glide_esite>  (58) 
-0.0642215

>  <r_i_glide_emodel>  (58) 
-29.121

>  <r_i_glide_energy>  (58) 
-27.206

>  <r_i_glide_einternal>  (58) 
5.94353

>  <r_i_glide_intrahb_reward>  (58) 
-0

>  <i_i_glide_confnum>  (58) 
1

>  <i_i_glide_posenum>  (58) 
14

>  <r_i_glide_eff_state_penalty>  (58) 
0

>  <ligand_id>  (58) 
19

>  <original_smiles>  (58) 
C=C1C2C(O)C1(C)C1(O)CC3OC(O)C4C(C)(C)CCCC45CCC(C)(C)C(C=O)C54C(O1)C2(O)CCC34C

>  <smiles>  (58) 
[H]OC1([H])OC2([H])C([H])([H])C3(O[H])OC4([H])C(O[H])(C([H])([H])C([H])([H])C2(C([H])([H])[H])C42C([H])(C([H])=O)C(C([H])([H])[H])(C([H])([H])[H])C([H])([H])C([H])([H])C24C([H])([H])C([H])([H])C([H])([H])C(C([H])([H])[H])(C([H])([H])[H])C14[H])C1([H])C(=C([H])[H])C3(C([H])([H])[H])C1([H])O[H]

$$$$
19:0:1
     RDKit          3D

 87 93  0  0  1  0  0  0  0  0999 V2000
    4.0404   -3.8633    1.6298 C   0  0  0  0  0  0  0  0  0  0  0  0
    4.1986   -2.6139    2.1129 C   0  0  0  0  0  0  0  0  0  0  0  0
    4.9512   -2.0776    3.2891 C   0  0  1  0  0  0  0  0  0  0  0  0
    5.2549   -0.9515    2.2682 C   0  0  1  0  0  0  0  0  0  0  0  0
    6.4418   -1.0599    1.4951 O   0  0  0  0  0  0  0  0  0  0  0  0
    3.8943   -1.2555    1.5646 C   0  0  1  0  0  0  0  0  0  0  0  0
    3.9048   -1.2154    0.0287 C   0  0  0  0  0  0  0  0  0  0  0  0
    2.6095   -0.6200    2.2147 C   0  0  1  0  0  0  0  0  0  0  0  0
    2.0371    0.2575    1.2535 O   0  0  0  0  0  0  0  0  0  0  0  0
    1.4846   -1.6090    2.6675 C   0  0  0  0  0  0  0  0  0  0  0  0
    0.6404   -1.1944    3.9152 C   0  0  2  0  0  0  0  0  0  0  0  0
   -0.2340   -0.1312    3.6152 O   0  0  0  0  0  0  0  0  0  0  0  0
    0.2102    1.1780    3.5496 C   0  0  1  0  0  0  0  0  0  0  0  0
   -0.5414    1.8503    2.5774 O   0  0  0  0  0  0  0  0  0  0  0  0
    0.1189    1.7475    4.9715 C   0  0  2  0  0  0  0  0  0  0  0  0
   -0.5976    3.1713    5.1025 C   0  0  0  0  0  0  0  0  0  0  0  0
    0.1642    4.3160    4.3921 C   0  0  0  0  0  0  0  0  0  0  0  0
   -2.0739    3.1549    4.6030 C   0  0  0  0  0  0  0  0  0  0  0  0
   -0.7984    3.5129    6.6047 C   0  0  0  0  0  0  0  0  0  0  0  0
    0.3704    3.1741    7.4979 C   0  0  0  0  0  0  0  0  0  0  0  0
    0.8379    1.7327    7.2786 C   0  0  0  0  0  0  0  0  0  0  0  0
    1.4395    1.4039    5.8532 C   0  0  2  0  0  0  0  0  0  0  0  0
    2.5950    2.4159    5.6353 C   0  0  0  0  0  0  0  0  0  0  0  0
    3.5962    2.4392    6.8051 C   0  0  0  0  0  0  0  0  0  0  0  0
    4.0123    1.0915    7.4899 C   0  0  0  0  0  0  0  0  0  0  0  0
    5.4931    0.8047    7.1313 C   0  0  0  0  0  0  0  0  0  0  0  0
    4.1145    1.4312    9.0135 C   0  0  0  0  0  0  0  0  0  0  0  0
    3.0560   -0.1704    7.1546 C   0  0  1  0  0  0  0  0  0  0  0  0
    2.3970   -0.7713    8.4353 C   0  0  0  0  0  0  0  0  0  0  0  0
    2.3742   -1.9752    8.6330 O   0  0  0  0  0  0  0  0  0  0  0  0
    2.1846   -0.0912    5.7714 C   0  0  2  0  0  0  0  0  0  0  0  0
    3.3217   -0.3508    4.6191 C   0  0  2  0  0  0  0  0  0  0  0  0
    3.0098    0.1480    3.3118 O   0  0  0  0  0  0  0  0  0  0  0  0
    4.0946   -1.7583    4.5575 C   0  0  2  0  0  0  0  0  0  0  0  0
    5.1673   -1.6944    5.4772 O   0  0  0  0  0  0  0  0  0  0  0  0
    3.2408   -2.9755    4.9860 C   0  0  0  0  0  0  0  0  0  0  0  0
    1.8678   -2.6927    5.6407 C   0  0  0  0  0  0  0  0  0  0  0  0
    1.1854   -1.2950    5.4054 C   0  0  2  0  0  0  0  0  0  0  0  0
   -0.0763   -1.4145    6.3156 C   0  0  0  0  0  0  0  0  0  0  0  0
    3.5421   -4.0311    0.6957 H   0  0  0  0  0  0  0  0  0  0  0  0
    4.4298   -4.7032    2.1714 H   0  0  0  0  0  0  0  0  0  0  0  0
    5.8076   -2.7102    3.5123 H   0  0  0  0  0  0  0  0  0  0  0  0
    5.2916    0.0325    2.7396 H   0  0  0  0  0  0  0  0  0  0  0  0
    6.9733   -0.2750    1.6655 H   0  0  0  0  0  0  0  0  0  0  0  0
    4.0633   -0.1939   -0.3335 H   0  0  0  0  0  0  0  0  0  0  0  0
    2.9935   -1.6005   -0.4213 H   0  0  0  0  0  0  0  0  0  0  0  0
    4.7318   -1.7949   -0.3904 H   0  0  0  0  0  0  0  0  0  0  0  0
    1.5799   -0.2436    0.5877 H   0  0  0  0  0  0  0  0  0  0  0  0
    0.8089   -1.7384    1.8182 H   0  0  0  0  0  0  0  0  0  0  0  0
    1.8235   -2.6337    2.8085 H   0  0  0  0  0  0  0  0  0  0  0  0
   -0.0899   -1.9999    3.9015 H   0  0  0  0  0  0  0  0  0  0  0  0
    1.1971    1.3419    3.2036 H   0  0  0  0  0  0  0  0  0  0  0  0
   -1.4497    1.8041    2.8231 H   0  0  0  0  0  0  0  0  0  0  0  0
   -0.6806    1.1603    5.4037 H   0  0  0  0  0  0  0  0  0  0  0  0
   -0.5135    5.0354    3.9377 H   0  0  0  0  0  0  0  0  0  0  0  0
    0.8003    3.9425    3.5874 H   0  0  0  0  0  0  0  0  0  0  0  0
    0.7939    4.8914    5.0705 H   0  0  0  0  0  0  0  0  0  0  0  0
   -2.6466    3.9573    5.0627 H   0  0  0  0  0  0  0  0  0  0  0  0
   -2.5719    2.2222    4.8666 H   0  0  0  0  0  0  0  0  0  0  0  0
   -2.1823    3.3102    3.5325 H   0  0  0  0  0  0  0  0  0  0  0  0
   -1.0092    4.5772    6.7099 H   0  0  0  0  0  0  0  0  0  0  0  0
   -1.6811    2.9986    7.0011 H   0  0  0  0  0  0  0  0  0  0  0  0
    1.1605    3.9104    7.3739 H   0  0  0  0  0  0  0  0  0  0  0  0
    0.0471    3.2820    8.5301 H   0  0  0  0  0  0  0  0  0  0  0  0
    1.5193    1.5993    8.0888 H   0  0  0  0  0  0  0  0  0  0  0  0
    0.0112    1.0687    7.4980 H   0  0  0  0  0  0  0  0  0  0  0  0
    3.1032    2.2478    4.6917 H   0  0  0  0  0  0  0  0  0  0  0  0
    2.2393    3.4313    5.5179 H   0  0  0  0  0  0  0  0  0  0  0  0
    4.4806    2.9748    6.4681 H   0  0  0  0  0  0  0  0  0  0  0  0
    3.1922    3.1053    7.5756 H   0  0  0  0  0  0  0  0  0  0  0  0
    5.8239   -0.1488    7.5410 H   0  0  0  0  0  0  0  0  0  0  0  0
    6.1548    1.5635    7.5480 H   0  0  0  0  0  0  0  0  0  0  0  0
    5.7039    0.8150    6.0642 H   0  0  0  0  0  0  0  0  0  0  0  0
    4.5085    0.5982    9.5913 H   0  0  0  0  0  0  0  0  0  0  0  0
    3.1658    1.7308    9.4477 H   0  0  0  0  0  0  0  0  0  0  0  0
    4.7683    2.2823    9.1833 H   0  0  0  0  0  0  0  0  0  0  0  0
    3.7323   -0.9997    7.0200 H   0  0  0  0  0  0  0  0  0  0  0  0
    2.0328   -0.0382    9.1810 H   0  0  0  0  0  0  0  0  0  0  0  0
    4.1106    0.3544    4.8305 H   0  0  0  0  0  0  0  0  0  0  0  0
    5.7090   -0.9665    5.2177 H   0  0  0  0  0  0  0  0  0  0  0  0
    3.0876   -3.6615    4.1512 H   0  0  0  0  0  0  0  0  0  0  0  0
    3.8134   -3.5936    5.6752 H   0  0  0  0  0  0  0  0  0  0  0  0
    1.1876   -3.4751    5.2572 H   0  0  0  0  0  0  0  0  0  0  0  0
    1.9801   -2.8688    6.7070 H   0  0  0  0  0  0  0  0  0  0  0  0
    0.1556   -1.4624    7.3773 H   0  0  0  0  0  0  0  0  0  0  0  0
   -0.6196   -2.3342    6.0942 H   0  0  0  0  0  0  0  0  0  0  0  0
   -0.8199   -0.6434    6.1982 H   0  0  0  0  0  0  0  0  0  0  0  0
  1  2  2  0
  1 40  1  0
  1 41  1  0
  2  6  1  0
  2  3  1  0
  3 34  1  0
  3  4  1  0
  3 42  1  1
  4  5  1  0
  4  6  1  0
  4 43  1  1
  5 44  1  0
  6  7  1  6
  6  8  1  0
  7 45  1  0
  7 46  1  0
  7 47  1  0
  8 33  1  0
  8  9  1  6
  8 10  1  0
  9 48  1  0
 10 11  1  0
 10 49  1  0
 10 50  1  0
 11 38  1  0
 11 12  1  0
 11 51  1  1
 12 13  1  0
 13 14  1  0
 13 15  1  0
 13 52  1  6
 14 53  1  0
 15 22  1  0
 15 16  1  0
 15 54  1  1
 16 17  1  0
 16 18  1  0
 16 19  1  0
 17 55  1  0
 17 56  1  0
 17 57  1  0
 18 58  1  0
 18 59  1  0
 18 60  1  0
 19 20  1  0
 19 61  1  0
 19 62  1  0
 20 21  1  0
 20 63  1  0
 20 64  1  0
 22 21  1  1
 21 65  1  0
 21 66  1  0
 31 22  1  6
 22 23  1  0
 23 24  1  0
 23 67  1  0
 23 68  1  0
 24 25  1  0
 24 69  1  0
 24 70  1  0
 25 26  1  0
 25 27  1  0
 25 28  1  0
 26 71  1  0
 26 72  1  0
 26 73  1  0
 27 74  1  0
 27 75  1  0
 27 76  1  0
 28 29  1  0
 28 31  1  0
 28 77  1  6
 29 30  2  0
 29 78  1  0
 31 38  1  0
 31 32  1  0
 32 33  1  0
 32 34  1  0
 32 79  1  1
 34 35  1  1
 34 36  1  0
 35 80  1  0
 36 37  1  0
 36 81  1  0
 36 82  1  0
 37 38  1  0
 37 83  1  0
 37 84  1  0
 38 39  1  1
 39 85  1  0
 39 86  1  0
 39 87  1  0
M  END
>  <i_m_ct_stereo_status>  (59) 
1

>  <s_m_source_file>  (59) 
/var/tmp/pbs.5076255.sched01/tmps52fw2z9/0bkrl5082.sdf

>  <i_m_source_file_index>  (59) 
24

>  <i_lp_mmshare_version>  (59) 
48012

>  <i_f3d_flags>  (59) 
0

>  <s_epik_input>  (59) 
W0NIMl0xW0NIMl1DKFtDSDNdKShbQ0gzXSlbQ0BASF0oW0NIXT1PKVtDQEBdMihbQ0BAXTEzNClbQ0BIXTVbQ0BdNihbT0hdKVtDQEhdN0MoPVtDSDJdKVtDQF0oW0NIM10pKFtDQEBIXTdbT0hdKVtDQEBdKE81KShbT0hdKVtDSDJdW0NAQEhdKFtDQEBdMihbQ0gzXSlbQ0gyXVtDSDJdNilPW0NAQEhdKFtPSF0pW0NAQEhdM0MoW0NIM10pKFtDSDNdKVtDSDJdW0NIMl1bQ0gyXTQ=

>  <s_epik_cmdline>  (59) 
J2VwaWtfcHl0aG9uJywgJy1waHQnLCAnMi4wJywgJy1waCcsICc3LjAnLCAnLXRuJywgJzgnLCAnLW1hJywgJzIwMCcsICctaW1hZScsICc8aW5maWxlLm1hZT4nLCAnLW9tYWUnLCAnPG91dGZpbGUubWFlPic=

>  <r_lp_tautomer_probability>  (59) 
1

>  <r_epik_Ionization_Penalty>  (59) 
5.37846e-07

>  <r_epik_Ionization_Penalty_Charging>  (59) 
0

>  <r_epik_Ionization_Penalty_Neutral>  (59) 
5.37846e-07

>  <r_epik_State_Penalty>  (59) 
-0

>  <r_epik_Charging_Adjusted_Penalty>  (59) 
0

>  <i_epik_Tot_Q>  (59) 
0

>  <i_epik_Tot_abs_Q>  (59) 
0

>  <s_epik_Chemistry_Notes>  (59) 
This compound contains an acetal/aminal-like group ( X-CH(R)-Y where X, Y are N, S, or O) that may be acid/base labile, releasing an aldehyde.

>  <s_lp_Force_Field>  (59) 
OPLS3e

>  <r_lp_Energy>  (59) 
186.806

>  <b_lp_Chiralities_Consistent>  (59) 
1

>  <s_lp_Variant>  (59) 
19:0-1

>  <s_i_glide_gridfile>  (59) 
pfpi4k_grid

>  <i_i_glide_lignum>  (59) 
24

>  <i_i_glide_rotatable_bonds>  (59) 
5

>  <r_i_docking_score>  (59) 
-2.4437

>  <r_i_glide_ligand_efficiency>  (59) 
-0.0626589

>  <r_i_glide_ligand_efficiency_sa>  (59) 
-0.21249

>  <r_i_glide_ligand_efficiency_ln>  (59) 
-0.523998

>  <r_i_glide_gscore>  (59) 
-2.4437

>  <r_i_glide_lipo>  (59) 
-0.196369

>  <r_i_glide_hbond>  (59) 
-0.304

>  <r_i_glide_metal>  (59) 
-0

>  <r_i_glide_rewards>  (59) 
0

>  <r_i_glide_evdw>  (59) 
-20.316

>  <r_i_glide_ecoul>  (59) 
-5.85215

>  <r_i_glide_erotb>  (59) 
0

>  <r_i_glide_esite>  (59) 
-0.0497048

>  <r_i_glide_emodel>  (59) 
-27.7627

>  <r_i_glide_energy>  (59) 
-26.1682

>  <r_i_glide_einternal>  (59) 
3.74334

>  <r_i_glide_intrahb_reward>  (59) 
-0

>  <i_i_glide_confnum>  (59) 
1

>  <i_i_glide_posenum>  (59) 
2

>  <r_i_glide_eff_state_penalty>  (59) 
0

>  <ligand_id>  (59) 
19

>  <original_smiles>  (59) 
C=C1C2C(O)C1(C)C1(O)CC3OC(O)C4C(C)(C)CCCC45CCC(C)(C)C(C=O)C54C(O1)C2(O)CCC34C

>  <smiles>  (59) 
[H]OC1([H])OC2([H])C([H])([H])C3(O[H])OC4([H])C(O[H])(C([H])([H])C([H])([H])C2(C([H])([H])[H])C42C([H])(C([H])=O)C(C([H])([H])[H])(C([H])([H])[H])C([H])([H])C([H])([H])C24C([H])([H])C([H])([H])C([H])([H])C(C([H])([H])[H])(C([H])([H])[H])C14[H])C1([H])C(=C([H])[H])C3(C([H])([H])[H])C1([H])O[H]

$$$$
19:0:2
     RDKit          3D

 87 93  0  0  1  0  0  0  0  0999 V2000
    5.4129   -2.7146    5.0799 C   0  0  0  0  0  0  0  0  0  0  0  0
    5.2054   -1.4008    5.1402 C   0  0  0  0  0  0  0  0  0  0  0  0
    5.3152   -0.4107    6.2610 C   0  0  1  0  0  0  0  0  0  0  0  0
    5.8320    0.4911    5.1158 C   0  0  1  0  0  0  0  0  0  0  0  0
    7.2432    0.5461    4.9359 O   0  0  0  0  0  0  0  0  0  0  0  0
    4.9735   -0.3448    4.1025 C   0  0  1  0  0  0  0  0  0  0  0  0
    5.6272   -0.6808    2.7389 C   0  0  0  0  0  0  0  0  0  0  0  0
    3.4646    0.0426    3.9805 C   0  0  1  0  0  0  0  0  0  0  0  0
    3.2493    0.4680    2.6528 O   0  0  0  0  0  0  0  0  0  0  0  0
    2.4313   -1.0934    4.2847 C   0  0  0  0  0  0  0  0  0  0  0  0
    1.0780   -0.6668    4.9308 C   0  0  2  0  0  0  0  0  0  0  0  0
    0.2557    0.0065    3.9979 O   0  0  0  0  0  0  0  0  0  0  0  0
    0.4713    1.3343    3.6748 C   0  0  1  0  0  0  0  0  0  0  0  0
    0.1220    1.5361    2.3380 O   0  0  0  0  0  0  0  0  0  0  0  0
   -0.3053    2.1688    4.6881 C   0  0  2  0  0  0  0  0  0  0  0  0
   -1.2276    3.3148    4.0818 C   0  0  0  0  0  0  0  0  0  0  0  0
   -0.4512    4.4490    3.3816 C   0  0  0  0  0  0  0  0  0  0  0  0
   -2.3239    2.7791    3.1227 C   0  0  0  0  0  0  0  0  0  0  0  0
   -2.1086    3.9093    5.1961 C   0  0  0  0  0  0  0  0  0  0  0  0
   -1.3979    4.1622    6.5047 C   0  0  0  0  0  0  0  0  0  0  0  0
   -0.6532    2.9183    6.9600 C   0  0  0  0  0  0  0  0  0  0  0  0
    0.5382    2.4430    6.0494 C   0  0  2  0  0  0  0  0  0  0  0  0
    1.4977    3.6572    5.9485 C   0  0  0  0  0  0  0  0  0  0  0  0
    1.8757    4.2348    7.3270 C   0  0  0  0  0  0  0  0  0  0  0  0
    2.1549    3.2547    8.5207 C   0  0  0  0  0  0  0  0  0  0  0  0
    3.6743    3.3179    8.8416 C   0  0  0  0  0  0  0  0  0  0  0  0
    1.5314    3.9385    9.7752 C   0  0  0  0  0  0  0  0  0  0  0  0
    1.6270    1.7374    8.2927 C   0  0  1  0  0  0  0  0  0  0  0  0
    0.6684    1.2397    9.4242 C   0  0  0  0  0  0  0  0  0  0  0  0
   -0.5623    1.2737    9.3738 O   0  0  0  0  0  0  0  0  0  0  0  0
    1.4557    1.2410    6.7411 C   0  0  2  0  0  0  0  0  0  0  0  0
    3.0089    1.0469    6.2508 C   0  0  2  0  0  0  0  0  0  0  0  0
    3.2207    1.1207    4.8309 O   0  0  0  0  0  0  0  0  0  0  0  0
    3.9530   -0.0515    6.9542 C   0  0  2  0  0  0  0  0  0  0  0  0
    4.5027    0.5232    8.1164 O   0  0  0  0  0  0  0  0  0  0  0  0
    3.1956   -1.3149    7.4286 C   0  0  0  0  0  0  0  0  0  0  0  0
    1.6634   -1.2614    7.3973 C   0  0  0  0  0  0  0  0  0  0  0  0
    0.9293   -0.2516    6.4564 C   0  0  2  0  0  0  0  0  0  0  0  0
   -0.5605   -0.5377    6.8351 C   0  0  0  0  0  0  0  0  0  0  0  0
    5.4113   -3.2401    4.1390 H   0  0  0  0  0  0  0  0  0  0  0  0
    5.6810   -3.2702    5.9632 H   0  0  0  0  0  0  0  0  0  0  0  0
    6.1123   -0.6729    6.9663 H   0  0  0  0  0  0  0  0  0  0  0  0
    5.4907    1.5157    5.2240 H   0  0  0  0  0  0  0  0  0  0  0  0
    7.5449   -0.2987    4.6632 H   0  0  0  0  0  0  0  0  0  0  0  0
    5.7558    0.2091    2.1177 H   0  0  0  0  0  0  0  0  0  0  0  0
    5.0537   -1.4067    2.1488 H   0  0  0  0  0  0  0  0  0  0  0  0
    6.6315   -1.0765    2.8496 H   0  0  0  0  0  0  0  0  0  0  0  0
    3.8027    1.2097    2.4888 H   0  0  0  0  0  0  0  0  0  0  0  0
    2.2176   -1.6149    3.3410 H   0  0  0  0  0  0  0  0  0  0  0  0
    2.8292   -1.9272    4.8767 H   0  0  0  0  0  0  0  0  0  0  0  0
    0.5837   -1.6275    4.9189 H   0  0  0  0  0  0  0  0  0  0  0  0
    1.4732    1.6779    3.6870 H   0  0  0  0  0  0  0  0  0  0  0  0
   -0.8103    1.4855    2.2602 H   0  0  0  0  0  0  0  0  0  0  0  0
   -1.1110    1.5006    4.9778 H   0  0  0  0  0  0  0  0  0  0  0  0
   -1.0191    4.8354    2.5365 H   0  0  0  0  0  0  0  0  0  0  0  0
    0.5099    4.1002    3.0075 H   0  0  0  0  0  0  0  0  0  0  0  0
   -0.2627    5.3153    4.0144 H   0  0  0  0  0  0  0  0  0  0  0  0
   -3.1696    3.4656    3.0463 H   0  0  0  0  0  0  0  0  0  0  0  0
   -2.7062    1.8411    3.5102 H   0  0  0  0  0  0  0  0  0  0  0  0
   -1.9935    2.6369    2.0979 H   0  0  0  0  0  0  0  0  0  0  0  0
   -2.4690    4.8361    4.7981 H   0  0  0  0  0  0  0  0  0  0  0  0
   -2.9903    3.2812    5.4001 H   0  0  0  0  0  0  0  0  0  0  0  0
   -0.7699    5.0519    6.4419 H   0  0  0  0  0  0  0  0  0  0  0  0
   -2.1420    4.3965    7.2601 H   0  0  0  0  0  0  0  0  0  0  0  0
   -0.3591    3.2077    7.9481 H   0  0  0  0  0  0  0  0  0  0  0  0
   -1.3786    2.1300    7.0706 H   0  0  0  0  0  0  0  0  0  0  0  0
    2.3811    3.4217    5.3716 H   0  0  0  0  0  0  0  0  0  0  0  0
    1.0663    4.4758    5.3839 H   0  0  0  0  0  0  0  0  0  0  0  0
    2.7202    4.8977    7.1819 H   0  0  0  0  0  0  0  0  0  0  0  0
    1.0771    4.9255    7.6397 H   0  0  0  0  0  0  0  0  0  0  0  0
    3.9479    2.6230    9.6338 H   0  0  0  0  0  0  0  0  0  0  0  0
    3.9632    4.3109    9.1963 H   0  0  0  0  0  0  0  0  0  0  0  0
    4.3219    3.1398    7.9875 H   0  0  0  0  0  0  0  0  0  0  0  0
    1.7812    3.4182   10.6965 H   0  0  0  0  0  0  0  0  0  0  0  0
    0.4523    4.0147    9.7177 H   0  0  0  0  0  0  0  0  0  0  0  0
    1.8912    4.9594    9.8806 H   0  0  0  0  0  0  0  0  0  0  0  0
    2.4424    1.1434    8.6639 H   0  0  0  0  0  0  0  0  0  0  0  0
    1.2216    0.8704   10.3010 H   0  0  0  0  0  0  0  0  0  0  0  0
    3.5093    1.9696    6.4874 H   0  0  0  0  0  0  0  0  0  0  0  0
    5.0051    1.2673    7.8323 H   0  0  0  0  0  0  0  0  0  0  0  0
    3.4874   -2.1927    6.8581 H   0  0  0  0  0  0  0  0  0  0  0  0
    3.5297   -1.5898    8.4339 H   0  0  0  0  0  0  0  0  0  0  0  0
    1.3226   -2.2710    7.1785 H   0  0  0  0  0  0  0  0  0  0  0  0
    1.3492   -1.0970    8.4270 H   0  0  0  0  0  0  0  0  0  0  0  0
   -0.7506   -0.2930    7.8567 H   0  0  0  0  0  0  0  0  0  0  0  0
   -0.7817   -1.6094    6.6259 H   0  0  0  0  0  0  0  0  0  0  0  0
   -1.3007   -0.0433    6.2076 H   0  0  0  0  0  0  0  0  0  0  0  0
  1  2  2  0
  1 40  1  0
  1 41  1  0
  2  6  1  0
  2  3  1  0
  3 34  1  0
  3  4  1  0
  3 42  1  1
  4  5  1  0
  4  6  1  0
  4 43  1  1
  5 44  1  0
  6  7  1  6
  6  8  1  0
  7 45  1  0
  7 46  1  0
  7 47  1  0
  8 33  1  0
  8  9  1  6
  8 10  1  0
  9 48  1  0
 10 11  1  0
 10 49  1  0
 10 50  1  0
 11 38  1  0
 11 12  1  0
 11 51  1  1
 12 13  1  0
 13 14  1  0
 13 15  1  0
 13 52  1  6
 14 53  1  0
 15 22  1  0
 15 16  1  0
 15 54  1  1
 16 17  1  0
 16 18  1  0
 16 19  1  0
 17 55  1  0
 17 56  1  0
 17 57  1  0
 18 58  1  0
 18 59  1  0
 18 60  1  0
 19 20  1  0
 19 61  1  0
 19 62  1  0
 20 21  1  0
 20 63  1  0
 20 64  1  0
 22 21  1  1
 21 65  1  0
 21 66  1  0
 31 22  1  6
 22 23  1  0
 23 24  1  0
 23 67  1  0
 23 68  1  0
 24 25  1  0
 24 69  1  0
 24 70  1  0
 25 26  1  0
 25 27  1  0
 25 28  1  0
 26 71  1  0
 26 72  1  0
 26 73  1  0
 27 74  1  0
 27 75  1  0
 27 76  1  0
 28 29  1  0
 28 31  1  0
 28 77  1  1
 29 30  2  0
 29 78  1  0
 31 38  1  0
 31 32  1  0
 32 33  1  0
 32 34  1  0
 32 79  1  1
 34 35  1  1
 34 36  1  0
 35 80  1  0
 36 37  1  0
 36 81  1  0
 36 82  1  0
 37 38  1  0
 37 83  1  0
 37 84  1  0
 38 39  1  1
 39 85  1  0
 39 86  1  0
 39 87  1  0
M  END
>  <i_m_ct_stereo_status>  (60) 
1

>  <s_m_source_file>  (60) 
/var/tmp/pbs.5076255.sched01/tmps52fw2z9/0bkrl5082.sdf

>  <i_m_source_file_index>  (60) 
24

>  <i_lp_mmshare_version>  (60) 
48012

>  <i_f3d_flags>  (60) 
0

>  <s_epik_input>  (60) 
W0NIMl0xW0NIMl1DKFtDSDNdKShbQ0gzXSlbQ0BASF0oW0NIXT1PKVtDQEBdMihbQ0BAXTEzNClbQ0BIXTVbQ0BdNihbT0hdKVtDQEhdN0MoPVtDSDJdKVtDQF0oW0NIM10pKFtDQEBIXTdbT0hdKVtDQEBdKE81KShbT0hdKVtDSDJdW0NAQEhdKFtDQEBdMihbQ0gzXSlbQ0gyXVtDSDJdNilPW0NAQEhdKFtPSF0pW0NAQEhdM0MoW0NIM10pKFtDSDNdKVtDSDJdW0NIMl1bQ0gyXTQ=

>  <s_epik_cmdline>  (60) 
J2VwaWtfcHl0aG9uJywgJy1waHQnLCAnMi4wJywgJy1waCcsICc3LjAnLCAnLXRuJywgJzgnLCAnLW1hJywgJzIwMCcsICctaW1hZScsICc8aW5maWxlLm1hZT4nLCAnLW9tYWUnLCAnPG91dGZpbGUubWFlPic=

>  <r_lp_tautomer_probability>  (60) 
1

>  <r_epik_Ionization_Penalty>  (60) 
5.37846e-07

>  <r_epik_Ionization_Penalty_Charging>  (60) 
0

>  <r_epik_Ionization_Penalty_Neutral>  (60) 
5.37846e-07

>  <r_epik_State_Penalty>  (60) 
-0

>  <r_epik_Charging_Adjusted_Penalty>  (60) 
0

>  <i_epik_Tot_Q>  (60) 
0

>  <i_epik_Tot_abs_Q>  (60) 
0

>  <s_epik_Chemistry_Notes>  (60) 
This compound contains an acetal/aminal-like group ( X-CH(R)-Y where X, Y are N, S, or O) that may be acid/base labile, releasing an aldehyde.

>  <s_lp_Force_Field>  (60) 
OPLS3e

>  <r_lp_Energy>  (60) 
186.806

>  <b_lp_Chiralities_Consistent>  (60) 
1

>  <s_lp_Variant>  (60) 
19:0-1

>  <s_i_glide_gridfile>  (60) 
pfpi4k_grid

>  <i_i_glide_lignum>  (60) 
24

>  <i_i_glide_rotatable_bonds>  (60) 
5

>  <r_i_docking_score>  (60) 
-1.12945

>  <r_i_glide_ligand_efficiency>  (60) 
-0.0289604

>  <r_i_glide_ligand_efficiency_sa>  (60) 
-0.0982108

>  <r_i_glide_ligand_efficiency_ln>  (60) 
-0.242187

>  <r_i_glide_gscore>  (60) 
-1.12945

>  <r_i_glide_lipo>  (60) 
-0.382586

>  <r_i_glide_hbond>  (60) 
0

>  <r_i_glide_metal>  (60) 
-0

>  <r_i_glide_rewards>  (60) 
-0.000198727

>  <r_i_glide_evdw>  (60) 
-16.7409

>  <r_i_glide_ecoul>  (60) 
0.792671

>  <r_i_glide_erotb>  (60) 
0

>  <r_i_glide_esite>  (60) 
-0.0285277

>  <r_i_glide_emodel>  (60) 
-16.5715

>  <r_i_glide_energy>  (60) 
-15.9482

>  <r_i_glide_einternal>  (60) 
1.04508

>  <r_i_glide_intrahb_reward>  (60) 
-0

>  <i_i_glide_confnum>  (60) 
1

>  <i_i_glide_posenum>  (60) 
23

>  <r_i_glide_eff_state_penalty>  (60) 
0

>  <ligand_id>  (60) 
19

>  <original_smiles>  (60) 
C=C1C2C(O)C1(C)C1(O)CC3OC(O)C4C(C)(C)CCCC45CCC(C)(C)C(C=O)C54C(O1)C2(O)CCC34C

>  <smiles>  (60) 
[H]OC1([H])OC2([H])C([H])([H])C3(O[H])OC4([H])C(O[H])(C([H])([H])C([H])([H])C2(C([H])([H])[H])C42C([H])(C([H])=O)C(C([H])([H])[H])(C([H])([H])[H])C([H])([H])C([H])([H])C24C([H])([H])C([H])([H])C([H])([H])C(C([H])([H])[H])(C([H])([H])[H])C14[H])C1([H])C(=C([H])[H])C3(C([H])([H])[H])C1([H])O[H]

$$$$
20:0:0
     RDKit          3D

 23 25  0  0  1  0  0  0  0  0999 V2000
    3.6396   -4.6821    3.0654 C   0  0  0  0  0  0  0  0  0  0  0  0
    2.9488   -5.9008    2.9160 C   0  0  0  0  0  0  0  0  0  0  0  0
    2.3744   -6.2833    1.7566 N   0  0  0  0  0  0  0  0  0  0  0  0
    2.5021   -5.4664    0.6889 C   0  0  0  0  0  0  0  0  0  0  0  0
    3.1641   -4.2212    0.7246 C   0  0  0  0  0  0  0  0  0  0  0  0
    3.2237   -3.3663   -0.4681 C   0  0  0  0  0  0  0  0  0  0  0  0
    2.5120   -3.4545   -1.6416 C   0  0  0  0  0  0  0  0  0  0  0  0
    2.9562   -2.4499   -2.4725 N   0  0  0  0  0  0  0  0  0  0  0  0
    2.6218   -2.0969   -3.7406 C   0  0  0  0  0  0  0  0  0  0  0  0
    3.2543   -0.9972   -4.2569 C   0  0  0  0  0  0  0  0  0  0  0  0
    4.2114   -0.2773   -3.6029 N   0  0  0  0  0  0  0  0  0  0  0  0
    4.5472   -0.6462   -2.4028 C   0  0  0  0  0  0  0  0  0  0  0  0
    3.9393   -1.7468   -1.7473 C   0  0  0  0  0  0  0  0  0  0  0  0
    4.1160   -2.2957   -0.5454 N   0  0  0  0  0  0  0  0  0  0  0  0
    3.7463   -3.8257    1.9502 C   0  0  0  0  0  0  0  0  0  0  0  0
    4.0771   -4.4101    4.0161 H   0  0  0  0  0  0  0  0  0  0  0  0
    2.8508   -6.5780    3.7515 H   0  0  0  0  0  0  0  0  0  0  0  0
    2.0270   -5.8195   -0.2182 H   0  0  0  0  0  0  0  0  0  0  0  0
    1.7670   -4.1450   -2.0053 H   0  0  0  0  0  0  0  0  0  0  0  0
    1.8516   -2.6562   -4.2608 H   0  0  0  0  0  0  0  0  0  0  0  0
    3.0211   -0.6338   -5.2496 H   0  0  0  0  0  0  0  0  0  0  0  0
    5.3035   -0.0922   -1.8649 H   0  0  0  0  0  0  0  0  0  0  0  0
    4.2656   -2.8829    2.0453 H   0  0  0  0  0  0  0  0  0  0  0  0
  1 15  2  0
  1  2  1  0
  1 16  1  0
  2  3  2  0
  2 17  1  0
  3  4  1  0
  4  5  2  0
  4 18  1  0
  5  6  1  0
  5 15  1  0
  6 14  1  0
  6  7  2  0
  7  8  1  0
  7 19  1  0
  8 13  1  0
  8  9  1  0
  9 10  2  0
  9 20  1  0
 10 11  1  0
 10 21  1  0
 11 12  2  0
 12 13  1  0
 12 22  1  0
 13 14  2  0
 15 23  1  0
M  END
>  <i_m_ct_stereo_status>  (61) 
1

>  <s_m_source_file>  (61) 
/var/tmp/pbs.5076255.sched01/tmps52fw2z9/0bkrl5082.sdf

>  <i_m_source_file_index>  (61) 
25

>  <i_lp_mmshare_version>  (61) 
48012

>  <i_f3d_flags>  (61) 
0

>  <s_epik_input>  (61) 
W2NIXTFbY0hdW2NIXW5bY0hdYzEtYyhbY0hdMiluYyhuMjMpW2NIXW5bY0hdW2NIXTM=

>  <s_epik_cmdline>  (61) 
J2VwaWtfcHl0aG9uJywgJy1waHQnLCAnMi4wJywgJy1waCcsICc3LjAnLCAnLXRuJywgJzgnLCAnLW1hJywgJzIwMCcsICctaW1hZScsICc8aW5maWxlLm1hZT4nLCAnLW9tYWUnLCAnPG91dGZpbGUubWFlPic=

>  <r_epik_Ionization_Penalty>  (61) 
0.000787673

>  <r_epik_Ionization_Penalty_Charging>  (61) 
0.000379461

>  <r_epik_Ionization_Penalty_Neutral>  (61) 
0.000408212

>  <r_epik_State_Penalty>  (61) 
0.000471722

>  <r_epik_Charging_Adjusted_Penalty>  (61) 
0.000851183

>  <i_epik_Tot_Q>  (61) 
0

>  <i_epik_Tot_abs_Q>  (61) 
0

>  <s_lp_Force_Field>  (61) 
OPLS3e

>  <r_lp_Energy>  (61) 
24.1514

>  <b_lp_Chiralities_Consistent>  (61) 
1

>  <s_lp_Variant>  (61) 
20:0-1

>  <s_i_glide_gridfile>  (61) 
pfpi4k_grid

>  <i_i_glide_lignum>  (61) 
25

>  <i_i_glide_rotatable_bonds>  (61) 
1

>  <r_i_docking_score>  (61) 
-3.53493

>  <r_i_glide_ligand_efficiency>  (61) 
-0.235662

>  <r_i_glide_ligand_efficiency_sa>  (61) 
-0.581192

>  <r_i_glide_ligand_efficiency_ln>  (61) 
-0.953311

>  <r_i_glide_gscore>  (61) 
-3.53493

>  <r_i_glide_lipo>  (61) 
-0.486589

>  <r_i_glide_hbond>  (61) 
0

>  <r_i_glide_metal>  (61) 
-0

>  <r_i_glide_rewards>  (61) 
-2.07131

>  <r_i_glide_evdw>  (61) 
-19.1714

>  <r_i_glide_ecoul>  (61) 
-2.31136

>  <r_i_glide_erotb>  (61) 
0.421553

>  <r_i_glide_esite>  (61) 
-0.0933064

>  <r_i_glide_emodel>  (61) 
-26.6392

>  <r_i_glide_energy>  (61) 
-21.4828

>  <r_i_glide_einternal>  (61) 
0.1798

>  <r_i_glide_intrahb_reward>  (61) 
-0

>  <i_i_glide_confnum>  (61) 
4

>  <i_i_glide_posenum>  (61) 
12

>  <r_i_glide_eff_state_penalty>  (61) 
0

>  <ligand_id>  (61) 
20

>  <original_smiles>  (61) 
c1cncc(-c2cn3ccncc3n2)c1

>  <smiles>  (61) 
[H]c1nc([H])c(-c2nc3c([H])nc([H])c([H])n3c2[H])c([H])c1[H]

$$$$
20:0:1
     RDKit          3D

 23 25  0  0  1  0  0  0  0  0999 V2000
    2.1224   -6.5723    2.4300 C   0  0  0  0  0  0  0  0  0  0  0  0
    2.4306   -5.9655    3.6634 C   0  0  0  0  0  0  0  0  0  0  0  0
    2.8896   -4.7012    3.7682 N   0  0  0  0  0  0  0  0  0  0  0  0
    3.0741   -3.9927    2.6328 C   0  0  0  0  0  0  0  0  0  0  0  0
    2.7990   -4.5015    1.3415 C   0  0  0  0  0  0  0  0  0  0  0  0
    2.9751   -3.6924    0.1291 C   0  0  0  0  0  0  0  0  0  0  0  0
    2.3779   -3.8514   -1.0969 C   0  0  0  0  0  0  0  0  0  0  0  0
    2.8851   -2.8734   -1.9293 N   0  0  0  0  0  0  0  0  0  0  0  0
    2.6530   -2.5858   -3.2401 C   0  0  0  0  0  0  0  0  0  0  0  0
    3.3253   -1.5084   -3.7513 C   0  0  0  0  0  0  0  0  0  0  0  0
    4.2116   -0.7338   -3.0483 N   0  0  0  0  0  0  0  0  0  0  0  0
    4.4416   -1.0360   -1.8012 C   0  0  0  0  0  0  0  0  0  0  0  0
    3.7924   -2.1204   -1.1513 C   0  0  0  0  0  0  0  0  0  0  0  0
    3.8534   -2.6112    0.0875 N   0  0  0  0  0  0  0  0  0  0  0  0
    2.3146   -5.8250    1.2510 C   0  0  0  0  0  0  0  0  0  0  0  0
    1.7603   -7.5914    2.3934 H   0  0  0  0  0  0  0  0  0  0  0  0
    2.3021   -6.5104    4.5894 H   0  0  0  0  0  0  0  0  0  0  0  0
    3.4362   -2.9838    2.7721 H   0  0  0  0  0  0  0  0  0  0  0  0
    1.6742   -4.5635   -1.5027 H   0  0  0  0  0  0  0  0  0  0  0  0
    1.9405   -3.1888   -3.7942 H   0  0  0  0  0  0  0  0  0  0  0  0
    3.1745   -1.1946   -4.7747 H   0  0  0  0  0  0  0  0  0  0  0  0
    5.1316   -0.4305   -1.2252 H   0  0  0  0  0  0  0  0  0  0  0  0
    2.0925   -6.2616    0.2892 H   0  0  0  0  0  0  0  0  0  0  0  0
  1 15  2  0
  1  2  1  0
  1 16  1  0
  2  3  2  0
  2 17  1  0
  3  4  1  0
  4  5  2  0
  4 18  1  0
  5  6  1  0
  5 15  1  0
  6 14  1  0
  6  7  2  0
  7  8  1  0
  7 19  1  0
  8 13  1  0
  8  9  1  0
  9 10  2  0
  9 20  1  0
 10 11  1  0
 10 21  1  0
 11 12  2  0
 12 13  1  0
 12 22  1  0
 13 14  2  0
 15 23  1  0
M  END
>  <i_m_ct_stereo_status>  (62) 
1

>  <s_m_source_file>  (62) 
/var/tmp/pbs.5076255.sched01/tmps52fw2z9/0bkrl5082.sdf

>  <i_m_source_file_index>  (62) 
25

>  <i_lp_mmshare_version>  (62) 
48012

>  <i_f3d_flags>  (62) 
0

>  <s_epik_input>  (62) 
W2NIXTFbY0hdW2NIXW5bY0hdYzEtYyhbY0hdMiluYyhuMjMpW2NIXW5bY0hdW2NIXTM=

>  <s_epik_cmdline>  (62) 
J2VwaWtfcHl0aG9uJywgJy1waHQnLCAnMi4wJywgJy1waCcsICc3LjAnLCAnLXRuJywgJzgnLCAnLW1hJywgJzIwMCcsICctaW1hZScsICc8aW5maWxlLm1hZT4nLCAnLW9tYWUnLCAnPG91dGZpbGUubWFlPic=

>  <r_epik_Ionization_Penalty>  (62) 
0.000787673

>  <r_epik_Ionization_Penalty_Charging>  (62) 
0.000379461

>  <r_epik_Ionization_Penalty_Neutral>  (62) 
0.000408212

>  <r_epik_State_Penalty>  (62) 
0.000471722

>  <r_epik_Charging_Adjusted_Penalty>  (62) 
0.000851183

>  <i_epik_Tot_Q>  (62) 
0

>  <i_epik_Tot_abs_Q>  (62) 
0

>  <s_lp_Force_Field>  (62) 
OPLS3e

>  <r_lp_Energy>  (62) 
24.1514

>  <b_lp_Chiralities_Consistent>  (62) 
1

>  <s_lp_Variant>  (62) 
20:0-1

>  <s_i_glide_gridfile>  (62) 
pfpi4k_grid

>  <i_i_glide_lignum>  (62) 
25

>  <i_i_glide_rotatable_bonds>  (62) 
1

>  <r_i_docking_score>  (62) 
-3.2842

>  <r_i_glide_ligand_efficiency>  (62) 
-0.218946

>  <r_i_glide_ligand_efficiency_sa>  (62) 
-0.539968

>  <r_i_glide_ligand_efficiency_ln>  (62) 
-0.885694

>  <r_i_glide_gscore>  (62) 
-3.2842

>  <r_i_glide_lipo>  (62) 
-0.301557

>  <r_i_glide_hbond>  (62) 
0

>  <r_i_glide_metal>  (62) 
-0

>  <r_i_glide_rewards>  (62) 
-2.07131

>  <r_i_glide_evdw>  (62) 
-19.952

>  <r_i_glide_ecoul>  (62) 
-1.77838

>  <r_i_glide_erotb>  (62) 
0.421553

>  <r_i_glide_esite>  (62) 
-0.0685265

>  <r_i_glide_emodel>  (62) 
-26.4135

>  <r_i_glide_energy>  (62) 
-21.7304

>  <r_i_glide_einternal>  (62) 
0.381102

>  <r_i_glide_intrahb_reward>  (62) 
-0

>  <i_i_glide_confnum>  (62) 
4

>  <i_i_glide_posenum>  (62) 
29

>  <r_i_glide_eff_state_penalty>  (62) 
0

>  <ligand_id>  (62) 
20

>  <original_smiles>  (62) 
c1cncc(-c2cn3ccncc3n2)c1

>  <smiles>  (62) 
[H]c1nc([H])c(-c2nc3c([H])nc([H])c([H])n3c2[H])c([H])c1[H]

$$$$
20:0:2
     RDKit          3D

 23 25  0  0  1  0  0  0  0  0999 V2000
    1.0394   -4.0132    4.5047 C   0  0  0  0  0  0  0  0  0  0  0  0
    0.4735   -4.5935    5.6553 C   0  0  0  0  0  0  0  0  0  0  0  0
   -0.3808   -3.9355    6.4658 N   0  0  0  0  0  0  0  0  0  0  0  0
   -0.6883   -2.6594    6.1503 C   0  0  0  0  0  0  0  0  0  0  0  0
   -0.1838   -1.9744    5.0224 C   0  0  0  0  0  0  0  0  0  0  0  0
   -0.5578   -0.5897    4.7078 C   0  0  0  0  0  0  0  0  0  0  0  0
   -0.2034    0.1655    3.6187 C   0  0  0  0  0  0  0  0  0  0  0  0
   -0.7920    1.4047    3.7675 N   0  0  0  0  0  0  0  0  0  0  0  0
   -0.7735    2.5179    2.9940 C   0  0  0  0  0  0  0  0  0  0  0  0
   -1.4772    3.5976    3.4490 C   0  0  0  0  0  0  0  0  0  0  0  0
   -2.1777    3.6281    4.6282 N   0  0  0  0  0  0  0  0  0  0  0  0
   -2.1834    2.5540    5.3670 C   0  0  0  0  0  0  0  0  0  0  0  0
   -1.5019    1.3587    4.9901 C   0  0  0  0  0  0  0  0  0  0  0  0
   -1.3816    0.1563    5.5538 N   0  0  0  0  0  0  0  0  0  0  0  0
    0.7061   -2.6831    4.1852 C   0  0  0  0  0  0  0  0  0  0  0  0
    1.7194   -4.5776    3.8834 H   0  0  0  0  0  0  0  0  0  0  0  0
    0.7084   -5.6114    5.9315 H   0  0  0  0  0  0  0  0  0  0  0  0
   -1.3788   -2.1850    6.8297 H   0  0  0  0  0  0  0  0  0  0  0  0
    0.4036   -0.0329    2.7458 H   0  0  0  0  0  0  0  0  0  0  0  0
   -0.2053    2.5222    2.0661 H   0  0  0  0  0  0  0  0  0  0  0  0
   -1.4908    4.5114    2.8681 H   0  0  0  0  0  0  0  0  0  0  0  0
   -2.7505    2.5598    6.2916 H   0  0  0  0  0  0  0  0  0  0  0  0
    1.1286   -2.2199    3.3057 H   0  0  0  0  0  0  0  0  0  0  0  0
  1 15  2  0
  1  2  1  0
  1 16  1  0
  2  3  2  0
  2 17  1  0
  3  4  1  0
  4  5  2  0
  4 18  1  0
  5  6  1  0
  5 15  1  0
  6 14  1  0
  6  7  2  0
  7  8  1  0
  7 19  1  0
  8 13  1  0
  8  9  1  0
  9 10  2  0
  9 20  1  0
 10 11  1  0
 10 21  1  0
 11 12  2  0
 12 13  1  0
 12 22  1  0
 13 14  2  0
 15 23  1  0
M  END
>  <i_m_ct_stereo_status>  (63) 
1

>  <s_m_source_file>  (63) 
/var/tmp/pbs.5076255.sched01/tmps52fw2z9/0bkrl5082.sdf

>  <i_m_source_file_index>  (63) 
25

>  <i_lp_mmshare_version>  (63) 
48012

>  <i_f3d_flags>  (63) 
0

>  <s_epik_input>  (63) 
W2NIXTFbY0hdW2NIXW5bY0hdYzEtYyhbY0hdMiluYyhuMjMpW2NIXW5bY0hdW2NIXTM=

>  <s_epik_cmdline>  (63) 
J2VwaWtfcHl0aG9uJywgJy1waHQnLCAnMi4wJywgJy1waCcsICc3LjAnLCAnLXRuJywgJzgnLCAnLW1hJywgJzIwMCcsICctaW1hZScsICc8aW5maWxlLm1hZT4nLCAnLW9tYWUnLCAnPG91dGZpbGUubWFlPic=

>  <r_epik_Ionization_Penalty>  (63) 
0.000787673

>  <r_epik_Ionization_Penalty_Charging>  (63) 
0.000379461

>  <r_epik_Ionization_Penalty_Neutral>  (63) 
0.000408212

>  <r_epik_State_Penalty>  (63) 
0.000471722

>  <r_epik_Charging_Adjusted_Penalty>  (63) 
0.000851183

>  <i_epik_Tot_Q>  (63) 
0

>  <i_epik_Tot_abs_Q>  (63) 
0

>  <s_lp_Force_Field>  (63) 
OPLS3e

>  <r_lp_Energy>  (63) 
24.1514

>  <b_lp_Chiralities_Consistent>  (63) 
1

>  <s_lp_Variant>  (63) 
20:0-1

>  <s_i_glide_gridfile>  (63) 
pfpi4k_grid

>  <i_i_glide_lignum>  (63) 
25

>  <i_i_glide_rotatable_bonds>  (63) 
1

>  <r_i_docking_score>  (63) 
-3.20932

>  <r_i_glide_ligand_efficiency>  (63) 
-0.213955

>  <r_i_glide_ligand_efficiency_sa>  (63) 
-0.527658

>  <r_i_glide_ligand_efficiency_ln>  (63) 
-0.865501

>  <r_i_glide_gscore>  (63) 
-3.20932

>  <r_i_glide_lipo>  (63) 
-0.0698993

>  <r_i_glide_hbond>  (63) 
0

>  <r_i_glide_metal>  (63) 
-0

>  <r_i_glide_rewards>  (63) 
-2.07131

>  <r_i_glide_evdw>  (63) 
-16.9161

>  <r_i_glide_ecoul>  (63) 
-3.95615

>  <r_i_glide_erotb>  (63) 
0.421553

>  <r_i_glide_esite>  (63) 
-0.0504361

>  <r_i_glide_emodel>  (63) 
-25.6397

>  <r_i_glide_energy>  (63) 
-20.8723

>  <r_i_glide_einternal>  (63) 
0.011824

>  <r_i_glide_intrahb_reward>  (63) 
-0

>  <i_i_glide_confnum>  (63) 
2

>  <i_i_glide_posenum>  (63) 
27

>  <r_i_glide_eff_state_penalty>  (63) 
0

>  <ligand_id>  (63) 
20

>  <original_smiles>  (63) 
c1cncc(-c2cn3ccncc3n2)c1

>  <smiles>  (63) 
[H]c1nc([H])c(-c2nc3c([H])nc([H])c([H])n3c2[H])c([H])c1[H]

$$$$
22:0:0
     RDKit          3D

 37 41  0  0  1  0  0  0  0  0999 V2000
    2.5522  -10.2594    4.6910 O   0  0  0  0  0  0  0  0  0  0  0  0
    2.9572  -10.1343    3.3396 C   0  0  2  0  0  0  0  0  0  0  0  0
    4.1650   -9.1893    3.0210 C   0  0  1  0  0  0  0  0  0  0  0  0
    5.0885   -9.5332    1.8576 C   0  0  0  0  0  0  0  0  0  0  0  0
    6.2325  -10.4928    2.0620 C   0  0  0  0  0  0  0  0  0  0  0  0
    6.5102   -9.0268    1.8290 C   0  0  0  0  0  0  0  0  0  0  0  0
    3.0864   -8.1082    2.8960 C   0  0  1  0  0  0  0  0  0  0  0  0
    2.9682   -6.9330    1.9017 C   0  0  0  0  0  0  0  0  0  0  0  0
    4.1405   -6.1609    1.4101 C   0  0  0  0  0  0  0  0  0  0  0  0
    5.3422   -6.1741    2.1483 C   0  0  0  0  0  0  0  0  0  0  0  0
    6.4676   -5.4544    1.7076 C   0  0  0  0  0  0  0  0  0  0  0  0
    6.3824   -4.6591    0.5503 C   0  0  0  0  0  0  0  0  0  0  0  0
    5.1741   -4.5960   -0.1664 C   0  0  0  0  0  0  0  0  0  0  0  0
    4.0586   -5.3446    0.2575 C   0  0  0  0  0  0  0  0  0  0  0  0
    1.7557   -6.6486    1.5322 N   0  0  0  0  0  0  0  0  0  0  0  0
    0.6692   -7.3680    1.9916 C   0  0  0  0  0  0  0  0  0  0  0  0
   -0.6104   -7.0313    2.0858 N   0  0  0  0  0  0  0  0  0  0  0  0
   -1.1395   -8.1823    2.6273 C   0  0  0  0  0  0  0  0  0  0  0  0
   -0.2865   -9.1723    2.8580 N   0  0  0  0  0  0  0  0  0  0  0  0
    0.8690   -8.6156    2.4599 N   0  0  0  0  0  0  0  0  0  0  0  0
    2.1522   -9.2152    2.4155 C   0  0  2  0  0  0  0  0  0  0  0  0
    2.0045  -11.0308    4.7536 H   0  0  0  0  0  0  0  0  0  0  0  0
    3.1085  -11.1309    2.9176 H   0  0  0  0  0  0  0  0  0  0  0  0
    4.7282   -9.0206    3.9400 H   0  0  0  0  0  0  0  0  0  0  0  0
    4.5920   -9.6067    0.8884 H   0  0  0  0  0  0  0  0  0  0  0  0
    6.3841  -10.8751    3.0697 H   0  0  0  0  0  0  0  0  0  0  0  0
    6.4557  -11.1841    1.2550 H   0  0  0  0  0  0  0  0  0  0  0  0
    6.9031   -8.7169    0.8673 H   0  0  0  0  0  0  0  0  0  0  0  0
    6.8701   -8.4533    2.6821 H   0  0  0  0  0  0  0  0  0  0  0  0
    2.8125   -7.7524    3.8928 H   0  0  0  0  0  0  0  0  0  0  0  0
    5.4135   -6.7447    3.0611 H   0  0  0  0  0  0  0  0  0  0  0  0
    7.3934   -5.5193    2.2619 H   0  0  0  0  0  0  0  0  0  0  0  0
    7.2440   -4.1073    0.2150 H   0  0  0  0  0  0  0  0  0  0  0  0
    5.0984   -3.9784   -1.0494 H   0  0  0  0  0  0  0  0  0  0  0  0
    3.1373   -5.2800   -0.3036 H   0  0  0  0  0  0  0  0  0  0  0  0
   -2.1889   -8.2824    2.8714 H   0  0  0  0  0  0  0  0  0  0  0  0
    2.3168   -9.5001    1.3756 H   0  0  0  0  0  0  0  0  0  0  0  0
  1  2  1  0
  1 22  1  0
  2 21  1  0
  2  3  1  0
  2 23  1  6
  3  4  1  0
  3  7  1  0
  3 24  1  1
  4  6  1  0
  4  5  1  0
  4 25  1  0
  5  6  1  0
  5 26  1  0
  5 27  1  0
  6 28  1  0
  6 29  1  0
  7 21  1  0
  7  8  1  0
  7 30  1  1
  8  9  1  0
  8 15  2  0
  9 14  1  0
  9 10  2  0
 10 11  1  0
 10 31  1  0
 11 12  2  0
 11 32  1  0
 12 13  1  0
 12 33  1  0
 13 14  2  0
 13 34  1  0
 14 35  1  0
 15 16  1  0
 16 20  1  0
 16 17  2  0
 17 18  1  0
 18 19  2  0
 18 36  1  0
 19 20  1  0
 20 21  1  0
 21 37  1  6
M  END
>  <i_m_ct_stereo_status>  (64) 
1

>  <s_m_source_file>  (64) 
/var/tmp/pbs.5076255.sched01/tmps52fw2z9/0bkrl5082.sdf

>  <i_m_source_file_index>  (64) 
27

>  <i_lp_mmshare_version>  (64) 
48012

>  <i_f3d_flags>  (64) 
0

>  <s_epik_input>  (64) 
W0NIMl0xW0NIMl1bQ0hdMVtDQEBIXTJbQ0BASF0oW09IXSlbQ0BIXShbQ0BASF0yMyluNGMobltjSF1uNClOPUMzYzVbY0hdW2NIXVtjSF1bY0hdW2NIXTU=

>  <s_epik_cmdline>  (64) 
J2VwaWtfcHl0aG9uJywgJy1waHQnLCAnMi4wJywgJy1waCcsICc3LjAnLCAnLXRuJywgJzgnLCAnLW1hJywgJzIwMCcsICctaW1hZScsICc8aW5maWxlLm1hZT4nLCAnLW9tYWUnLCAnPG91dGZpbGUubWFlPic=

>  <r_lp_tautomer_probability>  (64) 
0.999601

>  <r_epik_Ionization_Penalty>  (64) 
0.305703

>  <r_epik_Ionization_Penalty_Charging>  (64) 
0

>  <r_epik_Ionization_Penalty_Neutral>  (64) 
0.305703

>  <r_epik_State_Penalty>  (64) 
0.299437

>  <r_epik_Charging_Adjusted_Penalty>  (64) 
0.299437

>  <i_epik_Tot_Q>  (64) 
0

>  <i_epik_Tot_abs_Q>  (64) 
0

>  <s_epik_Chemistry_Notes>  (64) 
This compound has an imine and may undergo hydrolysis.

>  <s_lp_Force_Field>  (64) 
OPLS3e

>  <r_lp_Energy>  (64) 
53.4541

>  <b_lp_Chiralities_Consistent>  (64) 
1

>  <s_lp_Variant>  (64) 
22:0-1

>  <s_i_glide_gridfile>  (64) 
pfpi4k_grid

>  <i_i_glide_lignum>  (64) 
27

>  <i_i_glide_rotatable_bonds>  (64) 
3

>  <r_i_docking_score>  (64) 
-3.60914

>  <r_i_glide_ligand_efficiency>  (64) 
-0.171864

>  <r_i_glide_ligand_efficiency_sa>  (64) 
-0.47416

>  <r_i_glide_ligand_efficiency_ln>  (64) 
-0.892353

>  <r_i_glide_gscore>  (64) 
-3.60914

>  <r_i_glide_lipo>  (64) 
-0.428854

>  <r_i_glide_hbond>  (64) 
-0.150345

>  <r_i_glide_metal>  (64) 
-0

>  <r_i_glide_rewards>  (64) 
-1.52345

>  <r_i_glide_evdw>  (64) 
-27.1947

>  <r_i_glide_ecoul>  (64) 
-3.27721

>  <r_i_glide_erotb>  (64) 
0.459601

>  <r_i_glide_esite>  (64) 
-0.114778

>  <r_i_glide_emodel>  (64) 
-37.1054

>  <r_i_glide_energy>  (64) 
-30.4719

>  <r_i_glide_einternal>  (64) 
1.32391

>  <r_i_glide_intrahb_reward>  (64) 
-0

>  <i_i_glide_confnum>  (64) 
6

>  <i_i_glide_posenum>  (64) 
18

>  <r_i_glide_eff_state_penalty>  (64) 
0

>  <ligand_id>  (64) 
22

>  <original_smiles>  (64) 
OC1C(C2CC2)C2C(c3ccccc3)=Nc3ncnn3C12

>  <smiles>  (64) 
[H]OC1([H])C2([H])n3nc([H])nc3N=C(c3c([H])c([H])c([H])c([H])c3[H])C2([H])C1([H])C1([H])C([H])([H])C1([H])[H]

$$$$
22:0:1
     RDKit          3D

 37 41  0  0  1  0  0  0  0  0999 V2000
    5.7688  -10.2545    1.2194 O   0  0  0  0  0  0  0  0  0  0  0  0
    5.2019   -9.7980    2.4436 C   0  0  2  0  0  0  0  0  0  0  0  0
    3.6792  -10.0642    2.7183 C   0  0  1  0  0  0  0  0  0  0  0  0
    3.1894  -10.2999    4.1494 C   0  0  0  0  0  0  0  0  0  0  0  0
    3.1495  -11.6920    4.7224 C   0  0  0  0  0  0  0  0  0  0  0  0
    1.8615  -10.9664    4.4255 C   0  0  0  0  0  0  0  0  0  0  0  0
    3.4759   -8.7414    1.9883 C   0  0  1  0  0  0  0  0  0  0  0  0
    2.4775   -7.6104    2.2909 C   0  0  0  0  0  0  0  0  0  0  0  0
    1.0877   -7.8222    2.7710 C   0  0  0  0  0  0  0  0  0  0  0  0
    0.3471   -6.8025    3.4219 C   0  0  0  0  0  0  0  0  0  0  0  0
   -0.9858   -7.0453    3.8214 C   0  0  0  0  0  0  0  0  0  0  0  0
   -1.5988   -8.2834    3.5547 C   0  0  0  0  0  0  0  0  0  0  0  0
   -0.8798   -9.2793    2.8765 C   0  0  0  0  0  0  0  0  0  0  0  0
    0.4470   -9.0428    2.4785 C   0  0  0  0  0  0  0  0  0  0  0  0
    2.9300   -6.4120    2.0732 N   0  0  0  0  0  0  0  0  0  0  0  0
    4.2155   -6.1736    1.6455 C   0  0  0  0  0  0  0  0  0  0  0  0
    4.7699   -5.1268    1.0409 N   0  0  0  0  0  0  0  0  0  0  0  0
    6.0636   -5.5623    0.8878 C   0  0  0  0  0  0  0  0  0  0  0  0
    6.3453   -6.7510    1.4195 N   0  0  0  0  0  0  0  0  0  0  0  0
    5.1433   -7.1342    1.8576 N   0  0  0  0  0  0  0  0  0  0  0  0
    4.8205   -8.3236    2.5579 C   0  0  2  0  0  0  0  0  0  0  0  0
    5.1839  -10.9226    0.8863 H   0  0  0  0  0  0  0  0  0  0  0  0
    5.8018  -10.1436    3.2843 H   0  0  0  0  0  0  0  0  0  0  0  0
    3.3385  -10.8538    2.0637 H   0  0  0  0  0  0  0  0  0  0  0  0
    3.4739   -9.5251    4.8527 H   0  0  0  0  0  0  0  0  0  0  0  0
    3.4028  -12.5136    4.0565 H   0  0  0  0  0  0  0  0  0  0  0  0
    3.3938  -11.8327    5.7697 H   0  0  0  0  0  0  0  0  0  0  0  0
    1.2756  -10.5563    5.2459 H   0  0  0  0  0  0  0  0  0  0  0  0
    1.2843  -11.3548    3.5874 H   0  0  0  0  0  0  0  0  0  0  0  0
    3.5322   -8.9038    0.9097 H   0  0  0  0  0  0  0  0  0  0  0  0
    0.8014   -5.8333    3.6093 H   0  0  0  0  0  0  0  0  0  0  0  0
   -1.5434   -6.2778    4.3424 H   0  0  0  0  0  0  0  0  0  0  0  0
   -2.6036   -8.4947    3.8804 H   0  0  0  0  0  0  0  0  0  0  0  0
   -1.3337  -10.2401    2.6735 H   0  0  0  0  0  0  0  0  0  0  0  0
    0.9699   -9.8014    1.9248 H   0  0  0  0  0  0  0  0  0  0  0  0
    6.8306   -4.9931    0.3715 H   0  0  0  0  0  0  0  0  0  0  0  0
    4.7633   -8.0454    3.6029 H   0  0  0  0  0  0  0  0  0  0  0  0
  1  2  1  0
  1 22  1  0
  2 21  1  0
  2  3  1  0
  2 23  1  1
  3  4  1  0
  3  7  1  0
  3 24  1  6
  4  6  1  0
  4  5  1  0
  4 25  1  0
  5  6  1  0
  5 26  1  0
  5 27  1  0
  6 28  1  0
  6 29  1  0
  7 21  1  0
  7  8  1  0
  7 30  1  6
  8  9  1  0
  8 15  2  0
  9 14  1  0
  9 10  2  0
 10 11  1  0
 10 31  1  0
 11 12  2  0
 11 32  1  0
 12 13  1  0
 12 33  1  0
 13 14  2  0
 13 34  1  0
 14 35  1  0
 15 16  1  0
 16 20  1  0
 16 17  2  0
 17 18  1  0
 18 19  2  0
 18 36  1  0
 19 20  1  0
 20 21  1  0
 21 37  1  1
M  END
>  <i_m_ct_stereo_status>  (65) 
1

>  <s_m_source_file>  (65) 
/var/tmp/pbs.5076255.sched01/tmps52fw2z9/0bkrl5082.sdf

>  <i_m_source_file_index>  (65) 
27

>  <i_lp_mmshare_version>  (65) 
48012

>  <i_f3d_flags>  (65) 
0

>  <s_epik_input>  (65) 
W0NIMl0xW0NIMl1bQ0hdMVtDQEBIXTJbQ0BASF0oW09IXSlbQ0BIXShbQ0BASF0yMyluNGMobltjSF1uNClOPUMzYzVbY0hdW2NIXVtjSF1bY0hdW2NIXTU=

>  <s_epik_cmdline>  (65) 
J2VwaWtfcHl0aG9uJywgJy1waHQnLCAnMi4wJywgJy1waCcsICc3LjAnLCAnLXRuJywgJzgnLCAnLW1hJywgJzIwMCcsICctaW1hZScsICc8aW5maWxlLm1hZT4nLCAnLW9tYWUnLCAnPG91dGZpbGUubWFlPic=

>  <r_lp_tautomer_probability>  (65) 
0.999601

>  <r_epik_Ionization_Penalty>  (65) 
0.305703

>  <r_epik_Ionization_Penalty_Charging>  (65) 
0

>  <r_epik_Ionization_Penalty_Neutral>  (65) 
0.305703

>  <r_epik_State_Penalty>  (65) 
0.299437

>  <r_epik_Charging_Adjusted_Penalty>  (65) 
0.299437

>  <i_epik_Tot_Q>  (65) 
0

>  <i_epik_Tot_abs_Q>  (65) 
0

>  <s_epik_Chemistry_Notes>  (65) 
This compound has an imine and may undergo hydrolysis.

>  <s_lp_Force_Field>  (65) 
OPLS3e

>  <r_lp_Energy>  (65) 
53.4541

>  <b_lp_Chiralities_Consistent>  (65) 
1

>  <s_lp_Variant>  (65) 
22:0-1

>  <s_i_glide_gridfile>  (65) 
pfpi4k_grid

>  <i_i_glide_lignum>  (65) 
27

>  <i_i_glide_rotatable_bonds>  (65) 
3

>  <r_i_docking_score>  (65) 
-3.47056

>  <r_i_glide_ligand_efficiency>  (65) 
-0.165265

>  <r_i_glide_ligand_efficiency_sa>  (65) 
-0.455953

>  <r_i_glide_ligand_efficiency_ln>  (65) 
-0.858089

>  <r_i_glide_gscore>  (65) 
-3.47056

>  <r_i_glide_lipo>  (65) 
0

>  <r_i_glide_hbond>  (65) 
-0.16

>  <r_i_glide_metal>  (65) 
-0

>  <r_i_glide_rewards>  (65) 
-1.75652

>  <r_i_glide_evdw>  (65) 
-24.1527

>  <r_i_glide_ecoul>  (65) 
-5.31906

>  <r_i_glide_erotb>  (65) 
0.459601

>  <r_i_glide_esite>  (65) 
-0.00814481

>  <r_i_glide_emodel>  (65) 
-35.6452

>  <r_i_glide_energy>  (65) 
-29.4718

>  <r_i_glide_einternal>  (65) 
1.45051

>  <r_i_glide_intrahb_reward>  (65) 
-0

>  <i_i_glide_confnum>  (65) 
5

>  <i_i_glide_posenum>  (65) 
15

>  <r_i_glide_eff_state_penalty>  (65) 
0

>  <ligand_id>  (65) 
22

>  <original_smiles>  (65) 
OC1C(C2CC2)C2C(c3ccccc3)=Nc3ncnn3C12

>  <smiles>  (65) 
[H]OC1([H])C2([H])n3nc([H])nc3N=C(c3c([H])c([H])c([H])c([H])c3[H])C2([H])C1([H])C1([H])C([H])([H])C1([H])[H]

$$$$
22:0:2
     RDKit          3D

 37 41  0  0  1  0  0  0  0  0999 V2000
    5.7651  -10.2578    1.1741 O   0  0  0  0  0  0  0  0  0  0  0  0
    5.2294   -9.7960    2.4017 C   0  0  2  0  0  0  0  0  0  0  0  0
    3.7113  -10.0683    2.7223 C   0  0  1  0  0  0  0  0  0  0  0  0
    3.2812  -10.2426    4.1779 C   0  0  0  0  0  0  0  0  0  0  0  0
    4.1394   -9.7938    5.3471 C   0  0  0  0  0  0  0  0  0  0  0  0
    3.9423  -11.2670    5.0625 C   0  0  0  0  0  0  0  0  0  0  0  0
    3.4765   -8.7349    1.9744 C   0  0  1  0  0  0  0  0  0  0  0  0
    2.4785   -7.5812    2.2781 C   0  0  0  0  0  0  0  0  0  0  0  0
    1.0959   -7.8330    2.7644 C   0  0  0  0  0  0  0  0  0  0  0  0
    0.3638   -6.8232    3.4353 C   0  0  0  0  0  0  0  0  0  0  0  0
   -0.9597   -7.0567    3.8345 C   0  0  0  0  0  0  0  0  0  0  0  0
   -1.5717   -8.2907    3.5643 C   0  0  0  0  0  0  0  0  0  0  0  0
   -0.8546   -9.2931    2.8783 C   0  0  0  0  0  0  0  0  0  0  0  0
    0.4655   -9.0635    2.4848 C   0  0  0  0  0  0  0  0  0  0  0  0
    2.9305   -6.3832    2.0574 N   0  0  0  0  0  0  0  0  0  0  0  0
    4.2347   -6.1738    1.6271 C   0  0  0  0  0  0  0  0  0  0  0  0
    4.7714   -5.1149    1.0250 N   0  0  0  0  0  0  0  0  0  0  0  0
    6.0707   -5.5457    0.8714 C   0  0  0  0  0  0  0  0  0  0  0  0
    6.3726   -6.7377    1.3624 N   0  0  0  0  0  0  0  0  0  0  0  0
    5.1523   -7.1410    1.7939 N   0  0  0  0  0  0  0  0  0  0  0  0
    4.8327   -8.3153    2.5190 C   0  0  2  0  0  0  0  0  0  0  0  0
    5.1756  -10.9577    0.8565 H   0  0  0  0  0  0  0  0  0  0  0  0
    5.8719  -10.1356    3.2208 H   0  0  0  0  0  0  0  0  0  0  0  0
    3.3188  -10.8810    2.0975 H   0  0  0  0  0  0  0  0  0  0  0  0
    2.2010  -10.1666    4.3260 H   0  0  0  0  0  0  0  0  0  0  0  0
    5.1413   -9.4003    5.1531 H   0  0  0  0  0  0  0  0  0  0  0  0
    3.6019   -9.3523    6.1876 H   0  0  0  0  0  0  0  0  0  0  0  0
    3.3406  -11.8360    5.7699 H   0  0  0  0  0  0  0  0  0  0  0  0
    4.7614  -11.8214    4.6121 H   0  0  0  0  0  0  0  0  0  0  0  0
    3.5089   -8.8999    0.8850 H   0  0  0  0  0  0  0  0  0  0  0  0
    0.8171   -5.8679    3.6251 H   0  0  0  0  0  0  0  0  0  0  0  0
   -1.5042   -6.2959    4.3621 H   0  0  0  0  0  0  0  0  0  0  0  0
   -2.5722   -8.4882    3.8876 H   0  0  0  0  0  0  0  0  0  0  0  0
   -1.3193  -10.2438    2.6812 H   0  0  0  0  0  0  0  0  0  0  0  0
    0.9935   -9.8426    1.9530 H   0  0  0  0  0  0  0  0  0  0  0  0
    6.8240   -4.9774    0.3579 H   0  0  0  0  0  0  0  0  0  0  0  0
    4.7826   -8.0113    3.5855 H   0  0  0  0  0  0  0  0  0  0  0  0
  1  2  1  0
  1 22  1  0
  2 21  1  0
  2  3  1  0
  2 23  1  1
  3  4  1  0
  3  7  1  0
  3 24  1  6
  4  6  1  0
  4  5  1  0
  4 25  1  0
  5  6  1  0
  5 26  1  0
  5 27  1  0
  6 28  1  0
  6 29  1  0
  7 21  1  0
  7  8  1  0
  7 30  1  6
  8  9  1  0
  8 15  2  0
  9 14  1  0
  9 10  2  0
 10 11  1  0
 10 31  1  0
 11 12  2  0
 11 32  1  0
 12 13  1  0
 12 33  1  0
 13 14  2  0
 13 34  1  0
 14 35  1  0
 15 16  1  0
 16 20  1  0
 16 17  2  0
 17 18  1  0
 18 19  2  0
 18 36  1  0
 19 20  1  0
 20 21  1  0
 21 37  1  1
M  END
>  <i_m_ct_stereo_status>  (66) 
1

>  <s_m_source_file>  (66) 
/var/tmp/pbs.5076255.sched01/tmps52fw2z9/0bkrl5082.sdf

>  <i_m_source_file_index>  (66) 
27

>  <i_lp_mmshare_version>  (66) 
48012

>  <i_f3d_flags>  (66) 
0

>  <s_epik_input>  (66) 
W0NIMl0xW0NIMl1bQ0hdMVtDQEBIXTJbQ0BASF0oW09IXSlbQ0BIXShbQ0BASF0yMyluNGMobltjSF1uNClOPUMzYzVbY0hdW2NIXVtjSF1bY0hdW2NIXTU=

>  <s_epik_cmdline>  (66) 
J2VwaWtfcHl0aG9uJywgJy1waHQnLCAnMi4wJywgJy1waCcsICc3LjAnLCAnLXRuJywgJzgnLCAnLW1hJywgJzIwMCcsICctaW1hZScsICc8aW5maWxlLm1hZT4nLCAnLW9tYWUnLCAnPG91dGZpbGUubWFlPic=

>  <r_lp_tautomer_probability>  (66) 
0.999601

>  <r_epik_Ionization_Penalty>  (66) 
0.305703

>  <r_epik_Ionization_Penalty_Charging>  (66) 
0

>  <r_epik_Ionization_Penalty_Neutral>  (66) 
0.305703

>  <r_epik_State_Penalty>  (66) 
0.299437

>  <r_epik_Charging_Adjusted_Penalty>  (66) 
0.299437

>  <i_epik_Tot_Q>  (66) 
0

>  <i_epik_Tot_abs_Q>  (66) 
0

>  <s_epik_Chemistry_Notes>  (66) 
This compound has an imine and may undergo hydrolysis.

>  <s_lp_Force_Field>  (66) 
OPLS3e

>  <r_lp_Energy>  (66) 
53.4541

>  <b_lp_Chiralities_Consistent>  (66) 
1

>  <s_lp_Variant>  (66) 
22:0-1

>  <s_i_glide_gridfile>  (66) 
pfpi4k_grid

>  <i_i_glide_lignum>  (66) 
27

>  <i_i_glide_rotatable_bonds>  (66) 
3

>  <r_i_docking_score>  (66) 
-3.43858

>  <r_i_glide_ligand_efficiency>  (66) 
-0.163742

>  <r_i_glide_ligand_efficiency_sa>  (66) 
-0.451751

>  <r_i_glide_ligand_efficiency_ln>  (66) 
-0.850182

>  <r_i_glide_gscore>  (66) 
-3.43858

>  <r_i_glide_lipo>  (66) 
0

>  <r_i_glide_hbond>  (66) 
-0.16

>  <r_i_glide_metal>  (66) 
-0

>  <r_i_glide_rewards>  (66) 
-1.76871

>  <r_i_glide_evdw>  (66) 
-22.4521

>  <r_i_glide_ecoul>  (66) 
-5.59264

>  <r_i_glide_erotb>  (66) 
0.459601

>  <r_i_glide_esite>  (66) 
-0.00797005

>  <r_i_glide_emodel>  (66) 
-32.2704

>  <r_i_glide_energy>  (66) 
-28.0448

>  <r_i_glide_einternal>  (66) 
5.65112

>  <r_i_glide_intrahb_reward>  (66) 
-0

>  <i_i_glide_confnum>  (66) 
5

>  <i_i_glide_posenum>  (66) 
2

>  <r_i_glide_eff_state_penalty>  (66) 
0

>  <ligand_id>  (66) 
22

>  <original_smiles>  (66) 
OC1C(C2CC2)C2C(c3ccccc3)=Nc3ncnn3C12

>  <smiles>  (66) 
[H]OC1([H])C2([H])n3nc([H])nc3N=C(c3c([H])c([H])c([H])c([H])c3[H])C2([H])C1([H])C1([H])C([H])([H])C1([H])[H]

$$$$
22:1:0
     RDKit          3D

 38 42  0  0  1  0  0  0  0  0999 V2000
    8.2183   -3.7943   -0.3655 O   0  0  0  0  0  0  0  0  0  0  0  0
    7.5353   -4.1090    0.8381 C   0  0  2  0  0  0  0  0  0  0  0  0
    6.9290   -5.5398    1.0268 C   0  0  1  0  0  0  0  0  0  0  0  0
    6.8980   -6.1713    2.4194 C   0  0  0  0  0  0  0  0  0  0  0  0
    8.1006   -6.9081    2.9478 C   0  0  0  0  0  0  0  0  0  0  0  0
    6.8456   -7.6715    2.6126 C   0  0  0  0  0  0  0  0  0  0  0  0
    5.6787   -4.9145    0.3807 C   0  0  1  0  0  0  0  0  0  0  0  0
    4.1753   -5.1462    0.6769 C   0  0  0  0  0  0  0  0  0  0  0  0
    3.6102   -6.4817    1.0726 C   0  0  0  0  0  0  0  0  0  0  0  0
    4.3574   -7.6537    0.8268 C   0  0  0  0  0  0  0  0  0  0  0  0
    3.8871   -8.9223    1.2115 C   0  0  0  0  0  0  0  0  0  0  0  0
    2.5985   -9.0505    1.7562 C   0  0  0  0  0  0  0  0  0  0  0  0
    1.8047   -7.8982    1.9389 C   0  0  0  0  0  0  0  0  0  0  0  0
    2.3075   -6.6163    1.6082 C   0  0  0  0  0  0  0  0  0  0  0  0
    3.4251   -4.1057    0.5472 N   0  0  0  0  0  0  0  0  0  0  0  0
    3.9940   -2.8770    0.2582 C   0  0  0  0  0  0  0  0  0  0  0  0
    3.4056   -1.7903   -0.2088 N   0  0  0  0  0  0  0  0  0  0  0  0
    4.4711   -0.8786   -0.3025 C   0  0  0  0  0  0  0  0  0  0  0  0
    5.6242   -1.3921    0.1264 N   0  0  0  0  0  0  0  0  0  0  0  0
    5.2915   -2.6232    0.4393 N   0  0  0  0  0  0  0  0  0  0  0  0
    6.1024   -3.6081    1.0301 C   0  0  2  0  0  0  0  0  0  0  0  0
    7.5917   -3.8600   -1.0719 H   0  0  0  0  0  0  0  0  0  0  0  0
    8.1804   -3.8636    1.6783 H   0  0  0  0  0  0  0  0  0  0  0  0
    7.3981   -6.2013    0.2994 H   0  0  0  0  0  0  0  0  0  0  0  0
    6.3607   -5.5858    3.1573 H   0  0  0  0  0  0  0  0  0  0  0  0
    8.9390   -7.0509    2.2717 H   0  0  0  0  0  0  0  0  0  0  0  0
    8.3456   -6.8241    4.0002 H   0  0  0  0  0  0  0  0  0  0  0  0
    6.1923   -8.0220    3.4078 H   0  0  0  0  0  0  0  0  0  0  0  0
    6.9318   -8.3316    1.7539 H   0  0  0  0  0  0  0  0  0  0  0  0
    5.8096   -4.8964   -0.7068 H   0  0  0  0  0  0  0  0  0  0  0  0
    5.3111   -7.5735    0.3397 H   0  0  0  0  0  0  0  0  0  0  0  0
    4.5081   -9.7975    1.0662 H   0  0  0  0  0  0  0  0  0  0  0  0
    2.2231  -10.0316    2.0163 H   0  0  0  0  0  0  0  0  0  0  0  0
    0.8051   -8.0030    2.3312 H   0  0  0  0  0  0  0  0  0  0  0  0
    1.6886   -5.7396    1.7555 H   0  0  0  0  0  0  0  0  0  0  0  0
    4.3780    0.1486   -0.6592 H   0  0  0  0  0  0  0  0  0  0  0  0
    5.8742   -3.5769    2.0941 H   0  0  0  0  0  0  0  0  0  0  0  0
    2.4222   -1.5869   -0.4414 H   0  0  0  0  0  0  0  0  0  0  0  0
  1  2  1  0
  1 22  1  0
  2 21  1  0
  2  3  1  0
  2 23  1  1
  3  4  1  0
  3  7  1  0
  3 24  1  6
  4  6  1  0
  4  5  1  0
  4 25  1  0
  5  6  1  0
  5 26  1  0
  5 27  1  0
  6 28  1  0
  6 29  1  0
  7 21  1  0
  7  8  1  0
  7 30  1  6
  8  9  1  0
  8 15  2  0
  9 14  1  0
  9 10  2  0
 10 11  1  0
 10 31  1  0
 11 12  2  0
 11 32  1  0
 12 13  1  0
 12 33  1  0
 13 14  2  0
 13 34  1  0
 14 35  1  0
 15 16  1  0
 16 20  1  0
 16 17  2  0
 17 18  1  0
 17 38  1  0
 18 19  2  0
 18 36  1  0
 19 20  1  0
 20 21  1  0
 21 37  1  1
M  CHG  1  17   1
M  END
>  <i_m_ct_stereo_status>  (67) 
1

>  <s_m_source_file>  (67) 
/var/tmp/pbs.5076255.sched01/tmps52fw2z9/0bkrl5082.sdf

>  <i_m_source_file_index>  (67) 
28

>  <i_lp_mmshare_version>  (67) 
48012

>  <i_f3d_flags>  (67) 
0

>  <s_epik_input>  (67) 
W0NIMl0xW0NIMl1bQ0hdMVtDQEBIXTJbQ0BASF0oW09IXSlbQ0BIXShbQ0BASF0yMyluNGMobltjSF1uNClOPUMzYzVbY0hdW2NIXVtjSF1bY0hdW2NIXTU=

>  <s_epik_cmdline>  (67) 
J2VwaWtfcHl0aG9uJywgJy1waHQnLCAnMi4wJywgJy1waCcsICc3LjAnLCAnLXRuJywgJzgnLCAnLW1hJywgJzIwMCcsICctaW1hZScsICc8aW5maWxlLm1hZT4nLCAnLW9tYWUnLCAnPG91dGZpbGUubWFlPic=

>  <r_lp_tautomer_probability>  (67) 
0.999601

>  <r_epik_Ionization_Penalty>  (67) 
0.53839

>  <r_epik_Ionization_Penalty_Charging>  (67) 
0.538385

>  <r_epik_Ionization_Penalty_Neutral>  (67) 
5.28383e-06

>  <r_epik_State_Penalty>  (67) 
0.547753

>  <r_epik_Charging_Adjusted_Penalty>  (67) 
1.08614

>  <i_epik_Tot_Q>  (67) 
1

>  <i_epik_Tot_abs_Q>  (67) 
1

>  <s_epik_Chemistry_Notes>  (67) 
This compound has an imine and may undergo hydrolysis.

>  <s_lp_Force_Field>  (67) 
OPLS3e

>  <r_lp_Energy>  (67) 
57.6312

>  <b_lp_Chiralities_Consistent>  (67) 
1

>  <s_lp_Variant>  (67) 
22:0-2

>  <s_i_glide_gridfile>  (67) 
pfpi4k_grid

>  <i_i_glide_lignum>  (67) 
28

>  <i_i_glide_rotatable_bonds>  (67) 
3

>  <r_i_docking_score>  (67) 
-3.85963

>  <r_i_glide_ligand_efficiency>  (67) 
-0.183792

>  <r_i_glide_ligand_efficiency_sa>  (67) 
-0.507069

>  <r_i_glide_ligand_efficiency_ln>  (67) 
-0.954287

>  <r_i_glide_gscore>  (67) 
-3.85963

>  <r_i_glide_lipo>  (67) 
-0.603719

>  <r_i_glide_hbond>  (67) 
-0.2

>  <r_i_glide_metal>  (67) 
-0

>  <r_i_glide_rewards>  (67) 
-1.58988

>  <r_i_glide_evdw>  (67) 
-22.0878

>  <r_i_glide_ecoul>  (67) 
-4.73511

>  <r_i_glide_erotb>  (67) 
0.456744

>  <r_i_glide_esite>  (67) 
-0.108121

>  <r_i_glide_emodel>  (67) 
-35.4521

>  <r_i_glide_energy>  (67) 
-26.8229

>  <r_i_glide_einternal>  (67) 
0.216374

>  <r_i_glide_intrahb_reward>  (67) 
-0

>  <i_i_glide_confnum>  (67) 
5

>  <i_i_glide_posenum>  (67) 
11

>  <r_i_glide_eff_state_penalty>  (67) 
0

>  <ligand_id>  (67) 
22

>  <original_smiles>  (67) 
OC1C(C2CC2)C2C(c3ccccc3)=Nc3ncnn3C12

>  <smiles>  (67) 
[H]OC1([H])C2([H])n3nc([H])[n+]([H])c3N=C(c3c([H])c([H])c([H])c([H])c3[H])C2([H])C1([H])C1([H])C([H])([H])C1([H])[H]

$$$$
22:1:1
     RDKit          3D

 38 42  0  0  1  0  0  0  0  0999 V2000
    7.7980   -3.4539   -0.4007 O   0  0  0  0  0  0  0  0  0  0  0  0
    7.2893   -3.9082    0.8424 C   0  0  2  0  0  0  0  0  0  0  0  0
    6.7439   -5.3693    0.9389 C   0  0  1  0  0  0  0  0  0  0  0  0
    6.8620   -6.1309    2.2606 C   0  0  0  0  0  0  0  0  0  0  0  0
    8.1759   -6.7497    2.6625 C   0  0  0  0  0  0  0  0  0  0  0  0
    7.0162   -7.6364    2.2774 C   0  0  0  0  0  0  0  0  0  0  0  0
    5.4145   -4.7448    0.4784 C   0  0  1  0  0  0  0  0  0  0  0  0
    3.9529   -5.0624    0.8976 C   0  0  0  0  0  0  0  0  0  0  0  0
    3.4696   -6.4431    1.1958 C   0  0  0  0  0  0  0  0  0  0  0  0
    4.2760   -7.5508    0.8685 C   0  0  0  0  0  0  0  0  0  0  0  0
    3.8644   -8.8656    1.1460 C   0  0  0  0  0  0  0  0  0  0  0  0
    2.5955   -9.0916    1.6980 C   0  0  0  0  0  0  0  0  0  0  0  0
    1.7542   -7.9984    1.9869 C   0  0  0  0  0  0  0  0  0  0  0  0
    2.1886   -6.6760    1.7476 C   0  0  0  0  0  0  0  0  0  0  0  0
    3.1594   -4.0334    0.9509 N   0  0  0  0  0  0  0  0  0  0  0  0
    3.6706   -2.7641    0.7554 C   0  0  0  0  0  0  0  0  0  0  0  0
    3.0175   -1.6408    0.4508 N   0  0  0  0  0  0  0  0  0  0  0  0
    4.0521   -0.6877    0.3722 C   0  0  0  0  0  0  0  0  0  0  0  0
    5.2572   -1.1947    0.6221 N   0  0  0  0  0  0  0  0  0  0  0  0
    4.9827   -2.4757    0.8216 N   0  0  0  0  0  0  0  0  0  0  0  0
    5.8720   -3.4945    1.2302 C   0  0  2  0  0  0  0  0  0  0  0  0
    8.6069   -3.9193   -0.5604 H   0  0  0  0  0  0  0  0  0  0  0  0
    8.0179   -3.7239    1.6299 H   0  0  0  0  0  0  0  0  0  0  0  0
    7.1532   -5.9503    0.1157 H   0  0  0  0  0  0  0  0  0  0  0  0
    6.2699   -5.7164    3.0770 H   0  0  0  0  0  0  0  0  0  0  0  0
    8.9992   -6.6701    1.9519 H   0  0  0  0  0  0  0  0  0  0  0  0
    8.4549   -6.7269    3.7128 H   0  0  0  0  0  0  0  0  0  0  0  0
    6.4824   -8.1734    3.0589 H   0  0  0  0  0  0  0  0  0  0  0  0
    7.0971   -8.1620    1.3250 H   0  0  0  0  0  0  0  0  0  0  0  0
    5.4434   -4.6024   -0.6063 H   0  0  0  0  0  0  0  0  0  0  0  0
    5.2180   -7.4033    0.3714 H   0  0  0  0  0  0  0  0  0  0  0  0
    4.5181   -9.6932    0.9147 H   0  0  0  0  0  0  0  0  0  0  0  0
    2.2722  -10.1065    1.8820 H   0  0  0  0  0  0  0  0  0  0  0  0
    0.7735   -8.1841    2.3896 H   0  0  0  0  0  0  0  0  0  0  0  0
    1.5273   -5.8516    1.9758 H   0  0  0  0  0  0  0  0  0  0  0  0
    3.8892    0.3473    0.1070 H   0  0  0  0  0  0  0  0  0  0  0  0
    5.7436   -3.5703    2.3065 H   0  0  0  0  0  0  0  0  0  0  0  0
    2.0337   -1.4627    0.2256 H   0  0  0  0  0  0  0  0  0  0  0  0
  1  2  1  0
  1 22  1  0
  2 21  1  0
  2  3  1  0
  2 23  1  1
  3  4  1  0
  3  7  1  0
  3 24  1  6
  4  6  1  0
  4  5  1  0
  4 25  1  0
  5  6  1  0
  5 26  1  0
  5 27  1  0
  6 28  1  0
  6 29  1  0
  7 21  1  0
  7  8  1  0
  7 30  1  6
  8  9  1  0
  8 15  2  0
  9 14  1  0
  9 10  2  0
 10 11  1  0
 10 31  1  0
 11 12  2  0
 11 32  1  0
 12 13  1  0
 12 33  1  0
 13 14  2  0
 13 34  1  0
 14 35  1  0
 15 16  1  0
 16 20  1  0
 16 17  2  0
 17 18  1  0
 17 38  1  0
 18 19  2  0
 18 36  1  0
 19 20  1  0
 20 21  1  0
 21 37  1  1
M  CHG  1  17   1
M  END
>  <i_m_ct_stereo_status>  (68) 
1

>  <s_m_source_file>  (68) 
/var/tmp/pbs.5076255.sched01/tmps52fw2z9/0bkrl5082.sdf

>  <i_m_source_file_index>  (68) 
28

>  <i_lp_mmshare_version>  (68) 
48012

>  <i_f3d_flags>  (68) 
0

>  <s_epik_input>  (68) 
W0NIMl0xW0NIMl1bQ0hdMVtDQEBIXTJbQ0BASF0oW09IXSlbQ0BIXShbQ0BASF0yMyluNGMobltjSF1uNClOPUMzYzVbY0hdW2NIXVtjSF1bY0hdW2NIXTU=

>  <s_epik_cmdline>  (68) 
J2VwaWtfcHl0aG9uJywgJy1waHQnLCAnMi4wJywgJy1waCcsICc3LjAnLCAnLXRuJywgJzgnLCAnLW1hJywgJzIwMCcsICctaW1hZScsICc8aW5maWxlLm1hZT4nLCAnLW9tYWUnLCAnPG91dGZpbGUubWFlPic=

>  <r_lp_tautomer_probability>  (68) 
0.999601

>  <r_epik_Ionization_Penalty>  (68) 
0.53839

>  <r_epik_Ionization_Penalty_Charging>  (68) 
0.538385

>  <r_epik_Ionization_Penalty_Neutral>  (68) 
5.28383e-06

>  <r_epik_State_Penalty>  (68) 
0.547753

>  <r_epik_Charging_Adjusted_Penalty>  (68) 
1.08614

>  <i_epik_Tot_Q>  (68) 
1

>  <i_epik_Tot_abs_Q>  (68) 
1

>  <s_epik_Chemistry_Notes>  (68) 
This compound has an imine and may undergo hydrolysis.

>  <s_lp_Force_Field>  (68) 
OPLS3e

>  <r_lp_Energy>  (68) 
57.6312

>  <b_lp_Chiralities_Consistent>  (68) 
1

>  <s_lp_Variant>  (68) 
22:0-2

>  <s_i_glide_gridfile>  (68) 
pfpi4k_grid

>  <i_i_glide_lignum>  (68) 
28

>  <i_i_glide_rotatable_bonds>  (68) 
3

>  <r_i_docking_score>  (68) 
-3.79565

>  <r_i_glide_ligand_efficiency>  (68) 
-0.180745

>  <r_i_glide_ligand_efficiency_sa>  (68) 
-0.498663

>  <r_i_glide_ligand_efficiency_ln>  (68) 
-0.938468

>  <r_i_glide_gscore>  (68) 
-3.79565

>  <r_i_glide_lipo>  (68) 
-0.603338

>  <r_i_glide_hbond>  (68) 
-0.2

>  <r_i_glide_metal>  (68) 
-0

>  <r_i_glide_rewards>  (68) 
-1.61402

>  <r_i_glide_evdw>  (68) 
-22.0874

>  <r_i_glide_ecoul>  (68) 
-4.28661

>  <r_i_glide_erotb>  (68) 
0.456744

>  <r_i_glide_esite>  (68) 
-0.0876816

>  <r_i_glide_emodel>  (68) 
-34.312

>  <r_i_glide_energy>  (68) 
-26.374

>  <r_i_glide_einternal>  (68) 
1.55406

>  <r_i_glide_intrahb_reward>  (68) 
-0

>  <i_i_glide_confnum>  (68) 
6

>  <i_i_glide_posenum>  (68) 
29

>  <r_i_glide_eff_state_penalty>  (68) 
0

>  <ligand_id>  (68) 
22

>  <original_smiles>  (68) 
OC1C(C2CC2)C2C(c3ccccc3)=Nc3ncnn3C12

>  <smiles>  (68) 
[H]OC1([H])C2([H])n3nc([H])[n+]([H])c3N=C(c3c([H])c([H])c([H])c([H])c3[H])C2([H])C1([H])C1([H])C([H])([H])C1([H])[H]

$$$$
22:1:2
     RDKit          3D

 38 42  0  0  1  0  0  0  0  0999 V2000
    5.7751  -10.2468    1.1559 O   0  0  0  0  0  0  0  0  0  0  0  0
    5.2587   -9.7681    2.3893 C   0  0  2  0  0  0  0  0  0  0  0  0
    3.7440  -10.0291    2.7339 C   0  0  1  0  0  0  0  0  0  0  0  0
    3.3469  -10.1582    4.2000 C   0  0  0  0  0  0  0  0  0  0  0  0
    4.2367   -9.6637    5.3215 C   0  0  0  0  0  0  0  0  0  0  0  0
    4.0538  -11.1488    5.0924 C   0  0  0  0  0  0  0  0  0  0  0  0
    3.5051   -8.7237    1.9481 C   0  0  1  0  0  0  0  0  0  0  0  0
    2.4948   -7.5708    2.2155 C   0  0  0  0  0  0  0  0  0  0  0  0
    1.1180   -7.8109    2.7199 C   0  0  0  0  0  0  0  0  0  0  0  0
    0.3917   -6.7973    3.3856 C   0  0  0  0  0  0  0  0  0  0  0  0
   -0.9211   -7.0456    3.8248 C   0  0  0  0  0  0  0  0  0  0  0  0
   -1.5242   -8.2913    3.5881 C   0  0  0  0  0  0  0  0  0  0  0  0
   -0.8157   -9.2917    2.9089 C   0  0  0  0  0  0  0  0  0  0  0  0
    0.4999   -9.0583    2.4831 C   0  0  0  0  0  0  0  0  0  0  0  0
    2.9314   -6.3725    1.9412 N   0  0  0  0  0  0  0  0  0  0  0  0
    4.2365   -6.2068    1.5371 C   0  0  0  0  0  0  0  0  0  0  0  0
    4.8077   -5.1536    0.9367 N   0  0  0  0  0  0  0  0  0  0  0  0
    6.1542   -5.5355    0.7964 C   0  0  0  0  0  0  0  0  0  0  0  0
    6.4037   -6.7377    1.3174 N   0  0  0  0  0  0  0  0  0  0  0  0
    5.2072   -7.1369    1.7098 N   0  0  0  0  0  0  0  0  0  0  0  0
    4.8700   -8.2832    2.4648 C   0  0  2  0  0  0  0  0  0  0  0  0
    5.1940  -10.9507    0.8688 H   0  0  0  0  0  0  0  0  0  0  0  0
    5.9223  -10.0890    3.1983 H   0  0  0  0  0  0  0  0  0  0  0  0
    3.3589  -10.8725    2.1519 H   0  0  0  0  0  0  0  0  0  0  0  0
    2.2733  -10.0875    4.3711 H   0  0  0  0  0  0  0  0  0  0  0  0
    5.2248   -9.2654    5.0847 H   0  0  0  0  0  0  0  0  0  0  0  0
    3.7350   -9.1974    6.1666 H   0  0  0  0  0  0  0  0  0  0  0  0
    3.4857  -11.6944    5.8434 H   0  0  0  0  0  0  0  0  0  0  0  0
    4.8692  -11.7083    4.6370 H   0  0  0  0  0  0  0  0  0  0  0  0
    3.5144   -8.9271    0.8684 H   0  0  0  0  0  0  0  0  0  0  0  0
    0.8346   -5.8324    3.5641 H   0  0  0  0  0  0  0  0  0  0  0  0
   -1.4706   -6.2787    4.3495 H   0  0  0  0  0  0  0  0  0  0  0  0
   -2.5225   -8.4917    3.9355 H   0  0  0  0  0  0  0  0  0  0  0  0
   -1.2764  -10.2472    2.7371 H   0  0  0  0  0  0  0  0  0  0  0  0
    1.0185   -9.8422    1.9572 H   0  0  0  0  0  0  0  0  0  0  0  0
    6.9093   -4.9258    0.3165 H   0  0  0  0  0  0  0  0  0  0  0  0
    4.8356   -7.9302    3.5010 H   0  0  0  0  0  0  0  0  0  0  0  0
    4.3837   -4.2808    0.6322 H   0  0  0  0  0  0  0  0  0  0  0  0
  1  2  1  0
  1 22  1  0
  2 21  1  0
  2  3  1  0
  2 23  1  1
  3  4  1  0
  3  7  1  0
  3 24  1  6
  4  6  1  0
  4  5  1  0
  4 25  1  0
  5  6  1  0
  5 26  1  0
  5 27  1  0
  6 28  1  0
  6 29  1  0
  7 21  1  0
  7  8  1  0
  7 30  1  6
  8  9  1  0
  8 15  2  0
  9 14  1  0
  9 10  2  0
 10 11  1  0
 10 31  1  0
 11 12  2  0
 11 32  1  0
 12 13  1  0
 12 33  1  0
 13 14  2  0
 13 34  1  0
 14 35  1  0
 15 16  1  0
 16 20  1  0
 16 17  2  0
 17 18  1  0
 17 38  1  0
 18 19  2  0
 18 36  1  0
 19 20  1  0
 20 21  1  0
 21 37  1  1
M  CHG  1  17   1
M  END
>  <i_m_ct_stereo_status>  (69) 
1

>  <s_m_source_file>  (69) 
/var/tmp/pbs.5076255.sched01/tmps52fw2z9/0bkrl5082.sdf

>  <i_m_source_file_index>  (69) 
28

>  <i_lp_mmshare_version>  (69) 
48012

>  <i_f3d_flags>  (69) 
0

>  <s_epik_input>  (69) 
W0NIMl0xW0NIMl1bQ0hdMVtDQEBIXTJbQ0BASF0oW09IXSlbQ0BIXShbQ0BASF0yMyluNGMobltjSF1uNClOPUMzYzVbY0hdW2NIXVtjSF1bY0hdW2NIXTU=

>  <s_epik_cmdline>  (69) 
J2VwaWtfcHl0aG9uJywgJy1waHQnLCAnMi4wJywgJy1waCcsICc3LjAnLCAnLXRuJywgJzgnLCAnLW1hJywgJzIwMCcsICctaW1hZScsICc8aW5maWxlLm1hZT4nLCAnLW9tYWUnLCAnPG91dGZpbGUubWFlPic=

>  <r_lp_tautomer_probability>  (69) 
0.999601

>  <r_epik_Ionization_Penalty>  (69) 
0.53839

>  <r_epik_Ionization_Penalty_Charging>  (69) 
0.538385

>  <r_epik_Ionization_Penalty_Neutral>  (69) 
5.28383e-06

>  <r_epik_State_Penalty>  (69) 
0.547753

>  <r_epik_Charging_Adjusted_Penalty>  (69) 
1.08614

>  <i_epik_Tot_Q>  (69) 
1

>  <i_epik_Tot_abs_Q>  (69) 
1

>  <s_epik_Chemistry_Notes>  (69) 
This compound has an imine and may undergo hydrolysis.

>  <s_lp_Force_Field>  (69) 
OPLS3e

>  <r_lp_Energy>  (69) 
57.6312

>  <b_lp_Chiralities_Consistent>  (69) 
1

>  <s_lp_Variant>  (69) 
22:0-2

>  <s_i_glide_gridfile>  (69) 
pfpi4k_grid

>  <i_i_glide_lignum>  (69) 
28

>  <i_i_glide_rotatable_bonds>  (69) 
3

>  <r_i_docking_score>  (69) 
-3.42868

>  <r_i_glide_ligand_efficiency>  (69) 
-0.16327

>  <r_i_glide_ligand_efficiency_sa>  (69) 
-0.45045

>  <r_i_glide_ligand_efficiency_ln>  (69) 
-0.847733

>  <r_i_glide_gscore>  (69) 
-3.42868

>  <r_i_glide_lipo>  (69) 
0

>  <r_i_glide_hbond>  (69) 
-0.16

>  <r_i_glide_metal>  (69) 
-0

>  <r_i_glide_rewards>  (69) 
-1.78701

>  <r_i_glide_evdw>  (69) 
-20.125

>  <r_i_glide_ecoul>  (69) 
-6.16299

>  <r_i_glide_erotb>  (69) 
0.456744

>  <r_i_glide_esite>  (69) 
-0.00770646

>  <r_i_glide_emodel>  (69) 
-31.4595

>  <r_i_glide_energy>  (69) 
-26.288

>  <r_i_glide_einternal>  (69) 
5.85166

>  <r_i_glide_intrahb_reward>  (69) 
-0

>  <i_i_glide_confnum>  (69) 
5

>  <i_i_glide_posenum>  (69) 
3

>  <r_i_glide_eff_state_penalty>  (69) 
0

>  <ligand_id>  (69) 
22

>  <original_smiles>  (69) 
OC1C(C2CC2)C2C(c3ccccc3)=Nc3ncnn3C12

>  <smiles>  (69) 
[H]OC1([H])C2([H])n3nc([H])[n+]([H])c3N=C(c3c([H])c([H])c([H])c([H])c3[H])C2([H])C1([H])C1([H])C([H])([H])C1([H])[H]

$$$$
23:0:0
     RDKit          3D

 40 43  0  0  1  0  0  0  0  0999 V2000
    0.7889   -1.4326    4.0599 C   0  0  0  0  0  0  0  0  0  0  0  0
    1.2515   -2.6885    3.5871 O   0  0  0  0  0  0  0  0  0  0  0  0
    2.3596   -2.7115    2.7620 C   0  0  0  0  0  0  0  0  0  0  0  0
    3.1550   -1.5720    2.4935 C   0  0  0  0  0  0  0  0  0  0  0  0
    4.2739   -1.6691    1.6459 C   0  0  0  0  0  0  0  0  0  0  0  0
    4.6332   -2.8939    1.0473 C   0  0  0  0  0  0  0  0  0  0  0  0
    5.8246   -2.9149    0.1873 C   0  0  0  0  0  0  0  0  0  0  0  0
    7.0475   -3.4693    0.6174 C   0  0  0  0  0  0  0  0  0  0  0  0
    8.1446   -3.4035   -0.2632 C   0  0  0  0  0  0  0  0  0  0  0  0
    8.0580   -2.8287   -1.4824 N   0  0  0  0  0  0  0  0  0  0  0  0
    6.8986   -2.3062   -1.8978 N   0  0  0  0  0  0  0  0  0  0  0  0
    5.8110   -2.3391   -1.0996 C   0  0  0  0  0  0  0  0  0  0  0  0
    3.8333   -4.0389    1.2954 C   0  0  0  0  0  0  0  0  0  0  0  0
    4.0951   -5.2973    0.7148 C   0  0  0  0  0  0  0  0  0  0  0  0
    3.3535   -6.4010    0.9428 N   0  0  0  0  0  0  0  0  0  0  0  0
    2.2789   -6.3202    1.7563 C   0  0  0  0  0  0  0  0  0  0  0  0
    1.5005   -7.4778    2.0549 N   0  0  0  0  0  0  0  0  0  0  0  0
    0.1582   -7.5104    2.1535 C   0  0  0  0  0  0  0  0  0  0  0  0
   -0.5661   -6.6253    1.6962 O   0  0  0  0  0  0  0  0  0  0  0  0
   -0.4147   -8.7024    2.8479 C   0  0  0  0  0  0  0  0  0  0  0  0
   -1.8069   -9.1410    2.4606 C   0  0  0  0  0  0  0  0  0  0  0  0
   -1.5871   -8.4375    3.7738 C   0  0  0  0  0  0  0  0  0  0  0  0
    1.9420   -5.0958    2.3874 C   0  0  0  0  0  0  0  0  0  0  0  0
    2.7108   -3.9403    2.1510 C   0  0  0  0  0  0  0  0  0  0  0  0
   -0.0913   -1.5884    4.6839 H   0  0  0  0  0  0  0  0  0  0  0  0
    0.4978   -0.7827    3.2319 H   0  0  0  0  0  0  0  0  0  0  0  0
    1.5357   -0.9258    4.6744 H   0  0  0  0  0  0  0  0  0  0  0  0
    2.9255   -0.6085    2.9244 H   0  0  0  0  0  0  0  0  0  0  0  0
    4.8675   -0.7815    1.4588 H   0  0  0  0  0  0  0  0  0  0  0  0
    7.1543   -3.9128    1.5973 H   0  0  0  0  0  0  0  0  0  0  0  0
    9.1120   -3.8081    0.0078 H   0  0  0  0  0  0  0  0  0  0  0  0
    4.9289   -1.8587   -1.4972 H   0  0  0  0  0  0  0  0  0  0  0  0
    4.9267   -5.4397    0.0435 H   0  0  0  0  0  0  0  0  0  0  0  0
    0.2821   -9.4754    3.1665 H   0  0  0  0  0  0  0  0  0  0  0  0
   -2.3394   -8.5988    1.6839 H   0  0  0  0  0  0  0  0  0  0  0  0
   -1.9915  -10.2071    2.4755 H   0  0  0  0  0  0  0  0  0  0  0  0
   -1.6531   -9.0387    4.6781 H   0  0  0  0  0  0  0  0  0  0  0  0
   -1.9823   -7.4286    3.8688 H   0  0  0  0  0  0  0  0  0  0  0  0
    1.1067   -5.0287    3.0664 H   0  0  0  0  0  0  0  0  0  0  0  0
    2.0055   -8.3389    2.2182 H   0  0  0  0  0  0  0  0  0  0  0  0
  1  2  1  0
  1 25  1  0
  1 26  1  0
  1 27  1  0
  2  3  1  0
  3 24  2  0
  3  4  1  0
  4  5  2  0
  4 28  1  0
  5  6  1  0
  5 29  1  0
  6  7  1  0
  6 13  2  0
  7 12  1  0
  7  8  2  0
  8  9  1  0
  8 30  1  0
  9 10  2  0
  9 31  1  0
 10 11  1  0
 11 12  2  0
 12 32  1  0
 13 24  1  0
 13 14  1  0
 14 15  2  0
 14 33  1  0
 15 16  1  0
 16 17  1  0
 16 23  2  0
 17 18  1  0
 17 40  1  0
 18 19  2  0
 18 20  1  0
 20 22  1  0
 20 21  1  0
 20 34  1  0
 21 22  1  0
 21 35  1  0
 21 36  1  0
 22 37  1  0
 22 38  1  0
 23 24  1  0
 23 39  1  0
M  END
>  <i_m_ct_stereo_status>  (70) 
1

>  <s_m_source_file>  (70) 
/var/tmp/pbs.5076255.sched01/tmps52fw2z9/0bkrl5082.sdf

>  <i_m_source_file_index>  (70) 
29

>  <i_lp_mmshare_version>  (70) 
48012

>  <i_f3d_flags>  (70) 
0

>  <s_epik_input>  (70) 
W0NIMl0xW0NIMl1bQ0hdMUMoPU8pXE49YyhcW25IXVtjSF0yKVtjSF1jKGMyMyljKE9bQ0gzXSlbY0hdW2NIXWMzLWM0W2NIXVtjSF1ubltjSF00

>  <s_epik_cmdline>  (70) 
J2VwaWtfcHl0aG9uJywgJy1waHQnLCAnMi4wJywgJy1waCcsICc3LjAnLCAnLXRuJywgJzgnLCAnLW1hJywgJzIwMCcsICctaW1hZScsICc8aW5maWxlLm1hZT4nLCAnLW9tYWUnLCAnPG91dGZpbGUubWFlPic=

>  <r_lp_tautomer_probability>  (70) 
1

>  <r_epik_Ionization_Penalty>  (70) 
0.00341434

>  <r_epik_Ionization_Penalty_Charging>  (70) 
0

>  <r_epik_Ionization_Penalty_Neutral>  (70) 
0.00341434

>  <r_epik_State_Penalty>  (70) 
0.00256769

>  <r_epik_Charging_Adjusted_Penalty>  (70) 
0.00256769

>  <i_epik_Tot_Q>  (70) 
0

>  <i_epik_Tot_abs_Q>  (70) 
0

>  <s_lp_Force_Field>  (70) 
OPLS3e

>  <r_lp_Energy>  (70) 
66.7996

>  <b_lp_Chiralities_Consistent>  (70) 
1

>  <s_lp_Variant>  (70) 
23:0-1

>  <s_i_glide_gridfile>  (70) 
pfpi4k_grid

>  <i_i_glide_lignum>  (70) 
29

>  <i_i_glide_rotatable_bonds>  (70) 
5

>  <r_i_docking_score>  (70) 
-3.82194

>  <r_i_glide_ligand_efficiency>  (70) 
-0.159247

>  <r_i_glide_ligand_efficiency_sa>  (70) 
-0.459349

>  <r_i_glide_ligand_efficiency_ln>  (70) 
-0.914765

>  <r_i_glide_gscore>  (70) 
-3.82194

>  <r_i_glide_lipo>  (70) 
-0.711494

>  <r_i_glide_hbond>  (70) 
-0.221746

>  <r_i_glide_metal>  (70) 
-0

>  <r_i_glide_rewards>  (70) 
-1.22492

>  <r_i_glide_evdw>  (70) 
-26.6293

>  <r_i_glide_ecoul>  (70) 
-5.31786

>  <r_i_glide_erotb>  (70) 
0.727783

>  <r_i_glide_esite>  (70) 
-0.262417

>  <r_i_glide_emodel>  (70) 
-36.7525

>  <r_i_glide_energy>  (70) 
-31.9472

>  <r_i_glide_einternal>  (70) 
7.8854

>  <r_i_glide_intrahb_reward>  (70) 
-0

>  <i_i_glide_confnum>  (70) 
3

>  <i_i_glide_posenum>  (70) 
2

>  <r_i_glide_eff_state_penalty>  (70) 
0

>  <ligand_id>  (70) 
23

>  <original_smiles>  (70) 
COc1ccc(-c2ccnnc2)c2c[nH]c(=NC(=O)C3CC3)cc12

>  <smiles>  (70) 
[H]c1nnc([H])c(-c2c([H])c([H])c(OC([H])([H])[H])c3c([H])c(N([H])C(=O)C4([H])C([H])([H])C4([H])[H])nc([H])c23)c1[H]

$$$$
23:0:1
     RDKit          3D

 40 43  0  0  1  0  0  0  0  0999 V2000
    0.9743   -1.2583    3.1096 C   0  0  0  0  0  0  0  0  0  0  0  0
    1.4194   -2.5901    2.8980 O   0  0  0  0  0  0  0  0  0  0  0  0
    2.6405   -2.7935    2.2917 C   0  0  0  0  0  0  0  0  0  0  0  0
    3.5204   -1.7423    1.9554 C   0  0  0  0  0  0  0  0  0  0  0  0
    4.7589   -2.0235    1.3471 C   0  0  0  0  0  0  0  0  0  0  0  0
    5.1590   -3.3475    1.0506 C   0  0  0  0  0  0  0  0  0  0  0  0
    6.4852   -3.5479    0.4367 C   0  0  0  0  0  0  0  0  0  0  0  0
    6.8995   -2.8057   -0.6925 C   0  0  0  0  0  0  0  0  0  0  0  0
    8.1784   -3.0580   -1.2148 C   0  0  0  0  0  0  0  0  0  0  0  0
    9.0107   -3.9757   -0.6753 N   0  0  0  0  0  0  0  0  0  0  0  0
    8.6420   -4.6725    0.4027 N   0  0  0  0  0  0  0  0  0  0  0  0
    7.4258   -4.4676    0.9489 C   0  0  0  0  0  0  0  0  0  0  0  0
    4.2625   -4.4071    1.3644 C   0  0  0  0  0  0  0  0  0  0  0  0
    4.5294   -5.7687    1.0837 C   0  0  0  0  0  0  0  0  0  0  0  0
    3.7000   -6.7898    1.3824 N   0  0  0  0  0  0  0  0  0  0  0  0
    2.5169   -6.5176    1.9741 C   0  0  0  0  0  0  0  0  0  0  0  0
    1.6373   -7.5846    2.3220 N   0  0  0  0  0  0  0  0  0  0  0  0
    0.2919   -7.5472    2.2944 C   0  0  0  0  0  0  0  0  0  0  0  0
   -0.3444   -6.6213    1.7923 O   0  0  0  0  0  0  0  0  0  0  0  0
   -0.4012   -8.7113    2.9169 C   0  0  0  0  0  0  0  0  0  0  0  0
   -1.8147   -8.9975    2.4495 C   0  0  0  0  0  0  0  0  0  0  0  0
   -1.5872   -8.3905    3.8104 C   0  0  0  0  0  0  0  0  0  0  0  0
    2.1609   -5.1881    2.3029 C   0  0  0  0  0  0  0  0  0  0  0  0
    3.0225   -4.1216    1.9844 C   0  0  0  0  0  0  0  0  0  0  0  0
   -0.0099   -1.2790    3.5759 H   0  0  0  0  0  0  0  0  0  0  0  0
    0.8839   -0.7128    2.1681 H   0  0  0  0  0  0  0  0  0  0  0  0
    1.6425   -0.7196    3.7823 H   0  0  0  0  0  0  0  0  0  0  0  0
    3.2696   -0.7111    2.1530 H   0  0  0  0  0  0  0  0  0  0  0  0
    5.4183   -1.1937    1.1192 H   0  0  0  0  0  0  0  0  0  0  0  0
    6.2495   -2.0719   -1.1461 H   0  0  0  0  0  0  0  0  0  0  0  0
    8.5455   -2.5166   -2.0713 H   0  0  0  0  0  0  0  0  0  0  0  0
    7.2067   -5.0589    1.8218 H   0  0  0  0  0  0  0  0  0  0  0  0
    5.4327   -6.0799    0.5949 H   0  0  0  0  0  0  0  0  0  0  0  0
    0.2117   -9.5657    3.2109 H   0  0  0  0  0  0  0  0  0  0  0  0
   -2.2481   -8.3604    1.6848 H   0  0  0  0  0  0  0  0  0  0  0  0
   -2.1101  -10.0387    2.3927 H   0  0  0  0  0  0  0  0  0  0  0  0
   -1.7455   -9.0245    4.6765 H   0  0  0  0  0  0  0  0  0  0  0  0
   -1.8823   -7.3509    3.9456 H   0  0  0  0  0  0  0  0  0  0  0  0
    1.2369   -4.9603    2.8140 H   0  0  0  0  0  0  0  0  0  0  0  0
    2.0692   -8.4580    2.5886 H   0  0  0  0  0  0  0  0  0  0  0  0
  1  2  1  0
  1 25  1  0
  1 26  1  0
  1 27  1  0
  2  3  1  0
  3 24  2  0
  3  4  1  0
  4  5  2  0
  4 28  1  0
  5  6  1  0
  5 29  1  0
  6  7  1  0
  6 13  2  0
  7 12  1  0
  7  8  2  0
  8  9  1  0
  8 30  1  0
  9 10  2  0
  9 31  1  0
 10 11  1  0
 11 12  2  0
 12 32  1  0
 13 24  1  0
 13 14  1  0
 14 15  2  0
 14 33  1  0
 15 16  1  0
 16 17  1  0
 16 23  2  0
 17 18  1  0
 17 40  1  0
 18 19  2  0
 18 20  1  0
 20 22  1  0
 20 21  1  0
 20 34  1  0
 21 22  1  0
 21 35  1  0
 21 36  1  0
 22 37  1  0
 22 38  1  0
 23 24  1  0
 23 39  1  0
M  END
>  <i_m_ct_stereo_status>  (71) 
1

>  <s_m_source_file>  (71) 
/var/tmp/pbs.5076255.sched01/tmps52fw2z9/0bkrl5082.sdf

>  <i_m_source_file_index>  (71) 
29

>  <i_lp_mmshare_version>  (71) 
48012

>  <i_f3d_flags>  (71) 
0

>  <s_epik_input>  (71) 
W0NIMl0xW0NIMl1bQ0hdMUMoPU8pXE49YyhcW25IXVtjSF0yKVtjSF1jKGMyMyljKE9bQ0gzXSlbY0hdW2NIXWMzLWM0W2NIXVtjSF1ubltjSF00

>  <s_epik_cmdline>  (71) 
J2VwaWtfcHl0aG9uJywgJy1waHQnLCAnMi4wJywgJy1waCcsICc3LjAnLCAnLXRuJywgJzgnLCAnLW1hJywgJzIwMCcsICctaW1hZScsICc8aW5maWxlLm1hZT4nLCAnLW9tYWUnLCAnPG91dGZpbGUubWFlPic=

>  <r_lp_tautomer_probability>  (71) 
1

>  <r_epik_Ionization_Penalty>  (71) 
0.00341434

>  <r_epik_Ionization_Penalty_Charging>  (71) 
0

>  <r_epik_Ionization_Penalty_Neutral>  (71) 
0.00341434

>  <r_epik_State_Penalty>  (71) 
0.00256769

>  <r_epik_Charging_Adjusted_Penalty>  (71) 
0.00256769

>  <i_epik_Tot_Q>  (71) 
0

>  <i_epik_Tot_abs_Q>  (71) 
0

>  <s_lp_Force_Field>  (71) 
OPLS3e

>  <r_lp_Energy>  (71) 
66.7996

>  <b_lp_Chiralities_Consistent>  (71) 
1

>  <s_lp_Variant>  (71) 
23:0-1

>  <s_i_glide_gridfile>  (71) 
pfpi4k_grid

>  <i_i_glide_lignum>  (71) 
29

>  <i_i_glide_rotatable_bonds>  (71) 
5

>  <r_i_docking_score>  (71) 
-3.69806

>  <r_i_glide_ligand_efficiency>  (71) 
-0.154086

>  <r_i_glide_ligand_efficiency_sa>  (71) 
-0.44446

>  <r_i_glide_ligand_efficiency_ln>  (71) 
-0.885114

>  <r_i_glide_gscore>  (71) 
-3.69806

>  <r_i_glide_lipo>  (71) 
-0.643204

>  <r_i_glide_hbond>  (71) 
-0.223353

>  <r_i_glide_metal>  (71) 
-0

>  <r_i_glide_rewards>  (71) 
-1.22492

>  <r_i_glide_evdw>  (71) 
-27.9471

>  <r_i_glide_ecoul>  (71) 
-5.21346

>  <r_i_glide_erotb>  (71) 
0.727783

>  <r_i_glide_esite>  (71) 
-0.15499

>  <r_i_glide_emodel>  (71) 
-38.6026

>  <r_i_glide_energy>  (71) 
-33.1605

>  <r_i_glide_einternal>  (71) 
6.06409

>  <r_i_glide_intrahb_reward>  (71) 
-0

>  <i_i_glide_confnum>  (71) 
3

>  <i_i_glide_posenum>  (71) 
9

>  <r_i_glide_eff_state_penalty>  (71) 
0

>  <ligand_id>  (71) 
23

>  <original_smiles>  (71) 
COc1ccc(-c2ccnnc2)c2c[nH]c(=NC(=O)C3CC3)cc12

>  <smiles>  (71) 
[H]c1nnc([H])c(-c2c([H])c([H])c(OC([H])([H])[H])c3c([H])c(N([H])C(=O)C4([H])C([H])([H])C4([H])[H])nc([H])c23)c1[H]

$$$$
23:0:2
     RDKit          3D

 40 43  0  0  1  0  0  0  0  0999 V2000
    0.3653   -4.2416    4.9908 C   0  0  0  0  0  0  0  0  0  0  0  0
    0.6183   -3.0111    4.3340 O   0  0  0  0  0  0  0  0  0  0  0  0
    1.6282   -2.9514    3.3927 C   0  0  0  0  0  0  0  0  0  0  0  0
    2.3925   -4.0708    3.0016 C   0  0  0  0  0  0  0  0  0  0  0  0
    3.3957   -3.9366    2.0242 C   0  0  0  0  0  0  0  0  0  0  0  0
    3.6786   -2.6892    1.4216 C   0  0  0  0  0  0  0  0  0  0  0  0
    4.7511   -2.6476    0.4100 C   0  0  0  0  0  0  0  0  0  0  0  0
    4.6648   -3.3925   -0.7844 C   0  0  0  0  0  0  0  0  0  0  0  0
    5.7359   -3.3056   -1.6960 C   0  0  0  0  0  0  0  0  0  0  0  0
    6.8329   -2.5510   -1.4596 N   0  0  0  0  0  0  0  0  0  0  0  0
    6.9310   -1.8603   -0.3169 N   0  0  0  0  0  0  0  0  0  0  0  0
    5.9288   -1.8944    0.5911 C   0  0  0  0  0  0  0  0  0  0  0  0
    2.9285   -1.5545    1.8264 C   0  0  0  0  0  0  0  0  0  0  0  0
    3.1313   -0.2554    1.3083 C   0  0  0  0  0  0  0  0  0  0  0  0
    2.4232    0.8279    1.6877 N   0  0  0  0  0  0  0  0  0  0  0  0
    1.4255    0.6878    2.5868 C   0  0  0  0  0  0  0  0  0  0  0  0
    0.6522    1.8233    2.9721 N   0  0  0  0  0  0  0  0  0  0  0  0
   -0.6487    1.8410    3.3266 C   0  0  0  0  0  0  0  0  0  0  0  0
   -1.3456    0.8290    3.4241 O   0  0  0  0  0  0  0  0  0  0  0  0
   -1.2289    3.1907    3.6166 C   0  0  0  0  0  0  0  0  0  0  0  0
   -2.3007    3.2585    4.6903 C   0  0  0  0  0  0  0  0  0  0  0  0
   -2.6860    3.3928    3.2400 C   0  0  0  0  0  0  0  0  0  0  0  0
    1.1731   -0.5710    3.1851 C   0  0  0  0  0  0  0  0  0  0  0  0
    1.9063   -1.6995    2.7929 C   0  0  0  0  0  0  0  0  0  0  0  0
   -0.4529   -4.1117    5.7010 H   0  0  0  0  0  0  0  0  0  0  0  0
    1.2412   -4.5731    5.5498 H   0  0  0  0  0  0  0  0  0  0  0  0
    0.0682   -5.0173    4.2837 H   0  0  0  0  0  0  0  0  0  0  0  0
    2.2245   -5.0444    3.4399 H   0  0  0  0  0  0  0  0  0  0  0  0
    3.9709   -4.8119    1.7471 H   0  0  0  0  0  0  0  0  0  0  0  0
    3.8075   -4.0167   -1.0042 H   0  0  0  0  0  0  0  0  0  0  0  0
    5.7211   -3.8556   -2.6263 H   0  0  0  0  0  0  0  0  0  0  0  0
    6.0851   -1.3119    1.4872 H   0  0  0  0  0  0  0  0  0  0  0  0
    3.8871   -0.0615    0.5653 H   0  0  0  0  0  0  0  0  0  0  0  0
   -0.5655    4.0511    3.5142 H   0  0  0  0  0  0  0  0  0  0  0  0
   -2.5809    2.3375    5.1975 H   0  0  0  0  0  0  0  0  0  0  0  0
   -2.3430    4.1455    5.3122 H   0  0  0  0  0  0  0  0  0  0  0  0
   -2.9745    4.3735    2.8711 H   0  0  0  0  0  0  0  0  0  0  0  0
   -3.2207    2.5583    2.7865 H   0  0  0  0  0  0  0  0  0  0  0  0
    0.4105   -0.7044    3.9336 H   0  0  0  0  0  0  0  0  0  0  0  0
    1.0861    2.7266    2.8372 H   0  0  0  0  0  0  0  0  0  0  0  0
  1  2  1  0
  1 25  1  0
  1 26  1  0
  1 27  1  0
  2  3  1  0
  3 24  2  0
  3  4  1  0
  4  5  2  0
  4 28  1  0
  5  6  1  0
  5 29  1  0
  6  7  1  0
  6 13  2  0
  7 12  1  0
  7  8  2  0
  8  9  1  0
  8 30  1  0
  9 10  2  0
  9 31  1  0
 10 11  1  0
 11 12  2  0
 12 32  1  0
 13 24  1  0
 13 14  1  0
 14 15  2  0
 14 33  1  0
 15 16  1  0
 16 17  1  0
 16 23  2  0
 17 18  1  0
 17 40  1  0
 18 19  2  0
 18 20  1  0
 20 22  1  0
 20 21  1  0
 20 34  1  0
 21 22  1  0
 21 35  1  0
 21 36  1  0
 22 37  1  0
 22 38  1  0
 23 24  1  0
 23 39  1  0
M  END
>  <i_m_ct_stereo_status>  (72) 
1

>  <s_m_source_file>  (72) 
/var/tmp/pbs.5076255.sched01/tmps52fw2z9/0bkrl5082.sdf

>  <i_m_source_file_index>  (72) 
29

>  <i_lp_mmshare_version>  (72) 
48012

>  <i_f3d_flags>  (72) 
0

>  <s_epik_input>  (72) 
W0NIMl0xW0NIMl1bQ0hdMUMoPU8pXE49YyhcW25IXVtjSF0yKVtjSF1jKGMyMyljKE9bQ0gzXSlbY0hdW2NIXWMzLWM0W2NIXVtjSF1ubltjSF00

>  <s_epik_cmdline>  (72) 
J2VwaWtfcHl0aG9uJywgJy1waHQnLCAnMi4wJywgJy1waCcsICc3LjAnLCAnLXRuJywgJzgnLCAnLW1hJywgJzIwMCcsICctaW1hZScsICc8aW5maWxlLm1hZT4nLCAnLW9tYWUnLCAnPG91dGZpbGUubWFlPic=

>  <r_lp_tautomer_probability>  (72) 
1

>  <r_epik_Ionization_Penalty>  (72) 
0.00341434

>  <r_epik_Ionization_Penalty_Charging>  (72) 
0

>  <r_epik_Ionization_Penalty_Neutral>  (72) 
0.00341434

>  <r_epik_State_Penalty>  (72) 
0.00256769

>  <r_epik_Charging_Adjusted_Penalty>  (72) 
0.00256769

>  <i_epik_Tot_Q>  (72) 
0

>  <i_epik_Tot_abs_Q>  (72) 
0

>  <s_lp_Force_Field>  (72) 
OPLS3e

>  <r_lp_Energy>  (72) 
66.7996

>  <b_lp_Chiralities_Consistent>  (72) 
1

>  <s_lp_Variant>  (72) 
23:0-1

>  <s_i_glide_gridfile>  (72) 
pfpi4k_grid

>  <i_i_glide_lignum>  (72) 
29

>  <i_i_glide_rotatable_bonds>  (72) 
5

>  <r_i_docking_score>  (72) 
-2.69867

>  <r_i_glide_ligand_efficiency>  (72) 
-0.112445

>  <r_i_glide_ligand_efficiency_sa>  (72) 
-0.324346

>  <r_i_glide_ligand_efficiency_ln>  (72) 
-0.645916

>  <r_i_glide_gscore>  (72) 
-2.69867

>  <r_i_glide_lipo>  (72) 
-0.31945

>  <r_i_glide_hbond>  (72) 
0

>  <r_i_glide_metal>  (72) 
-0

>  <r_i_glide_rewards>  (72) 
-1.22492

>  <r_i_glide_evdw>  (72) 
-28.4014

>  <r_i_glide_ecoul>  (72) 
-1.72622

>  <r_i_glide_erotb>  (72) 
0.727783

>  <r_i_glide_esite>  (72) 
-0.203083

>  <r_i_glide_emodel>  (72) 
-33.2299

>  <r_i_glide_energy>  (72) 
-30.1276

>  <r_i_glide_einternal>  (72) 
5.85478

>  <r_i_glide_intrahb_reward>  (72) 
-0

>  <i_i_glide_confnum>  (72) 
5

>  <i_i_glide_posenum>  (72) 
31

>  <r_i_glide_eff_state_penalty>  (72) 
0

>  <ligand_id>  (72) 
23

>  <original_smiles>  (72) 
COc1ccc(-c2ccnnc2)c2c[nH]c(=NC(=O)C3CC3)cc12

>  <smiles>  (72) 
[H]c1nnc([H])c(-c2c([H])c([H])c(OC([H])([H])[H])c3c([H])c(N([H])C(=O)C4([H])C([H])([H])C4([H])[H])nc([H])c23)c1[H]

$$$$
24:0:0
     RDKit          3D

 48 53  0  0  1  0  0  0  0  0999 V2000
    4.0829   -3.0562   -2.8079 C   0  0  0  0  0  0  0  0  0  0  0  0
    4.5934   -2.9043   -1.5790 C   0  0  0  0  0  0  0  0  0  0  0  0
    5.6220   -3.8547   -1.0028 C   0  0  0  0  0  0  0  0  0  0  0  0
    5.2996   -4.5162    0.3673 C   0  0  0  0  0  0  0  0  0  0  0  0
    4.2551   -3.6705    1.1023 C   0  0  1  0  0  0  0  0  0  0  0  0
    3.3118   -4.2333    2.2797 C   0  0  2  0  0  0  0  0  0  0  0  0
    2.0671   -3.5444    1.8302 C   0  0  0  0  0  0  0  0  0  0  0  0
    2.2732   -2.2694    2.5358 C   0  0  0  0  0  0  0  0  0  0  0  0
    2.5329   -2.5485    3.8008 C   0  0  0  0  0  0  0  0  0  0  0  0
    2.8009   -1.3220    4.6899 C   0  0  0  0  0  0  0  0  0  0  0  0
    2.6878    0.0627    3.8935 C   0  0  0  0  0  0  0  0  0  0  0  0
    3.0272   -0.0556    2.3725 C   0  0  0  0  0  0  0  0  0  0  0  0
    3.0152    0.8948    1.5893 O   0  0  0  0  0  0  0  0  0  0  0  0
    3.4950   -1.4465    2.0386 C   0  0  1  0  0  0  0  0  0  0  0  0
    4.6409   -1.5461    2.8921 O   0  0  0  0  0  0  0  0  0  0  0  0
    5.7682   -0.9486    2.3817 C   0  0  0  0  0  0  0  0  0  0  0  0
    5.7389   -1.5577    1.0514 C   0  0  2  0  0  0  0  0  0  0  0  0
    6.0629   -0.6084   -0.0440 C   0  0  0  0  0  0  0  0  0  0  0  0
    4.8288   -0.5509   -0.9131 C   0  0  0  0  0  0  0  0  0  0  0  0
    4.0354   -1.8180   -0.6255 C   0  0  2  0  0  0  0  0  0  0  0  0
    4.3205   -2.1146    0.8615 C   0  0  1  0  0  0  0  0  0  0  0  0
    3.3676   -3.6801    3.6734 N   0  0  0  0  0  0  0  0  0  0  0  0
    4.4578   -4.0887    4.5403 C   0  0  0  0  0  0  0  0  0  0  0  0
    3.3068   -2.4112   -3.1889 H   0  0  0  0  0  0  0  0  0  0  0  0
    4.4270   -3.8721   -3.4262 H   0  0  0  0  0  0  0  0  0  0  0  0
    5.6677   -4.6416   -1.7475 H   0  0  0  0  0  0  0  0  0  0  0  0
    6.6014   -3.3609   -0.9664 H   0  0  0  0  0  0  0  0  0  0  0  0
    4.8764   -5.5113    0.1898 H   0  0  0  0  0  0  0  0  0  0  0  0
    6.1944   -4.6580    0.9687 H   0  0  0  0  0  0  0  0  0  0  0  0
    3.5994   -4.0080    0.3031 H   0  0  0  0  0  0  0  0  0  0  0  0
    3.1920   -5.3261    2.2601 H   0  0  0  0  0  0  0  0  0  0  0  0
    1.8451   -3.3880    0.7692 H   0  0  0  0  0  0  0  0  0  0  0  0
    1.2188   -4.0133    2.3366 H   0  0  0  0  0  0  0  0  0  0  0  0
    2.0379   -1.3344    5.4790 H   0  0  0  0  0  0  0  0  0  0  0  0
    1.6715    0.4221    3.9324 H   0  0  0  0  0  0  0  0  0  0  0  0
    3.3074    0.8229    4.3554 H   0  0  0  0  0  0  0  0  0  0  0  0
    5.7729    0.1437    2.4147 H   0  0  0  0  0  0  0  0  0  0  0  0
    6.6201   -1.3415    2.8579 H   0  0  0  0  0  0  0  0  0  0  0  0
    6.4955   -2.3219    1.0308 H   0  0  0  0  0  0  0  0  0  0  0  0
    6.3432    0.3726    0.3011 H   0  0  0  0  0  0  0  0  0  0  0  0
    6.8846   -1.1111   -0.5498 H   0  0  0  0  0  0  0  0  0  0  0  0
    4.2072    0.2147   -0.4919 H   0  0  0  0  0  0  0  0  0  0  0  0
    5.0466   -0.3463   -1.9644 H   0  0  0  0  0  0  0  0  0  0  0  0
    2.9978   -1.6584   -0.8547 H   0  0  0  0  0  0  0  0  0  0  0  0
    4.2239   -3.8308    5.5744 H   0  0  0  0  0  0  0  0  0  0  0  0
    5.3694   -3.5447    4.2462 H   0  0  0  0  0  0  0  0  0  0  0  0
    4.6314   -5.1439    4.4458 H   0  0  0  0  0  0  0  0  0  0  0  0
    3.7718   -1.4238    5.1835 H   0  0  0  0  0  0  0  0  0  0  0  0
  1  2  2  0
  1 24  1  0
  1 25  1  0
  2 20  1  0
  2  3  1  0
  3  4  1  0
  3 26  1  0
  3 27  1  0
  4  5  1  0
  4 28  1  0
  4 29  1  0
  5 21  1  0
  5  6  1  0
  5 30  1  6
  6 22  1  0
  6  7  1  0
  6 31  1  1
  7  8  1  0
  7 32  1  0
  7 33  1  0
  8 14  1  0
  8  9  2  0
  9 10  1  0
  9 22  1  0
 10 11  1  0
 10 34  1  0
 10 48  1  0
 11 12  1  0
 11 35  1  0
 11 36  1  0
 12 13  2  0
 12 14  1  0
 21 14  1  1
 14 15  1  1
 15 16  1  0
 16 17  1  0
 16 37  1  0
 16 38  1  0
 17 21  1  0
 17 18  1  0
 17 39  1  1
 18 19  1  0
 18 40  1  0
 18 41  1  0
 19 20  1  0
 19 42  1  0
 19 43  1  0
 20 21  1  0
 20 44  1  1
 22 23  1  0
 23 45  1  0
 23 46  1  0
 23 47  1  0
M  END
>  <i_m_ct_stereo_status>  (73) 
1

>  <s_m_source_file>  (73) 
/var/tmp/pbs.5076255.sched01/tmps52fw2z9/0bkrl5082.sdf

>  <i_m_source_file_index>  (73) 
30

>  <i_lp_mmshare_version>  (73) 
48012

>  <i_f3d_flags>  (73) 
1

>  <s_epik_input>  (73) 
TzFbQ0gyXVtDQEBIXTJbQ0gyXVtDSDJdW0NASF0zQyg9W0NIMl0pW0NIMl1bQ0gyXVtDQEhdKFtDQEBdMjNbQ0BdMTQ1KVtDQEBIXTZbQ0gyXVtDQEBIXTRDKE42W0NIM10pPVtDSF1bQ0gyXUM1PU8=

>  <s_epik_cmdline>  (73) 
J2VwaWtfcHl0aG9uJywgJy1waHQnLCAnMi4wJywgJy1waCcsICc3LjAnLCAnLXRuJywgJzgnLCAnLW1hJywgJzIwMCcsICctaW1hZScsICc8aW5maWxlLm1hZT4nLCAnLW9tYWUnLCAnPG91dGZpbGUubWFlPic=

>  <r_lp_tautomer_probability>  (73) 
0.99995

>  <r_epik_Ionization_Penalty>  (73) 
0.000360616

>  <r_epik_Ionization_Penalty_Charging>  (73) 
1.0438e-10

>  <r_epik_Ionization_Penalty_Neutral>  (73) 
0.000360616

>  <r_epik_State_Penalty>  (73) 
0.000749456

>  <r_epik_Charging_Adjusted_Penalty>  (73) 
0.000749456

>  <i_epik_Tot_Q>  (73) 
0

>  <i_epik_Tot_abs_Q>  (73) 
0

>  <s_epik_Chemistry_Notes>  (73) 
This compound has an imine and may undergo hydrolysis.

>  <s_lp_Force_Field>  (73) 
OPLS3e

>  <r_lp_Energy>  (73) 
152.765

>  <b_lp_Chiralities_Consistent>  (73) 
1

>  <s_lp_Variant>  (73) 
24:0-1

>  <s_i_glide_gridfile>  (73) 
pfpi4k_grid

>  <i_i_glide_lignum>  (73) 
30

>  <i_i_glide_rotatable_bonds>  (73) 
0

>  <r_i_docking_score>  (73) 
-2.36732

>  <r_i_glide_ligand_efficiency>  (73) 
-0.102927

>  <r_i_glide_ligand_efficiency_sa>  (73) 
-0.292711

>  <r_i_glide_ligand_efficiency_ln>  (73) 
-0.57244

>  <r_i_glide_gscore>  (73) 
-2.36732

>  <r_i_glide_lipo>  (73) 
-0.357035

>  <r_i_glide_hbond>  (73) 
0

>  <r_i_glide_metal>  (73) 
-0

>  <r_i_glide_rewards>  (73) 
-1.29437

>  <r_i_glide_evdw>  (73) 
-15.0782

>  <r_i_glide_ecoul>  (73) 
0.253264

>  <r_i_glide_erotb>  (73) 
0

>  <r_i_glide_esite>  (73) 
0

>  <r_i_glide_emodel>  (73) 
-14.0551

>  <r_i_glide_energy>  (73) 
-14.8249

>  <r_i_glide_einternal>  (73) 
0

>  <r_i_glide_intrahb_reward>  (73) 
-0

>  <i_i_glide_confnum>  (73) 
2

>  <i_i_glide_posenum>  (73) 
20

>  <r_i_glide_eff_state_penalty>  (73) 
0

>  <ligand_id>  (73) 
24

>  <original_smiles>  (73) 
C=C1CCC2C3CC4C(=CCC(=O)C45OCC4CCC1C425)N3C

>  <smiles>  (73) 
[H]C([H])=C1C([H])([H])C([H])([H])C2([H])C3([H])N(C([H])([H])[H])C4=C(C3([H])[H])C3(OC([H])([H])C5([H])C([H])([H])C([H])([H])C1([H])C352)C(=O)C([H])([H])C4([H])[H]

$$$$
25:0:0
     RDKit          3D

 70 75  0  0  1  0  0  0  0  0999 V2000
    5.4234   -3.0963   -0.2644 C   0  0  0  0  0  0  0  0  0  0  0  0
    5.3890   -3.6996    1.1465 C   0  0  2  0  0  0  0  0  0  0  0  0
    6.5222   -4.7085    1.3652 C   0  0  0  0  0  0  0  0  0  0  0  0
    6.3991   -5.3824    2.7421 C   0  0  0  0  0  0  0  0  0  0  0  0
    4.9904   -5.9807    2.9420 C   0  0  1  0  0  0  0  0  0  0  0  0
    4.0527   -4.9669    2.7180 O   0  0  0  0  0  0  0  0  0  0  0  0
    4.0472   -4.3960    1.4130 C   0  0  0  0  0  0  0  0  0  0  0  0
    4.8220   -7.0157    1.9699 O   0  0  0  0  0  0  0  0  0  0  0  0
    4.9777   -8.3097    2.4981 C   0  0  2  0  0  0  0  0  0  0  0  0
    5.2994   -9.6042    1.7409 C   0  0  0  0  0  0  0  0  0  0  0  0
    5.0360  -10.6935    2.8378 C   0  0  1  0  0  0  0  0  0  0  0  0
    6.2551  -11.5816    3.1108 C   0  0  0  0  0  0  0  0  0  0  0  0
    4.5583   -9.8738    4.0639 C   0  0  2  0  0  0  0  0  0  0  0  0
    3.8827  -10.4738    5.2960 C   0  0  0  0  0  0  0  0  0  0  0  0
    3.5807   -9.3073    6.2737 C   0  0  0  0  0  0  0  0  0  0  0  0
    2.8316   -8.0790    5.6521 C   0  0  1  0  0  0  0  0  0  0  0  0
    3.5901   -7.5123    4.4130 C   0  0  1  0  0  0  0  0  0  0  0  0
    4.7123   -6.4507    4.4534 C   0  0  1  0  0  0  0  0  0  0  0  0
    5.9586   -6.7822    5.3073 C   0  0  0  0  0  0  0  0  0  0  0  0
    3.8337   -8.6608    3.4465 C   0  0  1  0  0  0  0  0  0  0  0  0
    2.3885   -8.8826    2.8294 C   0  0  1  0  0  0  0  0  0  0  0  0
    2.3218   -9.8431    1.8059 O   0  0  0  0  0  0  0  0  0  0  0  0
    1.2751   -9.2112    3.8845 C   0  0  2  0  0  0  0  0  0  0  0  0
   -0.1436   -9.2499    3.2572 C   0  0  0  0  0  0  0  0  0  0  0  0
   -0.8321   -7.8939    3.2355 C   0  0  0  0  0  0  0  0  0  0  0  0
   -1.3489   -7.4246    2.2283 O   0  0  0  0  0  0  0  0  0  0  0  0
   -0.8677   -7.1516    4.5561 C   0  0  0  0  0  0  0  0  0  0  0  0
    0.5554   -7.0173    5.1062 C   0  0  0  0  0  0  0  0  0  0  0  0
    1.3375   -8.3746    5.2296 C   0  0  2  0  0  0  0  0  0  0  0  0
    0.6255   -9.1708    6.3568 C   0  0  0  0  0  0  0  0  0  0  0  0
    5.2950   -3.8692   -1.0221 H   0  0  0  0  0  0  0  0  0  0  0  0
    6.3702   -2.5951   -0.4612 H   0  0  0  0  0  0  0  0  0  0  0  0
    4.6256   -2.3678   -0.4031 H   0  0  0  0  0  0  0  0  0  0  0  0
    5.4957   -2.8951    1.8752 H   0  0  0  0  0  0  0  0  0  0  0  0
    6.5107   -5.4619    0.5758 H   0  0  0  0  0  0  0  0  0  0  0  0
    7.4838   -4.1941    1.2959 H   0  0  0  0  0  0  0  0  0  0  0  0
    7.1507   -6.1657    2.8439 H   0  0  0  0  0  0  0  0  0  0  0  0
    6.5647   -4.6562    3.5282 H   0  0  0  0  0  0  0  0  0  0  0  0
    3.2294   -3.6754    1.3617 H   0  0  0  0  0  0  0  0  0  0  0  0
    3.8377   -5.1583    0.6573 H   0  0  0  0  0  0  0  0  0  0  0  0
    5.9230   -8.1953    3.0239 H   0  0  0  0  0  0  0  0  0  0  0  0
    4.6557   -9.7442    0.8751 H   0  0  0  0  0  0  0  0  0  0  0  0
    6.3281   -9.6017    1.3783 H   0  0  0  0  0  0  0  0  0  0  0  0
    4.2334  -11.3476    2.5008 H   0  0  0  0  0  0  0  0  0  0  0  0
    7.1154  -10.9947    3.4359 H   0  0  0  0  0  0  0  0  0  0  0  0
    6.5371  -12.1254    2.2084 H   0  0  0  0  0  0  0  0  0  0  0  0
    6.0327  -12.3184    3.8832 H   0  0  0  0  0  0  0  0  0  0  0  0
    5.4858   -9.5306    4.5258 H   0  0  0  0  0  0  0  0  0  0  0  0
    3.0137  -11.0780    5.0562 H   0  0  0  0  0  0  0  0  0  0  0  0
    4.5726  -11.1686    5.7787 H   0  0  0  0  0  0  0  0  0  0  0  0
    3.0718   -9.6831    7.1583 H   0  0  0  0  0  0  0  0  0  0  0  0
    4.5346   -8.9527    6.6563 H   0  0  0  0  0  0  0  0  0  0  0  0
    2.8075   -7.3050    6.4200 H   0  0  0  0  0  0  0  0  0  0  0  0
    2.8828   -6.8607    3.9171 H   0  0  0  0  0  0  0  0  0  0  0  0
    4.2900   -5.5816    4.9647 H   0  0  0  0  0  0  0  0  0  0  0  0
    6.5545   -7.6201    4.9522 H   0  0  0  0  0  0  0  0  0  0  0  0
    5.6552   -7.0071    6.3288 H   0  0  0  0  0  0  0  0  0  0  0  0
    6.6255   -5.9246    5.3887 H   0  0  0  0  0  0  0  0  0  0  0  0
    2.0934   -7.9624    2.3218 H   0  0  0  0  0  0  0  0  0  0  0  0
    2.7120  -10.6538    2.1106 H   0  0  0  0  0  0  0  0  0  0  0  0
    1.4162  -10.2515    4.1509 H   0  0  0  0  0  0  0  0  0  0  0  0
   -0.1273   -9.6772    2.2551 H   0  0  0  0  0  0  0  0  0  0  0  0
   -0.7777   -9.9022    3.8534 H   0  0  0  0  0  0  0  0  0  0  0  0
   -1.3158   -6.1737    4.4045 H   0  0  0  0  0  0  0  0  0  0  0  0
   -1.5094   -7.6944    5.2446 H   0  0  0  0  0  0  0  0  0  0  0  0
    1.0407   -6.3027    4.4487 H   0  0  0  0  0  0  0  0  0  0  0  0
    0.5132   -6.5188    6.0755 H   0  0  0  0  0  0  0  0  0  0  0  0
   -0.4368   -9.3132    6.1596 H   0  0  0  0  0  0  0  0  0  0  0  0
    0.7141   -8.6630    7.3196 H   0  0  0  0  0  0  0  0  0  0  0  0
    1.0311  -10.1765    6.4754 H   0  0  0  0  0  0  0  0  0  0  0  0
  1  2  1  0
  1 31  1  0
  1 32  1  0
  1 33  1  0
  2  7  1  0
  2  3  1  0
  2 34  1  1
  3  4  1  0
  3 35  1  0
  3 36  1  0
  4  5  1  0
  4 37  1  0
  4 38  1  0
  5 18  1  0
  5  6  1  6
  5  8  1  0
  6  7  1  0
  7 39  1  0
  7 40  1  0
  8  9  1  0
 20  9  1  6
  9 10  1  0
  9 41  1  1
 10 11  1  0
 10 42  1  0
 10 43  1  0
 11 12  1  0
 11 13  1  0
 11 44  1  6
 12 45  1  0
 12 46  1  0
 12 47  1  0
 13 20  1  0
 13 14  1  0
 13 48  1  1
 14 15  1  0
 14 49  1  0
 14 50  1  0
 15 16  1  0
 15 51  1  0
 15 52  1  0
 16 29  1  0
 16 17  1  0
 16 53  1  1
 17 18  1  0
 17 20  1  0
 17 54  1  6
 18 19  1  0
 18 55  1  1
 19 56  1  0
 19 57  1  0
 19 58  1  0
 20 21  1  0
 21 22  1  0
 21 23  1  0
 21 59  1  6
 22 60  1  0
 23 29  1  0
 23 24  1  0
 23 61  1  1
 24 25  1  0
 24 62  1  0
 24 63  1  0
 25 26  2  0
 25 27  1  0
 27 28  1  0
 27 64  1  0
 27 65  1  0
 28 29  1  0
 28 66  1  0
 28 67  1  0
 29 30  1  1
 30 68  1  0
 30 69  1  0
 30 70  1  0
M  END
>  <i_m_ct_stereo_status>  (74) 
1

>  <s_m_source_file>  (74) 
/var/tmp/pbs.5076255.sched01/tmps52fw2z9/0bkrl5082.sdf

>  <i_m_source_file_index>  (74) 
31

>  <i_lp_mmshare_version>  (74) 
48012

>  <i_f3d_flags>  (74) 
0

>  <s_epik_input>  (74) 
TzFbQ0gyXVtDQEhdKFtDSDNdKVtDSDJdW0NIMl1bQ0BdMTJPW0NASF0zW0NAQF00NVtDQEhdKFtDQEBIXShbQ0gyXTMpW0NIM10pW0NIMl1bQ0gyXVtDQEBIXShbQ0BIXTRbQ0BIXTJbQ0gzXSlbQ0BdNihbQ0gzXSlbQ0BIXShbQ0BASF01W09IXSlbQ0gyXUMoPU8pW0NIMl1bQ0gyXTY=

>  <s_epik_cmdline>  (74) 
J2VwaWtfcHl0aG9uJywgJy1waHQnLCAnMi4wJywgJy1waCcsICc3LjAnLCAnLXRuJywgJzgnLCAnLW1hJywgJzIwMCcsICctaW1hZScsICc8aW5maWxlLm1hZT4nLCAnLW9tYWUnLCAnPG91dGZpbGUubWFlPic=

>  <r_lp_tautomer_probability>  (74) 
1

>  <r_epik_Ionization_Penalty>  (74) 
1.76558e-07

>  <r_epik_Ionization_Penalty_Charging>  (74) 
0

>  <r_epik_Ionization_Penalty_Neutral>  (74) 
1.76558e-07

>  <r_epik_State_Penalty>  (74) 
-0

>  <r_epik_Charging_Adjusted_Penalty>  (74) 
0

>  <i_epik_Tot_Q>  (74) 
0

>  <i_epik_Tot_abs_Q>  (74) 
0

>  <s_lp_Force_Field>  (74) 
OPLS3e

>  <r_lp_Energy>  (74) 
95.955

>  <b_lp_Chiralities_Consistent>  (74) 
1

>  <s_lp_Variant>  (74) 
25:0-1

>  <s_i_glide_gridfile>  (74) 
pfpi4k_grid

>  <i_i_glide_lignum>  (74) 
31

>  <i_i_glide_rotatable_bonds>  (74) 
1

>  <r_i_docking_score>  (74) 
-2.53619

>  <r_i_glide_ligand_efficiency>  (74) 
-0.0845396

>  <r_i_glide_ligand_efficiency_sa>  (74) 
-0.262684

>  <r_i_glide_ligand_efficiency_ln>  (74) 
-0.57625

>  <r_i_glide_gscore>  (74) 
-2.53619

>  <r_i_glide_lipo>  (74) 
-0.219316

>  <r_i_glide_hbond>  (74) 
-0.0769743

>  <r_i_glide_metal>  (74) 
-0

>  <r_i_glide_rewards>  (74) 
-0.568681

>  <r_i_glide_evdw>  (74) 
-25.7326

>  <r_i_glide_ecoul>  (74) 
-2.14736

>  <r_i_glide_erotb>  (74) 
0

>  <r_i_glide_esite>  (74) 
-0.0624852

>  <r_i_glide_emodel>  (74) 
-33.0204

>  <r_i_glide_energy>  (74) 
-27.8799

>  <r_i_glide_einternal>  (74) 
0.101731

>  <r_i_glide_intrahb_reward>  (74) 
-0

>  <i_i_glide_confnum>  (74) 
2

>  <i_i_glide_posenum>  (74) 
28

>  <r_i_glide_eff_state_penalty>  (74) 
0

>  <ligand_id>  (74) 
25

>  <original_smiles>  (74) 
CC1CCC2(OC1)OC1CC(C)C3CCC4C(C2C)C13C(O)C1CC(=O)CCC14C

>  <smiles>  (74) 
[H]OC1([H])C2([H])C([H])([H])C(=O)C([H])([H])C([H])([H])C2(C([H])([H])[H])C2([H])C([H])([H])C([H])([H])C3([H])C([H])(C([H])([H])[H])C([H])([H])C4([H])OC5(OC([H])([H])C([H])(C([H])([H])[H])C([H])([H])C5([H])[H])C([H])(C([H])([H])[H])C2([H])C413

$$$$
25:0:1
     RDKit          3D

 70 75  0  0  1  0  0  0  0  0999 V2000
    4.1253   -2.6947   -0.9022 C   0  0  0  0  0  0  0  0  0  0  0  0
    4.2909   -3.2317    0.5255 C   0  0  2  0  0  0  0  0  0  0  0  0
    5.6227   -3.9662    0.7094 C   0  0  0  0  0  0  0  0  0  0  0  0
    5.7132   -4.5718    2.1201 C   0  0  0  0  0  0  0  0  0  0  0  0
    4.4752   -5.4586    2.4168 C   0  0  1  0  0  0  0  0  0  0  0  0
    3.3302   -4.6835    2.2111 O   0  0  0  0  0  0  0  0  0  0  0  0
    3.1468   -4.1822    0.8909 C   0  0  0  0  0  0  0  0  0  0  0  0
    4.4891   -6.5492    1.4834 O   0  0  0  0  0  0  0  0  0  0  0  0
    4.9232   -7.7682    2.0392 C   0  0  2  0  0  0  0  0  0  0  0  0
    5.4591   -9.0058    1.3050 C   0  0  0  0  0  0  0  0  0  0  0  0
    5.4849  -10.0822    2.4434 C   0  0  1  0  0  0  0  0  0  0  0  0
    6.8743  -10.6856    2.6773 C   0  0  0  0  0  0  0  0  0  0  0  0
    4.9144   -9.3223    3.6699 C   0  0  2  0  0  0  0  0  0  0  0  0
    4.4453   -9.9955    4.9571 C   0  0  0  0  0  0  0  0  0  0  0  0
    3.9551   -8.8766    5.9157 C   0  0  0  0  0  0  0  0  0  0  0  0
    2.9352   -7.8558    5.3008 C   0  0  1  0  0  0  0  0  0  0  0  0
    3.4971   -7.1954    4.0045 C   0  0  1  0  0  0  0  0  0  0  0  0
    4.3718   -5.9241    3.9529 C   0  0  1  0  0  0  0  0  0  0  0  0
    5.7049   -5.9559    4.7386 C   0  0  0  0  0  0  0  0  0  0  0  0
    3.9242   -8.3079    3.0613 C   0  0  1  0  0  0  0  0  0  0  0  0
    2.5281   -8.8521    2.5385 C   0  0  1  0  0  0  0  0  0  0  0  0
    2.6159   -9.8402    1.5405 O   0  0  0  0  0  0  0  0  0  0  0  0
    1.5597   -9.3608    3.6633 C   0  0  2  0  0  0  0  0  0  0  0  0
    0.1507   -9.7261    3.1270 C   0  0  0  0  0  0  0  0  0  0  0  0
   -0.8145   -8.5471    3.0969 C   0  0  0  0  0  0  0  0  0  0  0  0
   -1.4646   -8.2504    2.1013 O   0  0  0  0  0  0  0  0  0  0  0  0
   -0.9356   -7.7653    4.3949 C   0  0  0  0  0  0  0  0  0  0  0  0
    0.4576   -7.3168    4.8581 C   0  0  0  0  0  0  0  0  0  0  0  0
    1.5149   -8.4729    4.9772 C   0  0  2  0  0  0  0  0  0  0  0  0
    1.0444   -9.3523    6.1668 C   0  0  0  0  0  0  0  0  0  0  0  0
    4.1223   -3.5090   -1.6258 H   0  0  0  0  0  0  0  0  0  0  0  0
    4.9315   -2.0148   -1.1705 H   0  0  0  0  0  0  0  0  0  0  0  0
    3.1863   -2.1560   -1.0152 H   0  0  0  0  0  0  0  0  0  0  0  0
    4.2622   -2.3930    1.2215 H   0  0  0  0  0  0  0  0  0  0  0  0
    5.7282   -4.7518   -0.0440 H   0  0  0  0  0  0  0  0  0  0  0  0
    6.4518   -3.2717    0.5629 H   0  0  0  0  0  0  0  0  0  0  0  0
    6.6151   -5.1806    2.2026 H   0  0  0  0  0  0  0  0  0  0  0  0
    5.7723   -3.7739    2.8600 H   0  0  0  0  0  0  0  0  0  0  0  0
    2.2040   -3.6392    0.8657 H   0  0  0  0  0  0  0  0  0  0  0  0
    3.0592   -4.9999    0.1716 H   0  0  0  0  0  0  0  0  0  0  0  0
    5.8505   -7.4430    2.5056 H   0  0  0  0  0  0  0  0  0  0  0  0
    4.8091   -9.3101    0.4865 H   0  0  0  0  0  0  0  0  0  0  0  0
    6.4467   -8.8124    0.8841 H   0  0  0  0  0  0  0  0  0  0  0  0
    4.8219  -10.9025    2.1747 H   0  0  0  0  0  0  0  0  0  0  0  0
    7.6042   -9.9165    2.9357 H   0  0  0  0  0  0  0  0  0  0  0  0
    7.2254  -11.1945    1.7789 H   0  0  0  0  0  0  0  0  0  0  0  0
    6.8518  -11.4185    3.4847 H   0  0  0  0  0  0  0  0  0  0  0  0
    5.7747   -8.7784    4.0621 H   0  0  0  0  0  0  0  0  0  0  0  0
    3.7103  -10.7747    4.7869 H   0  0  0  0  0  0  0  0  0  0  0  0
    5.2903  -10.5093    5.4188 H   0  0  0  0  0  0  0  0  0  0  0  0
    3.5831   -9.3105    6.8420 H   0  0  0  0  0  0  0  0  0  0  0  0
    4.8340   -8.3156    6.2300 H   0  0  0  0  0  0  0  0  0  0  0  0
    2.7899   -7.0718    6.0475 H   0  0  0  0  0  0  0  0  0  0  0  0
    2.6435   -6.7285    3.5330 H   0  0  0  0  0  0  0  0  0  0  0  0
    3.8030   -5.1405    4.4603 H   0  0  0  0  0  0  0  0  0  0  0  0
    6.4401   -6.6676    4.3766 H   0  0  0  0  0  0  0  0  0  0  0  0
    5.5039   -6.1965    5.7834 H   0  0  0  0  0  0  0  0  0  0  0  0
    6.1780   -4.9762    4.7537 H   0  0  0  0  0  0  0  0  0  0  0  0
    2.0226   -8.0335    2.0245 H   0  0  0  0  0  0  0  0  0  0  0  0
    3.1434  -10.5667    1.8450 H   0  0  0  0  0  0  0  0  0  0  0  0
    1.9320  -10.3368    3.9525 H   0  0  0  0  0  0  0  0  0  0  0  0
    0.2075  -10.1754    2.1358 H   0  0  0  0  0  0  0  0  0  0  0  0
   -0.2928  -10.4803    3.7746 H   0  0  0  0  0  0  0  0  0  0  0  0
   -1.5848   -6.9032    4.2397 H   0  0  0  0  0  0  0  0  0  0  0  0
   -1.4184   -8.3965    5.1408 H   0  0  0  0  0  0  0  0  0  0  0  0
    0.7514   -6.5452    4.1531 H   0  0  0  0  0  0  0  0  0  0  0  0
    0.3643   -6.7957    5.8126 H   0  0  0  0  0  0  0  0  0  0  0  0
    0.0256   -9.7203    6.0376 H   0  0  0  0  0  0  0  0  0  0  0  0
    1.0727   -8.7978    7.1085 H   0  0  0  0  0  0  0  0  0  0  0  0
    1.6585  -10.2468    6.2917 H   0  0  0  0  0  0  0  0  0  0  0  0
  1  2  1  0
  1 31  1  0
  1 32  1  0
  1 33  1  0
  2  7  1  0
  2  3  1  0
  2 34  1  1
  3  4  1  0
  3 35  1  0
  3 36  1  0
  4  5  1  0
  4 37  1  0
  4 38  1  0
  5 18  1  0
  5  6  1  6
  5  8  1  0
  6  7  1  0
  7 39  1  0
  7 40  1  0
  8  9  1  0
 20  9  1  6
  9 10  1  0
  9 41  1  1
 10 11  1  0
 10 42  1  0
 10 43  1  0
 11 12  1  0
 11 13  1  0
 11 44  1  6
 12 45  1  0
 12 46  1  0
 12 47  1  0
 13 20  1  0
 13 14  1  0
 13 48  1  1
 14 15  1  0
 14 49  1  0
 14 50  1  0
 15 16  1  0
 15 51  1  0
 15 52  1  0
 16 29  1  0
 16 17  1  0
 16 53  1  1
 17 18  1  0
 17 20  1  0
 17 54  1  6
 18 19  1  0
 18 55  1  1
 19 56  1  0
 19 57  1  0
 19 58  1  0
 20 21  1  0
 21 22  1  0
 21 23  1  0
 21 59  1  6
 22 60  1  0
 23 29  1  0
 23 24  1  0
 23 61  1  1
 24 25  1  0
 24 62  1  0
 24 63  1  0
 25 26  2  0
 25 27  1  0
 27 28  1  0
 27 64  1  0
 27 65  1  0
 28 29  1  0
 28 66  1  0
 28 67  1  0
 29 30  1  1
 30 68  1  0
 30 69  1  0
 30 70  1  0
M  END
>  <i_m_ct_stereo_status>  (75) 
1

>  <s_m_source_file>  (75) 
/var/tmp/pbs.5076255.sched01/tmps52fw2z9/0bkrl5082.sdf

>  <i_m_source_file_index>  (75) 
31

>  <i_lp_mmshare_version>  (75) 
48012

>  <i_f3d_flags>  (75) 
0

>  <s_epik_input>  (75) 
TzFbQ0gyXVtDQEhdKFtDSDNdKVtDSDJdW0NIMl1bQ0BdMTJPW0NASF0zW0NAQF00NVtDQEhdKFtDQEBIXShbQ0gyXTMpW0NIM10pW0NIMl1bQ0gyXVtDQEBIXShbQ0BIXTRbQ0BIXTJbQ0gzXSlbQ0BdNihbQ0gzXSlbQ0BIXShbQ0BASF01W09IXSlbQ0gyXUMoPU8pW0NIMl1bQ0gyXTY=

>  <s_epik_cmdline>  (75) 
J2VwaWtfcHl0aG9uJywgJy1waHQnLCAnMi4wJywgJy1waCcsICc3LjAnLCAnLXRuJywgJzgnLCAnLW1hJywgJzIwMCcsICctaW1hZScsICc8aW5maWxlLm1hZT4nLCAnLW9tYWUnLCAnPG91dGZpbGUubWFlPic=

>  <r_lp_tautomer_probability>  (75) 
1

>  <r_epik_Ionization_Penalty>  (75) 
1.76558e-07

>  <r_epik_Ionization_Penalty_Charging>  (75) 
0

>  <r_epik_Ionization_Penalty_Neutral>  (75) 
1.76558e-07

>  <r_epik_State_Penalty>  (75) 
-0

>  <r_epik_Charging_Adjusted_Penalty>  (75) 
0

>  <i_epik_Tot_Q>  (75) 
0

>  <i_epik_Tot_abs_Q>  (75) 
0

>  <s_lp_Force_Field>  (75) 
OPLS3e

>  <r_lp_Energy>  (75) 
95.955

>  <b_lp_Chiralities_Consistent>  (75) 
1

>  <s_lp_Variant>  (75) 
25:0-1

>  <s_i_glide_gridfile>  (75) 
pfpi4k_grid

>  <i_i_glide_lignum>  (75) 
31

>  <i_i_glide_rotatable_bonds>  (75) 
1

>  <r_i_docking_score>  (75) 
-2.53127

>  <r_i_glide_ligand_efficiency>  (75) 
-0.0843755

>  <r_i_glide_ligand_efficiency_sa>  (75) 
-0.262174

>  <r_i_glide_ligand_efficiency_ln>  (75) 
-0.575131

>  <r_i_glide_gscore>  (75) 
-2.53127

>  <r_i_glide_lipo>  (75) 
-0.139164

>  <r_i_glide_hbond>  (75) 
-0.0102655

>  <r_i_glide_metal>  (75) 
-0

>  <r_i_glide_rewards>  (75) 
-0.568681

>  <r_i_glide_evdw>  (75) 
-30.2309

>  <r_i_glide_ecoul>  (75) 
-1.67683

>  <r_i_glide_erotb>  (75) 
0

>  <r_i_glide_esite>  (75) 
-0.0500852

>  <r_i_glide_emodel>  (75) 
-37.102

>  <r_i_glide_energy>  (75) 
-31.9077

>  <r_i_glide_einternal>  (75) 
0.0648169

>  <r_i_glide_intrahb_reward>  (75) 
-0

>  <i_i_glide_confnum>  (75) 
1

>  <i_i_glide_posenum>  (75) 
38

>  <r_i_glide_eff_state_penalty>  (75) 
0

>  <ligand_id>  (75) 
25

>  <original_smiles>  (75) 
CC1CCC2(OC1)OC1CC(C)C3CCC4C(C2C)C13C(O)C1CC(=O)CCC14C

>  <smiles>  (75) 
[H]OC1([H])C2([H])C([H])([H])C(=O)C([H])([H])C([H])([H])C2(C([H])([H])[H])C2([H])C([H])([H])C([H])([H])C3([H])C([H])(C([H])([H])[H])C([H])([H])C4([H])OC5(OC([H])([H])C([H])(C([H])([H])[H])C([H])([H])C5([H])[H])C([H])(C([H])([H])[H])C2([H])C413

$$$$
25:0:2
     RDKit          3D

 70 75  0  0  1  0  0  0  0  0999 V2000
   -1.3399    3.1850    3.2704 C   0  0  0  0  0  0  0  0  0  0  0  0
   -1.0397    1.6979    3.4856 C   0  0  2  0  0  0  0  0  0  0  0  0
   -0.5723    1.4229    4.9155 C   0  0  0  0  0  0  0  0  0  0  0  0
   -0.2083   -0.0587    5.0901 C   0  0  0  0  0  0  0  0  0  0  0  0
    0.8178   -0.4958    4.0105 C   0  0  1  0  0  0  0  0  0  0  0  0
    0.2792   -0.1931    2.7603 O   0  0  0  0  0  0  0  0  0  0  0  0
    0.0166    1.1825    2.4977 C   0  0  0  0  0  0  0  0  0  0  0  0
    2.0138    0.2729    4.2164 O   0  0  0  0  0  0  0  0  0  0  0  0
    3.0574   -0.4464    4.8290 C   0  0  2  0  0  0  0  0  0  0  0  0
    4.2794    0.1129    5.5704 C   0  0  0  0  0  0  0  0  0  0  0  0
    5.1619   -1.1693    5.7654 C   0  0  1  0  0  0  0  0  0  0  0  0
    5.4881   -1.4702    7.2343 C   0  0  0  0  0  0  0  0  0  0  0  0
    4.3406   -2.2840    5.0599 C   0  0  2  0  0  0  0  0  0  0  0  0
    4.8820   -3.6659    4.7001 C   0  0  0  0  0  0  0  0  0  0  0  0
    3.7278   -4.4581    4.0251 C   0  0  0  0  0  0  0  0  0  0  0  0
    2.9879   -3.7163    2.8570 C   0  0  1  0  0  0  0  0  0  0  0  0
    2.4434   -2.3280    3.3124 C   0  0  1  0  0  0  0  0  0  0  0  0
    1.0658   -2.0824    3.9712 C   0  0  1  0  0  0  0  0  0  0  0  0
    0.7660   -2.8468    5.2817 C   0  0  0  0  0  0  0  0  0  0  0  0
    3.5995   -1.5506    3.9211 C   0  0  1  0  0  0  0  0  0  0  0  0
    4.4351   -1.1313    2.6351 C   0  0  1  0  0  0  0  0  0  0  0  0
    5.5575   -0.3161    2.8911 O   0  0  0  0  0  0  0  0  0  0  0  0
    4.9168   -2.3370    1.7563 C   0  0  2  0  0  0  0  0  0  0  0  0
    5.5816   -1.8846    0.4280 C   0  0  0  0  0  0  0  0  0  0  0  0
    4.6057   -1.6957   -0.7249 C   0  0  0  0  0  0  0  0  0  0  0  0
    4.6422   -0.6955   -1.4475 O   0  0  0  0  0  0  0  0  0  0  0  0
    3.6566   -2.8575   -0.9742 C   0  0  0  0  0  0  0  0  0  0  0  0
    2.9324   -3.2385    0.3257 C   0  0  0  0  0  0  0  0  0  0  0  0
    3.8695   -3.5076    1.5585 C   0  0  2  0  0  0  0  0  0  0  0  0
    4.6273   -4.8232    1.2296 C   0  0  0  0  0  0  0  0  0  0  0  0
   -0.4413    3.7868    3.3931 H   0  0  0  0  0  0  0  0  0  0  0  0
   -2.0961    3.5580    3.9585 H   0  0  0  0  0  0  0  0  0  0  0  0
   -1.7005    3.3595    2.2583 H   0  0  0  0  0  0  0  0  0  0  0  0
   -1.9547    1.1333    3.3134 H   0  0  0  0  0  0  0  0  0  0  0  0
    0.2884    2.0543    5.1543 H   0  0  0  0  0  0  0  0  0  0  0  0
   -1.3655    1.6881    5.6189 H   0  0  0  0  0  0  0  0  0  0  0  0
    0.2273   -0.2170    6.0781 H   0  0  0  0  0  0  0  0  0  0  0  0
   -1.1035   -0.6739    5.0078 H   0  0  0  0  0  0  0  0  0  0  0  0
   -0.3457    1.2713    1.4726 H   0  0  0  0  0  0  0  0  0  0  0  0
    0.9354    1.7719    2.5504 H   0  0  0  0  0  0  0  0  0  0  0  0
    2.5248   -0.8535    5.6858 H   0  0  0  0  0  0  0  0  0  0  0  0
    4.7983    0.8740    4.9891 H   0  0  0  0  0  0  0  0  0  0  0  0
    3.9856    0.5720    6.5153 H   0  0  0  0  0  0  0  0  0  0  0  0
    6.1100   -1.0230    5.2552 H   0  0  0  0  0  0  0  0  0  0  0  0
    4.5810   -1.6059    7.8267 H   0  0  0  0  0  0  0  0  0  0  0  0
    6.0594   -0.6527    7.6758 H   0  0  0  0  0  0  0  0  0  0  0  0
    6.0883   -2.3777    7.3216 H   0  0  0  0  0  0  0  0  0  0  0  0
    3.6111   -2.5856    5.8146 H   0  0  0  0  0  0  0  0  0  0  0  0
    5.7862   -3.6243    4.1030 H   0  0  0  0  0  0  0  0  0  0  0  0
    5.1767   -4.1865    5.6132 H   0  0  0  0  0  0  0  0  0  0  0  0
    4.0742   -5.4437    3.7188 H   0  0  0  0  0  0  0  0  0  0  0  0
    2.9907   -4.6755    4.7971 H   0  0  0  0  0  0  0  0  0  0  0  0
    2.1399   -4.3432    2.5775 H   0  0  0  0  0  0  0  0  0  0  0  0
    2.1953   -1.8054    2.3980 H   0  0  0  0  0  0  0  0  0  0  0  0
    0.3215   -2.4808    3.2782 H   0  0  0  0  0  0  0  0  0  0  0  0
    1.3933   -2.5788    6.1273 H   0  0  0  0  0  0  0  0  0  0  0  0
    0.8822   -3.9178    5.1142 H   0  0  0  0  0  0  0  0  0  0  0  0
   -0.2687   -2.7127    5.5883 H   0  0  0  0  0  0  0  0  0  0  0  0
    3.7978   -0.4991    2.0146 H   0  0  0  0  0  0  0  0  0  0  0  0
    6.1714   -0.8078    3.4098 H   0  0  0  0  0  0  0  0  0  0  0  0
    5.7639   -2.7603    2.2818 H   0  0  0  0  0  0  0  0  0  0  0  0
    6.1525   -0.9719    0.5704 H   0  0  0  0  0  0  0  0  0  0  0  0
    6.2910   -2.6480    0.1084 H   0  0  0  0  0  0  0  0  0  0  0  0
    2.9297   -2.5863   -1.7401 H   0  0  0  0  0  0  0  0  0  0  0  0
    4.2217   -3.7053   -1.3634 H   0  0  0  0  0  0  0  0  0  0  0  0
    2.2332   -2.4255    0.4967 H   0  0  0  0  0  0  0  0  0  0  0  0
    2.3024   -4.1093    0.1421 H   0  0  0  0  0  0  0  0  0  0  0  0
    5.1628   -4.7634    0.2809 H   0  0  0  0  0  0  0  0  0  0  0  0
    3.9387   -5.6704    1.1584 H   0  0  0  0  0  0  0  0  0  0  0  0
    5.3822   -5.0679    1.9801 H   0  0  0  0  0  0  0  0  0  0  0  0
  1  2  1  0
  1 31  1  0
  1 32  1  0
  1 33  1  0
  2  7  1  0
  2  3  1  0
  2 34  1  6
  3  4  1  0
  3 35  1  0
  3 36  1  0
  4  5  1  0
  4 37  1  0
  4 38  1  0
  5 18  1  0
  5  6  1  6
  5  8  1  0
  6  7  1  0
  7 39  1  0
  7 40  1  0
  8  9  1  0
 20  9  1  1
  9 10  1  0
  9 41  1  1
 10 11  1  0
 10 42  1  0
 10 43  1  0
 11 12  1  0
 11 13  1  0
 11 44  1  6
 12 45  1  0
 12 46  1  0
 12 47  1  0
 13 20  1  0
 13 14  1  0
 13 48  1  1
 14 15  1  0
 14 49  1  0
 14 50  1  0
 15 16  1  0
 15 51  1  0
 15 52  1  0
 16 29  1  0
 16 17  1  0
 16 53  1  6
 17 18  1  0
 17 20  1  0
 17 54  1  6
 18 19  1  0
 18 55  1  6
 19 56  1  0
 19 57  1  0
 19 58  1  0
 20 21  1  0
 21 22  1  0
 21 23  1  0
 21 59  1  6
 22 60  1  0
 23 29  1  0
 23 24  1  0
 23 61  1  1
 24 25  1  0
 24 62  1  0
 24 63  1  0
 25 26  2  0
 25 27  1  0
 27 28  1  0
 27 64  1  0
 27 65  1  0
 28 29  1  0
 28 66  1  0
 28 67  1  0
 29 30  1  6
 30 68  1  0
 30 69  1  0
 30 70  1  0
M  END
>  <i_m_ct_stereo_status>  (76) 
1

>  <s_m_source_file>  (76) 
/var/tmp/pbs.5076255.sched01/tmps52fw2z9/0bkrl5082.sdf

>  <i_m_source_file_index>  (76) 
31

>  <i_lp_mmshare_version>  (76) 
48012

>  <i_f3d_flags>  (76) 
0

>  <s_epik_input>  (76) 
TzFbQ0gyXVtDQEhdKFtDSDNdKVtDSDJdW0NIMl1bQ0BdMTJPW0NASF0zW0NAQF00NVtDQEhdKFtDQEBIXShbQ0gyXTMpW0NIM10pW0NIMl1bQ0gyXVtDQEBIXShbQ0BIXTRbQ0BIXTJbQ0gzXSlbQ0BdNihbQ0gzXSlbQ0BIXShbQ0BASF01W09IXSlbQ0gyXUMoPU8pW0NIMl1bQ0gyXTY=

>  <s_epik_cmdline>  (76) 
J2VwaWtfcHl0aG9uJywgJy1waHQnLCAnMi4wJywgJy1waCcsICc3LjAnLCAnLXRuJywgJzgnLCAnLW1hJywgJzIwMCcsICctaW1hZScsICc8aW5maWxlLm1hZT4nLCAnLW9tYWUnLCAnPG91dGZpbGUubWFlPic=

>  <r_lp_tautomer_probability>  (76) 
1

>  <r_epik_Ionization_Penalty>  (76) 
1.76558e-07

>  <r_epik_Ionization_Penalty_Charging>  (76) 
0

>  <r_epik_Ionization_Penalty_Neutral>  (76) 
1.76558e-07

>  <r_epik_State_Penalty>  (76) 
-0

>  <r_epik_Charging_Adjusted_Penalty>  (76) 
0

>  <i_epik_Tot_Q>  (76) 
0

>  <i_epik_Tot_abs_Q>  (76) 
0

>  <s_lp_Force_Field>  (76) 
OPLS3e

>  <r_lp_Energy>  (76) 
95.955

>  <b_lp_Chiralities_Consistent>  (76) 
1

>  <s_lp_Variant>  (76) 
25:0-1

>  <s_i_glide_gridfile>  (76) 
pfpi4k_grid

>  <i_i_glide_lignum>  (76) 
31

>  <i_i_glide_rotatable_bonds>  (76) 
1

>  <r_i_docking_score>  (76) 
-2.28941

>  <r_i_glide_ligand_efficiency>  (76) 
-0.0763138

>  <r_i_glide_ligand_efficiency_sa>  (76) 
-0.237125

>  <r_i_glide_ligand_efficiency_ln>  (76) 
-0.52018

>  <r_i_glide_gscore>  (76) 
-2.28941

>  <r_i_glide_lipo>  (76) 
-0.264204

>  <r_i_glide_hbond>  (76) 
-0.04945

>  <r_i_glide_metal>  (76) 
-0

>  <r_i_glide_rewards>  (76) 
-0.568681

>  <r_i_glide_evdw>  (76) 
-27.9308

>  <r_i_glide_ecoul>  (76) 
0.194519

>  <r_i_glide_erotb>  (76) 
0

>  <r_i_glide_esite>  (76) 
-0.0397201

>  <r_i_glide_emodel>  (76) 
-32.4738

>  <r_i_glide_energy>  (76) 
-27.7362

>  <r_i_glide_einternal>  (76) 
0.00586002

>  <r_i_glide_intrahb_reward>  (76) 
-0

>  <i_i_glide_confnum>  (76) 
2

>  <i_i_glide_posenum>  (76) 
10

>  <r_i_glide_eff_state_penalty>  (76) 
0

>  <ligand_id>  (76) 
25

>  <original_smiles>  (76) 
CC1CCC2(OC1)OC1CC(C)C3CCC4C(C2C)C13C(O)C1CC(=O)CCC14C

>  <smiles>  (76) 
[H]OC1([H])C2([H])C([H])([H])C(=O)C([H])([H])C([H])([H])C2(C([H])([H])[H])C2([H])C([H])([H])C([H])([H])C3([H])C([H])(C([H])([H])[H])C([H])([H])C4([H])OC5(OC([H])([H])C([H])(C([H])([H])[H])C([H])([H])C5([H])[H])C([H])(C([H])([H])[H])C2([H])C413

$$$$
26:0:0
     RDKit          3D

 30 32  0  0  1  0  0  0  0  0999 V2000
   -6.8339   -4.5077   -3.9560 C   0  0  0  0  0  0  0  0  0  0  0  0
   -7.0124   -5.5080   -5.0799 C   0  0  0  0  0  0  0  0  0  0  0  0
   -6.3995   -6.7733   -5.0221 C   0  0  0  0  0  0  0  0  0  0  0  0
   -6.5782   -7.7021   -6.0669 C   0  0  0  0  0  0  0  0  0  0  0  0
   -7.3794   -7.3729   -7.1836 C   0  0  0  0  0  0  0  0  0  0  0  0
   -7.9929   -6.0904   -7.2466 C   0  0  0  0  0  0  0  0  0  0  0  0
   -7.8052   -5.1710   -6.1931 C   0  0  0  0  0  0  0  0  0  0  0  0
   -8.8514   -5.6522   -8.4343 C   0  0  0  0  0  0  0  0  0  0  0  0
   -8.9400   -6.7010   -9.5416 C   0  0  0  0  0  0  0  0  0  0  0  0
   -9.1301   -6.3675  -10.7103 O   0  0  0  0  0  0  0  0  0  0  0  0
   -8.7922   -8.1378   -9.0389 C   0  0  1  0  0  0  0  0  0  0  0  0
   -8.6547   -9.2100  -10.1250 C   0  0  0  0  0  0  0  0  0  0  0  0
   -7.9310  -10.3383   -9.3779 C   0  0  0  0  0  0  0  0  0  0  0  0
   -7.0436   -9.6246   -8.3405 C   0  0  0  0  0  0  0  0  0  0  0  0
   -7.5871   -8.2781   -8.2445 N   0  0  0  0  0  0  0  0  0  0  0  0
   -6.2033   -4.9059   -3.1669 H   0  0  0  0  0  0  0  0  0  0  0  0
   -7.7961   -4.2581   -3.5168 H   0  0  0  0  0  0  0  0  0  0  0  0
   -6.3782   -3.5897   -4.3233 H   0  0  0  0  0  0  0  0  0  0  0  0
   -5.8038   -7.0469   -4.1647 H   0  0  0  0  0  0  0  0  0  0  0  0
   -6.1028   -8.6695   -5.9841 H   0  0  0  0  0  0  0  0  0  0  0  0
   -8.2730   -4.1996   -6.2328 H   0  0  0  0  0  0  0  0  0  0  0  0
   -9.8611   -5.4335   -8.0872 H   0  0  0  0  0  0  0  0  0  0  0  0
   -8.4372   -4.7317   -8.8483 H   0  0  0  0  0  0  0  0  0  0  0  0
   -9.6358   -8.3856   -8.3915 H   0  0  0  0  0  0  0  0  0  0  0  0
   -9.6209   -9.5256  -10.5242 H   0  0  0  0  0  0  0  0  0  0  0  0
   -8.0426   -8.8553  -10.9529 H   0  0  0  0  0  0  0  0  0  0  0  0
   -8.6700  -10.9468   -8.8554 H   0  0  0  0  0  0  0  0  0  0  0  0
   -7.3797  -11.0006  -10.0435 H   0  0  0  0  0  0  0  0  0  0  0  0
   -7.0448  -10.1562   -7.3876 H   0  0  0  0  0  0  0  0  0  0  0  0
   -6.0144   -9.5664   -8.6946 H   0  0  0  0  0  0  0  0  0  0  0  0
  1  2  1  0
  1 16  1  0
  1 17  1  0
  1 18  1  0
  2  7  2  0
  2  3  1  0
  3  4  2  0
  3 19  1  0
  4  5  1  0
  4 20  1  0
  5 15  1  0
  5  6  2  0
  6  7  1  0
  6  8  1  0
  7 21  1  0
  8  9  1  0
  8 22  1  0
  8 23  1  0
  9 10  2  0
  9 11  1  0
 11 15  1  0
 11 12  1  0
 11 24  1  1
 12 13  1  0
 12 25  1  0
 12 26  1  0
 13 14  1  0
 13 27  1  0
 13 28  1  0
 14 15  1  0
 14 29  1  0
 14 30  1  0
M  END
>  <i_m_ct_stereo_status>  (77) 
1

>  <s_m_source_file>  (77) 
/var/tmp/pbs.5076255.sched01/tmps52fw2z9/0bkrl5082.sdf

>  <i_m_source_file_index>  (77) 
32

>  <i_lp_mmshare_version>  (77) 
48012

>  <i_f3d_flags>  (77) 
0

>  <s_epik_input>  (77) 
W2NIXTFbY0hdYyhbQ0gzXSlbY0hdYyhjMTIpW0NIMl1DKD1PKVtDQEBIXTNOMltDSDJdW0NIMl1bQ0gyXTM=

>  <s_epik_cmdline>  (77) 
J2VwaWtfcHl0aG9uJywgJy1waHQnLCAnMi4wJywgJy1waCcsICc3LjAnLCAnLXRuJywgJzgnLCAnLW1hJywgJzIwMCcsICctaW1hZScsICc8aW5maWxlLm1hZT4nLCAnLW9tYWUnLCAnPG91dGZpbGUubWFlPic=

>  <r_lp_tautomer_probability>  (77) 
1

>  <r_epik_Ionization_Penalty>  (77) 
1.83962e-06

>  <r_epik_Ionization_Penalty_Charging>  (77) 
0

>  <r_epik_Ionization_Penalty_Neutral>  (77) 
1.83962e-06

>  <r_epik_State_Penalty>  (77) 
-0

>  <r_epik_Charging_Adjusted_Penalty>  (77) 
0

>  <i_epik_Tot_Q>  (77) 
0

>  <i_epik_Tot_abs_Q>  (77) 
0

>  <s_lp_Force_Field>  (77) 
OPLS3e

>  <r_lp_Energy>  (77) 
28.8844

>  <b_lp_Chiralities_Consistent>  (77) 
1

>  <s_lp_Variant>  (77) 
26:0-1

>  <s_i_glide_gridfile>  (77) 
pfpi4k_grid

>  <i_i_glide_lignum>  (77) 
32

>  <i_i_glide_rotatable_bonds>  (77) 
0

>  <r_i_docking_score>  (77) 
-6.29705

>  <r_i_glide_ligand_efficiency>  (77) 
-0.419803

>  <r_i_glide_ligand_efficiency_sa>  (77) 
-1.03532

>  <r_i_glide_ligand_efficiency_ln>  (77) 
-1.69821

>  <r_i_glide_gscore>  (77) 
-6.29705

>  <r_i_glide_lipo>  (77) 
-2.39765

>  <r_i_glide_hbond>  (77) 
0

>  <r_i_glide_metal>  (77) 
-0

>  <r_i_glide_rewards>  (77) 
-2.75971

>  <r_i_glide_evdw>  (77) 
-21.6143

>  <r_i_glide_ecoul>  (77) 
-0.393145

>  <r_i_glide_erotb>  (77) 
0

>  <r_i_glide_esite>  (77) 
0

>  <r_i_glide_emodel>  (77) 
-30.3634

>  <r_i_glide_energy>  (77) 
-22.0074

>  <r_i_glide_einternal>  (77) 
0

>  <r_i_glide_intrahb_reward>  (77) 
-0

>  <i_i_glide_confnum>  (77) 
2

>  <i_i_glide_posenum>  (77) 
27

>  <r_i_glide_eff_state_penalty>  (77) 
0

>  <ligand_id>  (77) 
26

>  <original_smiles>  (77) 
Cc1ccc2c(c1)CC(=O)C1CCCN21

>  <smiles>  (77) 
[H]c1c([H])c(C([H])([H])[H])c([H])c2c1N1C([H])([H])C([H])([H])C([H])([H])C1([H])C(=O)C2([H])[H]

$$$$
26:0:1
     RDKit          3D

 30 32  0  0  1  0  0  0  0  0999 V2000
   -7.0123   -4.4028   -4.1023 C   0  0  0  0  0  0  0  0  0  0  0  0
   -7.3564   -5.3027   -5.2696 C   0  0  0  0  0  0  0  0  0  0  0  0
   -6.6501   -6.4991   -5.4859 C   0  0  0  0  0  0  0  0  0  0  0  0
   -6.9699   -7.3309   -6.5777 C   0  0  0  0  0  0  0  0  0  0  0  0
   -8.0105   -6.9739   -7.4646 C   0  0  0  0  0  0  0  0  0  0  0  0
   -8.7247   -5.7616   -7.2474 C   0  0  0  0  0  0  0  0  0  0  0  0
   -8.3937   -4.9367   -6.1517 C   0  0  0  0  0  0  0  0  0  0  0  0
   -9.8672   -5.3150   -8.1613 C   0  0  0  0  0  0  0  0  0  0  0  0
  -10.1122   -6.2675   -9.3346 C   0  0  0  0  0  0  0  0  0  0  0  0
  -10.5785   -5.8593  -10.3993 O   0  0  0  0  0  0  0  0  0  0  0  0
   -9.7365   -7.7155   -9.0446 C   0  0  1  0  0  0  0  0  0  0  0  0
   -9.7516   -8.6506  -10.2581 C   0  0  0  0  0  0  0  0  0  0  0  0
   -8.7871   -9.7601   -9.8197 C   0  0  0  0  0  0  0  0  0  0  0  0
   -7.7585   -9.0624   -8.9134 C   0  0  0  0  0  0  0  0  0  0  0  0
   -8.3763   -7.7939   -8.5515 N   0  0  0  0  0  0  0  0  0  0  0  0
   -6.1872   -4.8030   -3.5168 H   0  0  0  0  0  0  0  0  0  0  0  0
   -7.8722   -4.2898   -3.4469 H   0  0  0  0  0  0  0  0  0  0  0  0
   -6.7187   -3.4179   -4.4571 H   0  0  0  0  0  0  0  0  0  0  0  0
   -5.8587   -6.7878   -4.8081 H   0  0  0  0  0  0  0  0  0  0  0  0
   -6.4123   -8.2496   -6.7072 H   0  0  0  0  0  0  0  0  0  0  0  0
   -8.9387   -4.0197   -5.9780 H   0  0  0  0  0  0  0  0  0  0  0  0
  -10.7881   -5.2354   -7.5824 H   0  0  0  0  0  0  0  0  0  0  0  0
   -9.6300   -4.3193   -8.5372 H   0  0  0  0  0  0  0  0  0  0  0  0
  -10.3952   -8.1109   -8.2656 H   0  0  0  0  0  0  0  0  0  0  0  0
  -10.7529   -9.0267  -10.4800 H   0  0  0  0  0  0  0  0  0  0  0  0
   -9.3655   -8.1584  -11.1511 H   0  0  0  0  0  0  0  0  0  0  0  0
   -9.3413  -10.4908   -9.2300 H   0  0  0  0  0  0  0  0  0  0  0  0
   -8.3328  -10.2863  -10.6602 H   0  0  0  0  0  0  0  0  0  0  0  0
   -7.5045   -9.6787   -8.0475 H   0  0  0  0  0  0  0  0  0  0  0  0
   -6.8429   -8.8576   -9.4677 H   0  0  0  0  0  0  0  0  0  0  0  0
  1  2  1  0
  1 16  1  0
  1 17  1  0
  1 18  1  0
  2  7  2  0
  2  3  1  0
  3  4  2  0
  3 19  1  0
  4  5  1  0
  4 20  1  0
  5 15  1  0
  5  6  2  0
  6  7  1  0
  6  8  1  0
  7 21  1  0
  8  9  1  0
  8 22  1  0
  8 23  1  0
  9 10  2  0
  9 11  1  0
 11 15  1  0
 11 12  1  0
 11 24  1  1
 12 13  1  0
 12 25  1  0
 12 26  1  0
 13 14  1  0
 13 27  1  0
 13 28  1  0
 14 15  1  0
 14 29  1  0
 14 30  1  0
M  END
>  <i_m_ct_stereo_status>  (78) 
1

>  <s_m_source_file>  (78) 
/var/tmp/pbs.5076255.sched01/tmps52fw2z9/0bkrl5082.sdf

>  <i_m_source_file_index>  (78) 
32

>  <i_lp_mmshare_version>  (78) 
48012

>  <i_f3d_flags>  (78) 
0

>  <s_epik_input>  (78) 
W2NIXTFbY0hdYyhbQ0gzXSlbY0hdYyhjMTIpW0NIMl1DKD1PKVtDQEBIXTNOMltDSDJdW0NIMl1bQ0gyXTM=

>  <s_epik_cmdline>  (78) 
J2VwaWtfcHl0aG9uJywgJy1waHQnLCAnMi4wJywgJy1waCcsICc3LjAnLCAnLXRuJywgJzgnLCAnLW1hJywgJzIwMCcsICctaW1hZScsICc8aW5maWxlLm1hZT4nLCAnLW9tYWUnLCAnPG91dGZpbGUubWFlPic=

>  <r_lp_tautomer_probability>  (78) 
1

>  <r_epik_Ionization_Penalty>  (78) 
1.83962e-06

>  <r_epik_Ionization_Penalty_Charging>  (78) 
0

>  <r_epik_Ionization_Penalty_Neutral>  (78) 
1.83962e-06

>  <r_epik_State_Penalty>  (78) 
-0

>  <r_epik_Charging_Adjusted_Penalty>  (78) 
0

>  <i_epik_Tot_Q>  (78) 
0

>  <i_epik_Tot_abs_Q>  (78) 
0

>  <s_lp_Force_Field>  (78) 
OPLS3e

>  <r_lp_Energy>  (78) 
28.8844

>  <b_lp_Chiralities_Consistent>  (78) 
1

>  <s_lp_Variant>  (78) 
26:0-1

>  <s_i_glide_gridfile>  (78) 
pfpi4k_grid

>  <i_i_glide_lignum>  (78) 
32

>  <i_i_glide_rotatable_bonds>  (78) 
0

>  <r_i_docking_score>  (78) 
-5.97843

>  <r_i_glide_ligand_efficiency>  (78) 
-0.398562

>  <r_i_glide_ligand_efficiency_sa>  (78) 
-0.982938

>  <r_i_glide_ligand_efficiency_ln>  (78) 
-1.61228

>  <r_i_glide_gscore>  (78) 
-5.97843

>  <r_i_glide_lipo>  (78) 
-2.1066

>  <r_i_glide_hbond>  (78) 
0

>  <r_i_glide_metal>  (78) 
-0

>  <r_i_glide_rewards>  (78) 
-2.70943

>  <r_i_glide_evdw>  (78) 
-20.7301

>  <r_i_glide_ecoul>  (78) 
-0.725824

>  <r_i_glide_erotb>  (78) 
0

>  <r_i_glide_esite>  (78) 
-0.0170149

>  <r_i_glide_emodel>  (78) 
-29.3806

>  <r_i_glide_energy>  (78) 
-21.456

>  <r_i_glide_einternal>  (78) 
0

>  <r_i_glide_intrahb_reward>  (78) 
-0

>  <i_i_glide_confnum>  (78) 
2

>  <i_i_glide_posenum>  (78) 
22

>  <r_i_glide_eff_state_penalty>  (78) 
0

>  <ligand_id>  (78) 
26

>  <original_smiles>  (78) 
Cc1ccc2c(c1)CC(=O)C1CCCN21

>  <smiles>  (78) 
[H]c1c([H])c(C([H])([H])[H])c([H])c2c1N1C([H])([H])C([H])([H])C([H])([H])C1([H])C(=O)C2([H])[H]

$$$$
26:0:2
     RDKit          3D

 30 32  0  0  1  0  0  0  0  0999 V2000
    3.4155    0.0134   -4.8623 C   0  0  0  0  0  0  0  0  0  0  0  0
    3.7895   -0.9598   -3.7601 C   0  0  0  0  0  0  0  0  0  0  0  0
    3.6112   -2.3442   -3.9130 C   0  0  0  0  0  0  0  0  0  0  0  0
    3.9655   -3.2160   -2.8677 C   0  0  0  0  0  0  0  0  0  0  0  0
    4.4875   -2.7343   -1.6462 C   0  0  0  0  0  0  0  0  0  0  0  0
    4.6518   -1.3370   -1.4841 C   0  0  0  0  0  0  0  0  0  0  0  0
    4.3027   -0.4780   -2.5462 C   0  0  0  0  0  0  0  0  0  0  0  0
    5.1877   -0.7217   -0.1862 C   0  0  0  0  0  0  0  0  0  0  0  0
    5.4918   -1.7554    0.8986 C   0  0  0  0  0  0  0  0  0  0  0  0
    5.4595   -1.4441    2.0900 O   0  0  0  0  0  0  0  0  0  0  0  0
    5.8580   -3.1344    0.3486 C   0  0  1  0  0  0  0  0  0  0  0  0
    5.9429   -4.2601    1.3853 C   0  0  0  0  0  0  0  0  0  0  0  0
    5.6881   -5.5097    0.5309 C   0  0  0  0  0  0  0  0  0  0  0  0
    4.7426   -5.0428   -0.5882 C   0  0  0  0  0  0  0  0  0  0  0  0
    4.8518   -3.5935   -0.5890 N   0  0  0  0  0  0  0  0  0  0  0  0
    3.0183   -0.4981   -5.7336 H   0  0  0  0  0  0  0  0  0  0  0  0
    4.2866    0.5865   -5.1763 H   0  0  0  0  0  0  0  0  0  0  0  0
    2.6577    0.7160   -4.5154 H   0  0  0  0  0  0  0  0  0  0  0  0
    3.1875   -2.7494   -4.8133 H   0  0  0  0  0  0  0  0  0  0  0  0
    3.8223   -4.2549   -3.0340 H   0  0  0  0  0  0  0  0  0  0  0  0
    4.4134    0.5821   -2.4346 H   0  0  0  0  0  0  0  0  0  0  0  0
    6.1131   -0.1876   -0.3910 H   0  0  0  0  0  0  0  0  0  0  0  0
    4.4695    0.0085    0.1915 H   0  0  0  0  0  0  0  0  0  0  0  0
    6.8009   -3.0711   -0.2010 H   0  0  0  0  0  0  0  0  0  0  0  0
    6.9127   -4.2865    1.8859 H   0  0  0  0  0  0  0  0  0  0  0  0
    5.1638   -4.1662    2.1420 H   0  0  0  0  0  0  0  0  0  0  0  0
    6.6298   -5.8327    0.0867 H   0  0  0  0  0  0  0  0  0  0  0  0
    5.2909   -6.3460    1.1083 H   0  0  0  0  0  0  0  0  0  0  0  0
    5.0126   -5.4874   -1.5455 H   0  0  0  0  0  0  0  0  0  0  0  0
    3.7160   -5.3246   -0.3495 H   0  0  0  0  0  0  0  0  0  0  0  0
  1  2  1  0
  1 16  1  0
  1 17  1  0
  1 18  1  0
  2  7  2  0
  2  3  1  0
  3  4  2  0
  3 19  1  0
  4  5  1  0
  4 20  1  0
  5 15  1  0
  5  6  2  0
  6  7  1  0
  6  8  1  0
  7 21  1  0
  8  9  1  0
  8 22  1  0
  8 23  1  0
  9 10  2  0
  9 11  1  0
 11 15  1  0
 11 12  1  0
 11 24  1  6
 12 13  1  0
 12 25  1  0
 12 26  1  0
 13 14  1  0
 13 27  1  0
 13 28  1  0
 14 15  1  0
 14 29  1  0
 14 30  1  0
M  END
>  <i_m_ct_stereo_status>  (79) 
1

>  <s_m_source_file>  (79) 
/var/tmp/pbs.5076255.sched01/tmps52fw2z9/0bkrl5082.sdf

>  <i_m_source_file_index>  (79) 
32

>  <i_lp_mmshare_version>  (79) 
48012

>  <i_f3d_flags>  (79) 
0

>  <s_epik_input>  (79) 
W2NIXTFbY0hdYyhbQ0gzXSlbY0hdYyhjMTIpW0NIMl1DKD1PKVtDQEBIXTNOMltDSDJdW0NIMl1bQ0gyXTM=

>  <s_epik_cmdline>  (79) 
J2VwaWtfcHl0aG9uJywgJy1waHQnLCAnMi4wJywgJy1waCcsICc3LjAnLCAnLXRuJywgJzgnLCAnLW1hJywgJzIwMCcsICctaW1hZScsICc8aW5maWxlLm1hZT4nLCAnLW9tYWUnLCAnPG91dGZpbGUubWFlPic=

>  <r_lp_tautomer_probability>  (79) 
1

>  <r_epik_Ionization_Penalty>  (79) 
1.83962e-06

>  <r_epik_Ionization_Penalty_Charging>  (79) 
0

>  <r_epik_Ionization_Penalty_Neutral>  (79) 
1.83962e-06

>  <r_epik_State_Penalty>  (79) 
-0

>  <r_epik_Charging_Adjusted_Penalty>  (79) 
0

>  <i_epik_Tot_Q>  (79) 
0

>  <i_epik_Tot_abs_Q>  (79) 
0

>  <s_lp_Force_Field>  (79) 
OPLS3e

>  <r_lp_Energy>  (79) 
28.8844

>  <b_lp_Chiralities_Consistent>  (79) 
1

>  <s_lp_Variant>  (79) 
26:0-1

>  <s_i_glide_gridfile>  (79) 
pfpi4k_grid

>  <i_i_glide_lignum>  (79) 
32

>  <i_i_glide_rotatable_bonds>  (79) 
0

>  <r_i_docking_score>  (79) 
-4.22542

>  <r_i_glide_ligand_efficiency>  (79) 
-0.281694

>  <r_i_glide_ligand_efficiency_sa>  (79) 
-0.694718

>  <r_i_glide_ligand_efficiency_ln>  (79) 
-1.13952

>  <r_i_glide_gscore>  (79) 
-4.22542

>  <r_i_glide_lipo>  (79) 
-0.784721

>  <r_i_glide_hbond>  (79) 
0

>  <r_i_glide_metal>  (79) 
-0

>  <r_i_glide_rewards>  (79) 
-2.21845

>  <r_i_glide_evdw>  (79) 
-20.85

>  <r_i_glide_ecoul>  (79) 
-1.19828

>  <r_i_glide_erotb>  (79) 
0

>  <r_i_glide_esite>  (79) 
0

>  <r_i_glide_emodel>  (79) 
-27.6118

>  <r_i_glide_energy>  (79) 
-22.0483

>  <r_i_glide_einternal>  (79) 
0

>  <r_i_glide_intrahb_reward>  (79) 
-0

>  <i_i_glide_confnum>  (79) 
2

>  <i_i_glide_posenum>  (79) 
31

>  <r_i_glide_eff_state_penalty>  (79) 
0

>  <ligand_id>  (79) 
26

>  <original_smiles>  (79) 
Cc1ccc2c(c1)CC(=O)C1CCCN21

>  <smiles>  (79) 
[H]c1c([H])c(C([H])([H])[H])c([H])c2c1N1C([H])([H])C([H])([H])C([H])([H])C1([H])C(=O)C2([H])[H]

$$$$
27:0:0
     RDKit          3D

 92 97  0  0  1  0  0  0  0  0999 V2000
    0.3112    1.4538    1.9578 C   0  0  0  0  0  0  0  0  0  0  0  0
    1.3486    1.8538    2.8693 N   0  0  0  0  0  0  0  0  0  0  0  0
    2.0265    3.0192    2.8867 C   0  0  0  0  0  0  0  0  0  0  0  0
    2.9308    3.1287    3.8588 N   0  0  0  0  0  0  0  0  0  0  0  0
    2.8662    1.9221    4.5268 N   0  0  0  0  0  0  0  0  0  0  0  0
    1.9263    1.2046    3.9114 C   0  0  0  0  0  0  0  0  0  0  0  0
    1.4582   -0.4193    4.4221 S   0  0  0  0  0  0  0  0  0  0  0  0
    2.9723   -1.3312    3.9223 C   0  0  2  0  0  0  0  0  0  0  0  0
    2.6508   -2.1479    2.6817 C   0  0  0  0  0  0  0  0  0  0  0  0
    3.2013   -1.9509    1.5977 O   0  0  0  0  0  0  0  0  0  0  0  0
    1.6368   -3.2598    2.8946 C   0  0  0  0  0  0  0  0  0  0  0  0
    1.9991   -4.2928    4.0170 C   0  0  2  0  0  0  0  0  0  0  0  0
    0.6136   -4.8384    4.4450 C   0  0  0  0  0  0  0  0  0  0  0  0
    2.6422   -3.5479    5.2550 C   0  0  1  0  0  0  0  0  0  0  0  0
    3.1396   -4.5817    6.2937 C   0  0  0  0  0  0  0  0  0  0  0  0
    4.1753   -5.6010    5.7587 C   0  0  0  0  0  0  0  0  0  0  0  0
    3.8715   -6.3655    4.4089 C   0  0  2  0  0  0  0  0  0  0  0  0
    5.2542   -6.3826    3.6425 C   0  0  0  0  0  0  0  0  0  0  0  0
    2.9825   -5.4291    3.4600 C   0  0  1  0  0  0  0  0  0  0  0  0
    2.5846   -6.1739    2.1561 C   0  0  0  0  0  0  0  0  0  0  0  0
    2.0139   -7.5716    2.3606 C   0  0  0  0  0  0  0  0  0  0  0  0
    2.8936   -8.5059    3.2286 C   0  0  2  0  0  0  0  0  0  0  0  0
    2.2849   -9.9328    3.0708 C   0  0  2  0  0  0  0  0  0  0  0  0
    0.7681  -10.1829    3.1693 C   0  0  0  0  0  0  0  0  0  0  0  0
    1.1237  -11.6451    3.4062 C   0  0  0  0  0  0  0  0  0  0  0  0
    2.5138  -11.1991    3.9351 C   0  0  1  0  0  0  0  0  0  0  0  0
    3.6198  -12.1440    3.4288 C   0  0  0  0  0  0  0  0  0  0  0  0
    2.4830  -11.0707    5.4656 C   0  0  0  0  0  0  0  0  0  0  0  0
    3.3831  -10.0748    6.2386 C   0  0  0  0  0  0  0  0  0  0  0  0
    4.1920   -8.9074    5.5502 C   0  0  1  0  0  0  0  0  0  0  0  0
    5.7181   -9.3113    5.2787 C   0  0  0  0  0  0  0  0  0  0  0  0
    6.3054  -10.3049    6.3312 C   0  0  0  0  0  0  0  0  0  0  0  0
    6.0821   -9.9907    3.9283 C   0  0  0  0  0  0  0  0  0  0  0  0
    6.6452   -8.2647    5.4792 O   0  0  0  0  0  0  0  0  0  0  0  0
    3.2700   -7.8864    4.6463 C   0  0  1  0  0  0  0  0  0  0  0  0
    1.9098   -7.7389    5.4106 C   0  0  0  0  0  0  0  0  0  0  0  0
    3.5893   -2.2839    5.0013 C   0  0  0  0  0  0  0  0  0  0  0  0
    5.0277   -2.6188    4.5138 C   0  0  0  0  0  0  0  0  0  0  0  0
    3.7578   -1.4861    6.3172 C   0  0  0  0  0  0  0  0  0  0  0  0
    0.4778    1.9196    0.9798 H   0  0  0  0  0  0  0  0  0  0  0  0
   -0.6727    1.7809    2.3188 H   0  0  0  0  0  0  0  0  0  0  0  0
    0.3127    0.3685    1.8160 H   0  0  0  0  0  0  0  0  0  0  0  0
    1.8356    3.8062    2.1751 H   0  0  0  0  0  0  0  0  0  0  0  0
    3.7110   -0.5780    3.6491 H   0  0  0  0  0  0  0  0  0  0  0  0
    0.7146   -2.7453    3.1452 H   0  0  0  0  0  0  0  0  0  0  0  0
    1.4318   -3.7276    1.9409 H   0  0  0  0  0  0  0  0  0  0  0  0
    0.6254   -5.3331    5.4096 H   0  0  0  0  0  0  0  0  0  0  0  0
    0.2011   -5.5196    3.7035 H   0  0  0  0  0  0  0  0  0  0  0  0
   -0.1071   -4.0341    4.5759 H   0  0  0  0  0  0  0  0  0  0  0  0
    1.7873   -3.0846    5.7442 H   0  0  0  0  0  0  0  0  0  0  0  0
    3.5710   -4.0757    7.1565 H   0  0  0  0  0  0  0  0  0  0  0  0
    2.2923   -5.1071    6.7279 H   0  0  0  0  0  0  0  0  0  0  0  0
    5.0969   -5.0574    5.6395 H   0  0  0  0  0  0  0  0  0  0  0  0
    4.4280   -6.2741    6.5705 H   0  0  0  0  0  0  0  0  0  0  0  0
    5.2198   -6.9640    2.7222 H   0  0  0  0  0  0  0  0  0  0  0  0
    6.0953   -6.6730    4.2304 H   0  0  0  0  0  0  0  0  0  0  0  0
    5.5402   -5.3802    3.3478 H   0  0  0  0  0  0  0  0  0  0  0  0
    3.6828   -4.7279    3.0298 H   0  0  0  0  0  0  0  0  0  0  0  0
    1.9146   -5.6039    1.5256 H   0  0  0  0  0  0  0  0  0  0  0  0
    3.4778   -6.2939    1.5449 H   0  0  0  0  0  0  0  0  0  0  0  0
    0.9913   -7.5160    2.7294 H   0  0  0  0  0  0  0  0  0  0  0  0
    1.9184   -8.0143    1.3689 H   0  0  0  0  0  0  0  0  0  0  0  0
    3.8258   -8.5420    2.6804 H   0  0  0  0  0  0  0  0  0  0  0  0
    2.5580  -10.2360    2.0599 H   0  0  0  0  0  0  0  0  0  0  0  0
    0.3043   -9.7241    4.0388 H   0  0  0  0  0  0  0  0  0  0  0  0
    0.2112  -10.0026    2.2484 H   0  0  0  0  0  0  0  0  0  0  0  0
    0.5044  -12.1718    4.1470 H   0  0  0  0  0  0  0  0  0  0  0  0
    1.1826  -12.2325    2.4881 H   0  0  0  0  0  0  0  0  0  0  0  0
    3.8856  -12.9164    4.1651 H   0  0  0  0  0  0  0  0  0  0  0  0
    4.4482  -11.5864    3.0641 H   0  0  0  0  0  0  0  0  0  0  0  0
    3.3042  -12.6581    2.5421 H   0  0  0  0  0  0  0  0  0  0  0  0
    1.4588  -10.8273    5.7864 H   0  0  0  0  0  0  0  0  0  0  0  0
    2.6374  -12.0534    5.9072 H   0  0  0  0  0  0  0  0  0  0  0  0
    2.7652   -9.6398    7.0301 H   0  0  0  0  0  0  0  0  0  0  0  0
    3.9959  -10.7045    6.8729 H   0  0  0  0  0  0  0  0  0  0  0  0
    4.3426   -8.3159    6.4503 H   0  0  0  0  0  0  0  0  0  0  0  0
    6.0253  -11.3518    6.1505 H   0  0  0  0  0  0  0  0  0  0  0  0
    5.9858  -10.0513    7.3508 H   0  0  0  0  0  0  0  0  0  0  0  0
    7.3953  -10.2941    6.3447 H   0  0  0  0  0  0  0  0  0  0  0  0
    5.8591  -11.0588    4.0107 H   0  0  0  0  0  0  0  0  0  0  0  0
    7.1410   -9.9770    3.7031 H   0  0  0  0  0  0  0  0  0  0  0  0
    5.5702   -9.5877    3.0528 H   0  0  0  0  0  0  0  0  0  0  0  0
    7.3320   -8.4928    4.9314 H   0  0  0  0  0  0  0  0  0  0  0  0
    1.4035   -8.6689    5.6351 H   0  0  0  0  0  0  0  0  0  0  0  0
    1.1691   -7.2362    4.8173 H   0  0  0  0  0  0  0  0  0  0  0  0
    2.0135   -7.2185    6.3546 H   0  0  0  0  0  0  0  0  0  0  0  0
    5.6468   -3.0834    5.2748 H   0  0  0  0  0  0  0  0  0  0  0  0
    5.5605   -1.7115    4.2338 H   0  0  0  0  0  0  0  0  0  0  0  0
    5.0608   -3.2428    3.6278 H   0  0  0  0  0  0  0  0  0  0  0  0
    4.3980   -1.9991    7.0320 H   0  0  0  0  0  0  0  0  0  0  0  0
    2.8061   -1.3100    6.8145 H   0  0  0  0  0  0  0  0  0  0  0  0
    4.2105   -0.5123    6.1363 H   0  0  0  0  0  0  0  0  0  0  0  0
  1  2  1  0
  1 40  1  0
  1 41  1  0
  1 42  1  0
  2  6  1  0
  2  3  1  0
  3  4  2  0
  3 43  1  0
  4  5  1  0
  5  6  2  0
  6  7  1  0
  7  8  1  0
  8 37  1  0
  8  9  1  0
  8 44  1  6
  9 10  2  0
  9 11  1  0
 11 12  1  0
 11 45  1  0
 11 46  1  0
 12 19  1  0
 12 13  1  1
 12 14  1  0
 13 47  1  0
 13 48  1  0
 13 49  1  0
 14 15  1  0
 14 37  1  0
 14 50  1  1
 15 16  1  0
 15 51  1  0
 15 52  1  0
 16 17  1  0
 16 53  1  0
 16 54  1  0
 17 35  1  0
 17 18  1  6
 17 19  1  0
 18 55  1  0
 18 56  1  0
 18 57  1  0
 19 20  1  0
 19 58  1  6
 20 21  1  0
 20 59  1  0
 20 60  1  0
 21 22  1  0
 21 61  1  0
 21 62  1  0
 22 35  1  0
 22 23  1  0
 22 63  1  6
 23 26  1  0
 23 24  1  0
 23 64  1  6
 24 25  1  0
 24 65  1  0
 24 66  1  0
 25 26  1  0
 25 67  1  0
 25 68  1  0
 26 27  1  1
 26 28  1  0
 27 69  1  0
 27 70  1  0
 27 71  1  0
 28 29  1  0
 28 72  1  0
 28 73  1  0
 29 30  1  0
 29 74  1  0
 29 75  1  0
 30 31  1  0
 30 35  1  0
 30 76  1  1
 31 32  1  0
 31 33  1  0
 31 34  1  0
 32 77  1  0
 32 78  1  0
 32 79  1  0
 33 80  1  0
 33 81  1  0
 33 82  1  0
 34 83  1  0
 35 36  1  1
 36 84  1  0
 36 85  1  0
 36 86  1  0
 37 38  1  0
 37 39  1  0
 38 87  1  0
 38 88  1  0
 38 89  1  0
 39 90  1  0
 39 91  1  0
 39 92  1  0
M  END
>  <i_m_ct_stereo_status>  (80) 
1

>  <s_m_source_file>  (80) 
/var/tmp/pbs.5076255.sched01/tmps52fw2z9/0bkrl5082.sdf

>  <i_m_source_file_index>  (80) 
33

>  <i_lp_mmshare_version>  (80) 
48012

>  <i_f3d_flags>  (80) 
0

>  <s_epik_input>  (80) 
W0NIM11uMVtjSF1ubmMxU1tDQEhdKEMoPU8pW0NIMl0yKUMoW0NIM10pKFtDSDNdKVtDQEBIXShbQ0BAXTIzW0NIM10pW0NIMl1bQ0gyXVtDQF00KFtDSDNdKVtDQEhdM1tDSDJdW0NIMl1bQ0BASF01W0NASF02W0NAXShbQ0gzXSkoW0NIMl1bQ0gyXTYpW0NIMl1bQ0gyXVtDQEBIXShDKFtDSDNdKShbQ0gzXSlbT0hdKVtDQEBdNDVbQ0gzXQ==

>  <s_epik_cmdline>  (80) 
J2VwaWtfcHl0aG9uJywgJy1waHQnLCAnMi4wJywgJy1waCcsICc3LjAnLCAnLXRuJywgJzgnLCAnLW1hJywgJzIwMCcsICctaW1hZScsICc8aW5maWxlLm1hZT4nLCAnLW9tYWUnLCAnPG91dGZpbGUubWFlPic=

>  <r_lp_tautomer_probability>  (80) 
1

>  <r_epik_Ionization_Penalty>  (80) 
1.35881e-06

>  <r_epik_Ionization_Penalty_Charging>  (80) 
0

>  <r_epik_Ionization_Penalty_Neutral>  (80) 
1.35881e-06

>  <r_epik_State_Penalty>  (80) 
-0

>  <r_epik_Charging_Adjusted_Penalty>  (80) 
0

>  <i_epik_Tot_Q>  (80) 
0

>  <i_epik_Tot_abs_Q>  (80) 
0

>  <s_lp_Force_Field>  (80) 
OPLS3e

>  <r_lp_Energy>  (80) 
158.963

>  <b_lp_Chiralities_Consistent>  (80) 
1

>  <s_lp_Variant>  (80) 
27:0-1

>  <s_i_glide_gridfile>  (80) 
pfpi4k_grid

>  <i_i_glide_lignum>  (80) 
33

>  <i_i_glide_rotatable_bonds>  (80) 
4

>  <r_i_docking_score>  (80) 
-1.7987

>  <r_i_glide_ligand_efficiency>  (80) 
-0.0461206

>  <r_i_glide_ligand_efficiency_sa>  (80) 
-0.156405

>  <r_i_glide_ligand_efficiency_ln>  (80) 
-0.385693

>  <r_i_glide_gscore>  (80) 
-1.7987

>  <r_i_glide_lipo>  (80) 
-0.255655

>  <r_i_glide_hbond>  (80) 
0

>  <r_i_glide_metal>  (80) 
-0

>  <r_i_glide_rewards>  (80) 
0

>  <r_i_glide_evdw>  (80) 
-24.9817

>  <r_i_glide_ecoul>  (80) 
-1.97251

>  <r_i_glide_erotb>  (80) 
0.126532

>  <r_i_glide_esite>  (80) 
-0.12462

>  <r_i_glide_emodel>  (80) 
-25.9844

>  <r_i_glide_energy>  (80) 
-26.9542

>  <r_i_glide_einternal>  (80) 
3.39472

>  <r_i_glide_intrahb_reward>  (80) 
-0

>  <i_i_glide_confnum>  (80) 
3

>  <i_i_glide_posenum>  (80) 
29

>  <r_i_glide_eff_state_penalty>  (80) 
0

>  <ligand_id>  (80) 
27

>  <original_smiles>  (80) 
Cn1cnnc1SC1C(=O)CC2(C)C(CCC3(C)C2CCC2C4CCC4(C)CCC(C(C)(C)O)C23C)C1(C)C

>  <smiles>  (80) 
[H]OC(C([H])([H])[H])(C([H])([H])[H])C1([H])C([H])([H])C([H])([H])C2(C([H])([H])[H])C([H])([H])C([H])([H])C2([H])C2([H])C([H])([H])C([H])([H])C3([H])C4(C([H])([H])[H])C([H])([H])C(=O)C([H])(Sc5nnc([H])n5C([H])([H])[H])C(C([H])([H])[H])(C([H])([H])[H])C4([H])C([H])([H])C([H])([H])C3(C([H])([H])[H])C21C([H])([H])[H]

$$$$
27:0:1
     RDKit          3D

 92 97  0  0  1  0  0  0  0  0999 V2000
    2.5061    1.4857    2.3983 C   0  0  0  0  0  0  0  0  0  0  0  0
    1.1810    1.0856    2.9022 N   0  0  0  0  0  0  0  0  0  0  0  0
   -0.0017    1.4500    2.4273 C   0  0  0  0  0  0  0  0  0  0  0  0
   -1.0522    0.9474    3.1000 N   0  0  0  0  0  0  0  0  0  0  0  0
   -0.4942    0.1806    4.0955 N   0  0  0  0  0  0  0  0  0  0  0  0
    0.8425    0.2936    3.9334 C   0  0  0  0  0  0  0  0  0  0  0  0
    1.9922   -0.5150    5.0184 S   0  0  0  0  0  0  0  0  0  0  0  0
    2.9910   -1.4631    3.8052 C   0  0  2  0  0  0  0  0  0  0  0  0
    2.0925   -2.2855    2.9102 C   0  0  0  0  0  0  0  0  0  0  0  0
    2.0166   -2.0866    1.6830 O   0  0  0  0  0  0  0  0  0  0  0  0
    1.3071   -3.3754    3.6006 C   0  0  0  0  0  0  0  0  0  0  0  0
    2.1846   -4.4166    4.3885 C   0  0  2  0  0  0  0  0  0  0  0  0
    1.1930   -4.9381    5.4605 C   0  0  0  0  0  0  0  0  0  0  0  0
    3.3543   -3.6661    5.1364 C   0  0  1  0  0  0  0  0  0  0  0  0
    4.3142   -4.7089    5.7589 C   0  0  0  0  0  0  0  0  0  0  0  0
    4.9232   -5.7235    4.7620 C   0  0  0  0  0  0  0  0  0  0  0  0
    3.9700   -6.4966    3.7794 C   0  0  2  0  0  0  0  0  0  0  0  0
    4.7359   -6.5426    2.3823 C   0  0  0  0  0  0  0  0  0  0  0  0
    2.7369   -5.5506    3.4180 C   0  0  1  0  0  0  0  0  0  0  0  0
    1.7328   -6.2837    2.4965 C   0  0  0  0  0  0  0  0  0  0  0  0
    1.3393   -7.6749    2.9566 C   0  0  0  0  0  0  0  0  0  0  0  0
    2.5332   -8.6179    3.2582 C   0  0  2  0  0  0  0  0  0  0  0  0
    1.9193  -10.0259    3.4536 C   0  0  2  0  0  0  0  0  0  0  0  0
    0.6582  -10.2775    4.2919 C   0  0  0  0  0  0  0  0  0  0  0  0
    1.0850  -11.7358    4.2996 C   0  0  0  0  0  0  0  0  0  0  0  0
    2.5552  -11.2906    4.0792 C   0  0  1  0  0  0  0  0  0  0  0  0
    3.3205  -12.2053    3.1169 C   0  0  0  0  0  0  0  0  0  0  0  0
    3.2992  -11.1947    5.4190 C   0  0  0  0  0  0  0  0  0  0  0  0
    4.4650  -10.1987    5.6312 C   0  0  0  0  0  0  0  0  0  0  0  0
    4.8089   -9.0252    4.6433 C   0  0  1  0  0  0  0  0  0  0  0  0
    5.9641   -9.4248    3.6203 C   0  0  0  0  0  0  0  0  0  0  0  0
    7.1590   -8.4223    3.6053 C   0  0  0  0  0  0  0  0  0  0  0  0
    6.6980  -10.7718    3.8668 C   0  0  0  0  0  0  0  0  0  0  0  0
    5.4121   -9.5763    2.3349 O   0  0  0  0  0  0  0  0  0  0  0  0
    3.5736   -8.0073    4.2919 C   0  0  1  0  0  0  0  0  0  0  0  0
    2.7953   -7.8531    5.6360 C   0  0  0  0  0  0  0  0  0  0  0  0
    4.0467   -2.4124    4.4374 C   0  0  0  0  0  0  0  0  0  0  0  0
    5.0368   -2.7451    3.2882 C   0  0  0  0  0  0  0  0  0  0  0  0
    4.8814   -1.6183    5.4748 C   0  0  0  0  0  0  0  0  0  0  0  0
    2.4281    2.4776    1.9794 H   0  0  0  0  0  0  0  0  0  0  0  0
    2.8120    0.7887    1.6286 H   0  0  0  0  0  0  0  0  0  0  0  0
    3.2262    1.5061    3.2051 H   0  0  0  0  0  0  0  0  0  0  0  0
   -0.1281    2.0990    1.5717 H   0  0  0  0  0  0  0  0  0  0  0  0
    3.5223   -0.7451    3.1884 H   0  0  0  0  0  0  0  0  0  0  0  0
    0.6505   -2.8475    4.2944 H   0  0  0  0  0  0  0  0  0  0  0  0
    0.6266   -3.8347    2.8934 H   0  0  0  0  0  0  0  0  0  0  0  0
    1.6872   -5.4387    6.2904 H   0  0  0  0  0  0  0  0  0  0  0  0
    0.4445   -5.6081    5.0322 H   0  0  0  0  0  0  0  0  0  0  0  0
    0.6486   -4.1176    5.9399 H   0  0  0  0  0  0  0  0  0  0  0  0
    2.8804   -3.1975    6.0029 H   0  0  0  0  0  0  0  0  0  0  0  0
    5.1228   -4.2040    6.2849 H   0  0  0  0  0  0  0  0  0  0  0  0
    3.8040   -5.2294    6.5734 H   0  0  0  0  0  0  0  0  0  0  0  0
    5.6984   -5.2149    4.1898 H   0  0  0  0  0  0  0  0  0  0  0  0
    5.4992   -6.3965    5.3804 H   0  0  0  0  0  0  0  0  0  0  0  0
    4.1396   -7.0319    1.6031 H   0  0  0  0  0  0  0  0  0  0  0  0
    5.6873   -6.9945    2.3292 H   0  0  0  0  0  0  0  0  0  0  0  0
    4.9000   -5.5260    2.0075 H   0  0  0  0  0  0  0  0  0  0  0  0
    3.1147   -4.8440    2.6943 H   0  0  0  0  0  0  0  0  0  0  0  0
    0.8243   -5.7137    2.3304 H   0  0  0  0  0  0  0  0  0  0  0  0
    2.1686   -6.3811    1.4970 H   0  0  0  0  0  0  0  0  0  0  0  0
    0.6537   -7.5932    3.7978 H   0  0  0  0  0  0  0  0  0  0  0  0
    0.7358   -8.1159    2.1590 H   0  0  0  0  0  0  0  0  0  0  0  0
    3.0566   -8.6947    2.3151 H   0  0  0  0  0  0  0  0  0  0  0  0
    1.6110  -10.3444    2.4548 H   0  0  0  0  0  0  0  0  0  0  0  0
    0.6762   -9.8274    5.2851 H   0  0  0  0  0  0  0  0  0  0  0  0
   -0.2878  -10.1048    3.7715 H   0  0  0  0  0  0  0  0  0  0  0  0
    0.8905  -12.2300    5.2479 H   0  0  0  0  0  0  0  0  0  0  0  0
    0.6466  -12.2878    3.4648 H   0  0  0  0  0  0  0  0  0  0  0  0
    3.8176  -13.0358    3.6189 H   0  0  0  0  0  0  0  0  0  0  0  0
    4.0549  -11.6767    2.5183 H   0  0  0  0  0  0  0  0  0  0  0  0
    2.6359  -12.6573    2.4027 H   0  0  0  0  0  0  0  0  0  0  0  0
    2.5714  -10.9529    6.1887 H   0  0  0  0  0  0  0  0  0  0  0  0
    3.6214  -12.1920    5.7305 H   0  0  0  0  0  0  0  0  0  0  0  0
    4.2984   -9.7571    6.6149 H   0  0  0  0  0  0  0  0  0  0  0  0
    5.3407  -10.7895    5.8827 H   0  0  0  0  0  0  0  0  0  0  0  0
    5.4008   -8.4473    5.3444 H   0  0  0  0  0  0  0  0  0  0  0  0
    7.9477   -8.7100    4.3102 H   0  0  0  0  0  0  0  0  0  0  0  0
    6.8973   -7.4055    3.8636 H   0  0  0  0  0  0  0  0  0  0  0  0
    7.6335   -8.4190    2.6161 H   0  0  0  0  0  0  0  0  0  0  0  0
    7.3375  -10.7105    4.7528 H   0  0  0  0  0  0  0  0  0  0  0  0
    7.3689  -11.0075    3.0384 H   0  0  0  0  0  0  0  0  0  0  0  0
    6.0517  -11.6376    3.9862 H   0  0  0  0  0  0  0  0  0  0  0  0
    4.9090  -10.3770    2.3237 H   0  0  0  0  0  0  0  0  0  0  0  0
    2.4567   -8.7808    6.0888 H   0  0  0  0  0  0  0  0  0  0  0  0
    1.8577   -7.3381    5.5089 H   0  0  0  0  0  0  0  0  0  0  0  0
    3.3676   -7.3400    6.4100 H   0  0  0  0  0  0  0  0  0  0  0  0
    5.9277   -3.2392    3.6528 H   0  0  0  0  0  0  0  0  0  0  0  0
    5.3875   -1.8359    2.7904 H   0  0  0  0  0  0  0  0  0  0  0  0
    4.6129   -3.3659    2.5063 H   0  0  0  0  0  0  0  0  0  0  0  0
    5.7938   -2.1465    5.7637 H   0  0  0  0  0  0  0  0  0  0  0  0
    4.3188   -1.4304    6.3903 H   0  0  0  0  0  0  0  0  0  0  0  0
    5.1933   -0.6490    5.0789 H   0  0  0  0  0  0  0  0  0  0  0  0
  1  2  1  0
  1 40  1  0
  1 41  1  0
  1 42  1  0
  2  6  1  0
  2  3  1  0
  3  4  2  0
  3 43  1  0
  4  5  1  0
  5  6  2  0
  6  7  1  0
  7  8  1  0
  8 37  1  0
  8  9  1  0
  8 44  1  6
  9 10  2  0
  9 11  1  0
 11 12  1  0
 11 45  1  0
 11 46  1  0
 12 19  1  0
 12 13  1  1
 12 14  1  0
 13 47  1  0
 13 48  1  0
 13 49  1  0
 14 15  1  0
 14 37  1  0
 14 50  1  1
 15 16  1  0
 15 51  1  0
 15 52  1  0
 16 17  1  0
 16 53  1  0
 16 54  1  0
 17 35  1  0
 17 18  1  6
 17 19  1  0
 18 55  1  0
 18 56  1  0
 18 57  1  0
 19 20  1  0
 19 58  1  6
 20 21  1  0
 20 59  1  0
 20 60  1  0
 21 22  1  0
 21 61  1  0
 21 62  1  0
 22 35  1  0
 22 23  1  0
 22 63  1  6
 23 26  1  0
 23 24  1  0
 23 64  1  6
 24 25  1  0
 24 65  1  0
 24 66  1  0
 25 26  1  0
 25 67  1  0
 25 68  1  0
 26 27  1  6
 26 28  1  0
 27 69  1  0
 27 70  1  0
 27 71  1  0
 28 29  1  0
 28 72  1  0
 28 73  1  0
 29 30  1  0
 29 74  1  0
 29 75  1  0
 30 31  1  0
 30 35  1  0
 30 76  1  1
 31 32  1  0
 31 33  1  0
 31 34  1  0
 32 77  1  0
 32 78  1  0
 32 79  1  0
 33 80  1  0
 33 81  1  0
 33 82  1  0
 34 83  1  0
 35 36  1  1
 36 84  1  0
 36 85  1  0
 36 86  1  0
 37 38  1  0
 37 39  1  0
 38 87  1  0
 38 88  1  0
 38 89  1  0
 39 90  1  0
 39 91  1  0
 39 92  1  0
M  END
>  <i_m_ct_stereo_status>  (81) 
1

>  <s_m_source_file>  (81) 
/var/tmp/pbs.5076255.sched01/tmps52fw2z9/0bkrl5082.sdf

>  <i_m_source_file_index>  (81) 
33

>  <i_lp_mmshare_version>  (81) 
48012

>  <i_f3d_flags>  (81) 
0

>  <s_epik_input>  (81) 
W0NIM11uMVtjSF1ubmMxU1tDQEhdKEMoPU8pW0NIMl0yKUMoW0NIM10pKFtDSDNdKVtDQEBIXShbQ0BAXTIzW0NIM10pW0NIMl1bQ0gyXVtDQF00KFtDSDNdKVtDQEhdM1tDSDJdW0NIMl1bQ0BASF01W0NASF02W0NAXShbQ0gzXSkoW0NIMl1bQ0gyXTYpW0NIMl1bQ0gyXVtDQEBIXShDKFtDSDNdKShbQ0gzXSlbT0hdKVtDQEBdNDVbQ0gzXQ==

>  <s_epik_cmdline>  (81) 
J2VwaWtfcHl0aG9uJywgJy1waHQnLCAnMi4wJywgJy1waCcsICc3LjAnLCAnLXRuJywgJzgnLCAnLW1hJywgJzIwMCcsICctaW1hZScsICc8aW5maWxlLm1hZT4nLCAnLW9tYWUnLCAnPG91dGZpbGUubWFlPic=

>  <r_lp_tautomer_probability>  (81) 
1

>  <r_epik_Ionization_Penalty>  (81) 
1.35881e-06

>  <r_epik_Ionization_Penalty_Charging>  (81) 
0

>  <r_epik_Ionization_Penalty_Neutral>  (81) 
1.35881e-06

>  <r_epik_State_Penalty>  (81) 
-0

>  <r_epik_Charging_Adjusted_Penalty>  (81) 
0

>  <i_epik_Tot_Q>  (81) 
0

>  <i_epik_Tot_abs_Q>  (81) 
0

>  <s_lp_Force_Field>  (81) 
OPLS3e

>  <r_lp_Energy>  (81) 
158.963

>  <b_lp_Chiralities_Consistent>  (81) 
1

>  <s_lp_Variant>  (81) 
27:0-1

>  <s_i_glide_gridfile>  (81) 
pfpi4k_grid

>  <i_i_glide_lignum>  (81) 
33

>  <i_i_glide_rotatable_bonds>  (81) 
4

>  <r_i_docking_score>  (81) 
-1.76748

>  <r_i_glide_ligand_efficiency>  (81) 
-0.04532

>  <r_i_glide_ligand_efficiency_sa>  (81) 
-0.15369

>  <r_i_glide_ligand_efficiency_ln>  (81) 
-0.378998

>  <r_i_glide_gscore>  (81) 
-1.76748

>  <r_i_glide_lipo>  (81) 
-0.235835

>  <r_i_glide_hbond>  (81) 
0

>  <r_i_glide_metal>  (81) 
-0

>  <r_i_glide_rewards>  (81) 
0

>  <r_i_glide_evdw>  (81) 
-26.7359

>  <r_i_glide_ecoul>  (81) 
-1.0557

>  <r_i_glide_erotb>  (81) 
0.126532

>  <r_i_glide_esite>  (81) 
-0.163025

>  <r_i_glide_emodel>  (81) 
-29.4918

>  <r_i_glide_energy>  (81) 
-27.7916

>  <r_i_glide_einternal>  (81) 
1.70441

>  <r_i_glide_intrahb_reward>  (81) 
-0

>  <i_i_glide_confnum>  (81) 
5

>  <i_i_glide_posenum>  (81) 
15

>  <r_i_glide_eff_state_penalty>  (81) 
0

>  <ligand_id>  (81) 
27

>  <original_smiles>  (81) 
Cn1cnnc1SC1C(=O)CC2(C)C(CCC3(C)C2CCC2C4CCC4(C)CCC(C(C)(C)O)C23C)C1(C)C

>  <smiles>  (81) 
[H]OC(C([H])([H])[H])(C([H])([H])[H])C1([H])C([H])([H])C([H])([H])C2(C([H])([H])[H])C([H])([H])C([H])([H])C2([H])C2([H])C([H])([H])C([H])([H])C3([H])C4(C([H])([H])[H])C([H])([H])C(=O)C([H])(Sc5nnc([H])n5C([H])([H])[H])C(C([H])([H])[H])(C([H])([H])[H])C4([H])C([H])([H])C([H])([H])C3(C([H])([H])[H])C21C([H])([H])[H]

$$$$
27:0:2
     RDKit          3D

 92 97  0  0  1  0  0  0  0  0999 V2000
    3.4575   -0.6642   -2.1177 C   0  0  0  0  0  0  0  0  0  0  0  0
    3.8968   -1.9322   -2.6210 N   0  0  0  0  0  0  0  0  0  0  0  0
    3.7412   -2.4178   -3.8721 C   0  0  0  0  0  0  0  0  0  0  0  0
    4.2605   -3.6049   -4.0744 N   0  0  0  0  0  0  0  0  0  0  0  0
    4.8430   -3.9355   -2.8705 N   0  0  0  0  0  0  0  0  0  0  0  0
    4.5646   -2.9656   -2.0253 C   0  0  0  0  0  0  0  0  0  0  0  0
    5.0447   -2.9577   -0.3262 S   0  0  0  0  0  0  0  0  0  0  0  0
    4.5209   -4.6640    0.1447 C   0  0  2  0  0  0  0  0  0  0  0  0
    3.0415   -4.6338    0.5197 C   0  0  0  0  0  0  0  0  0  0  0  0
    2.1664   -5.2566   -0.0826 O   0  0  0  0  0  0  0  0  0  0  0  0
    2.7104   -3.8132    1.7465 C   0  0  0  0  0  0  0  0  0  0  0  0
    3.4724   -4.2306    3.0487 C   0  0  2  0  0  0  0  0  0  0  0  0
    3.4524   -2.9249    3.8779 C   0  0  0  0  0  0  0  0  0  0  0  0
    4.9761   -4.5822    2.7122 C   0  0  1  0  0  0  0  0  0  0  0  0
    5.6851   -5.1325    3.9737 C   0  0  0  0  0  0  0  0  0  0  0  0
    5.0282   -6.3857    4.5987 C   0  0  0  0  0  0  0  0  0  0  0  0
    3.4715   -6.3803    4.8675 C   0  0  2  0  0  0  0  0  0  0  0  0
    2.9881   -7.8242    4.4357 C   0  0  0  0  0  0  0  0  0  0  0  0
    2.7474   -5.4585    3.7740 C   0  0  1  0  0  0  0  0  0  0  0  0
    1.2238   -5.3554    4.0542 C   0  0  0  0  0  0  0  0  0  0  0  0
    0.8536   -5.0228    5.4933 C   0  0  0  0  0  0  0  0  0  0  0  0
    1.5002   -5.9476    6.5560 C   0  0  2  0  0  0  0  0  0  0  0  0
    0.7788   -5.6260    7.9004 C   0  0  2  0  0  0  0  0  0  0  0  0
    0.5267   -4.1800    8.3584 C   0  0  0  0  0  0  0  0  0  0  0  0
    0.3183   -4.7582    9.7519 C   0  0  0  0  0  0  0  0  0  0  0  0
    1.1964   -5.9719    9.3552 C   0  0  1  0  0  0  0  0  0  0  0  0
    0.6058   -7.2807    9.9091 C   0  0  0  0  0  0  0  0  0  0  0  0
    2.6619   -5.7385    9.7877 C   0  0  0  0  0  0  0  0  0  0  0  0
    3.8584   -6.3513    9.0169 C   0  0  0  0  0  0  0  0  0  0  0  0
    3.7432   -7.0129    7.5876 C   0  0  1  0  0  0  0  0  0  0  0  0
    3.6210   -8.6078    7.6699 C   0  0  0  0  0  0  0  0  0  0  0  0
    4.3638   -9.2389    8.8912 C   0  0  0  0  0  0  0  0  0  0  0  0
    2.2021   -9.2199    7.7748 C   0  0  0  0  0  0  0  0  0  0  0  0
    4.3166   -9.3056    6.6607 O   0  0  0  0  0  0  0  0  0  0  0  0
    3.0840   -6.0379    6.4371 C   0  0  1  0  0  0  0  0  0  0  0  0
    3.6091   -4.5951    6.7413 C   0  0  0  0  0  0  0  0  0  0  0  0
    5.3176   -5.3111    1.3316 C   0  0  0  0  0  0  0  0  0  0  0  0
    5.0028   -6.8352    1.2856 C   0  0  0  0  0  0  0  0  0  0  0  0
    6.8353   -5.1796    1.0466 C   0  0  0  0  0  0  0  0  0  0  0  0
    2.5587   -0.3669   -2.6502 H   0  0  0  0  0  0  0  0  0  0  0  0
    4.2113    0.0857   -2.2804 H   0  0  0  0  0  0  0  0  0  0  0  0
    3.2297   -0.7500   -1.0516 H   0  0  0  0  0  0  0  0  0  0  0  0
    3.2416   -1.8489   -4.6445 H   0  0  0  0  0  0  0  0  0  0  0  0
    4.6540   -5.2920   -0.7362 H   0  0  0  0  0  0  0  0  0  0  0  0
    2.9584   -2.7959    1.4641 H   0  0  0  0  0  0  0  0  0  0  0  0
    1.6350   -3.8007    1.8675 H   0  0  0  0  0  0  0  0  0  0  0  0
    4.1863   -2.9111    4.6746 H   0  0  0  0  0  0  0  0  0  0  0  0
    2.4679   -2.7237    4.2956 H   0  0  0  0  0  0  0  0  0  0  0  0
    3.7171   -2.0620    3.2699 H   0  0  0  0  0  0  0  0  0  0  0  0
    5.4387   -3.6082    2.5625 H   0  0  0  0  0  0  0  0  0  0  0  0
    6.7257   -5.3670    3.7546 H   0  0  0  0  0  0  0  0  0  0  0  0
    5.7706   -4.3457    4.7201 H   0  0  0  0  0  0  0  0  0  0  0  0
    5.2553   -7.2035    3.9330 H   0  0  0  0  0  0  0  0  0  0  0  0
    5.6036   -6.6615    5.4759 H   0  0  0  0  0  0  0  0  0  0  0  0
    1.9340   -8.0059    4.6535 H   0  0  0  0  0  0  0  0  0  0  0  0
    3.5795   -8.6309    4.7975 H   0  0  0  0  0  0  0  0  0  0  0  0
    3.1016   -7.9669    3.3648 H   0  0  0  0  0  0  0  0  0  0  0  0
    2.7014   -6.0711    2.8853 H   0  0  0  0  0  0  0  0  0  0  0  0
    0.7127   -4.6711    3.3888 H   0  0  0  0  0  0  0  0  0  0  0  0
    0.7695   -6.3215    3.8369 H   0  0  0  0  0  0  0  0  0  0  0  0
    1.0391   -3.9707    5.7012 H   0  0  0  0  0  0  0  0  0  0  0  0
   -0.2294   -5.1248    5.5640 H   0  0  0  0  0  0  0  0  0  0  0  0
    1.1409   -6.9292    6.2771 H   0  0  0  0  0  0  0  0  0  0  0  0
   -0.2131   -6.0646    7.7846 H   0  0  0  0  0  0  0  0  0  0  0  0
    1.4064   -3.5449    8.2971 H   0  0  0  0  0  0  0  0  0  0  0  0
   -0.3596   -3.7091    7.9328 H   0  0  0  0  0  0  0  0  0  0  0  0
    0.7233   -4.1624   10.5800 H   0  0  0  0  0  0  0  0  0  0  0  0
   -0.7197   -5.0347    9.9541 H   0  0  0  0  0  0  0  0  0  0  0  0
    1.0748   -7.5959   10.8496 H   0  0  0  0  0  0  0  0  0  0  0  0
    0.6006   -8.0283    9.1594 H   0  0  0  0  0  0  0  0  0  0  0  0
   -0.4547   -7.1850   10.0847 H   0  0  0  0  0  0  0  0  0  0  0  0
    2.8651   -4.6597    9.7963 H   0  0  0  0  0  0  0  0  0  0  0  0
    2.7810   -6.0016   10.8384 H   0  0  0  0  0  0  0  0  0  0  0  0
    4.6341   -5.5818    8.9653 H   0  0  0  0  0  0  0  0  0  0  0  0
    4.3454   -6.9920    9.7410 H   0  0  0  0  0  0  0  0  0  0  0  0
    4.7987   -6.9532    7.3364 H   0  0  0  0  0  0  0  0  0  0  0  0
    3.7965   -9.1752    9.8290 H   0  0  0  0  0  0  0  0  0  0  0  0
    5.3374   -8.7646    9.0608 H   0  0  0  0  0  0  0  0  0  0  0  0
    4.5651  -10.3009    8.7447 H   0  0  0  0  0  0  0  0  0  0  0  0
    1.8932   -9.2191    8.8148 H   0  0  0  0  0  0  0  0  0  0  0  0
    2.1868  -10.2758    7.5443 H   0  0  0  0  0  0  0  0  0  0  0  0
    1.4344   -8.7753    7.1439 H   0  0  0  0  0  0  0  0  0  0  0  0
    3.8689  -10.0966    6.6051 H   0  0  0  0  0  0  0  0  0  0  0  0
    3.4250   -4.2390    7.7460 H   0  0  0  0  0  0  0  0  0  0  0  0
    3.0994   -3.8510    6.1586 H   0  0  0  0  0  0  0  0  0  0  0  0
    4.6756   -4.4929    6.5785 H   0  0  0  0  0  0  0  0  0  0  0  0
    5.6629   -7.4351    1.9056 H   0  0  0  0  0  0  0  0  0  0  0  0
    5.1276   -7.2302    0.2789 H   0  0  0  0  0  0  0  0  0  0  0  0
    3.9807   -7.0824    1.5465 H   0  0  0  0  0  0  0  0  0  0  0  0
    7.4419   -5.8157    1.6891 H   0  0  0  0  0  0  0  0  0  0  0  0
    7.1946   -4.1598    1.1722 H   0  0  0  0  0  0  0  0  0  0  0  0
    7.0705   -5.4765    0.0314 H   0  0  0  0  0  0  0  0  0  0  0  0
  1  2  1  0
  1 40  1  0
  1 41  1  0
  1 42  1  0
  2  6  1  0
  2  3  1  0
  3  4  2  0
  3 43  1  0
  4  5  1  0
  5  6  2  0
  6  7  1  0
  7  8  1  0
  8 37  1  0
  8  9  1  0
  8 44  1  6
  9 10  2  0
  9 11  1  0
 11 12  1  0
 11 45  1  0
 11 46  1  0
 12 19  1  0
 12 13  1  1
 12 14  1  0
 13 47  1  0
 13 48  1  0
 13 49  1  0
 14 15  1  0
 14 37  1  0
 14 50  1  6
 15 16  1  0
 15 51  1  0
 15 52  1  0
 16 17  1  0
 16 53  1  0
 16 54  1  0
 17 35  1  0
 17 18  1  6
 17 19  1  0
 18 55  1  0
 18 56  1  0
 18 57  1  0
 19 20  1  0
 19 58  1  6
 20 21  1  0
 20 59  1  0
 20 60  1  0
 21 22  1  0
 21 61  1  0
 21 62  1  0
 22 35  1  0
 22 23  1  0
 22 63  1  6
 23 26  1  0
 23 24  1  0
 23 64  1  6
 24 25  1  0
 24 65  1  0
 24 66  1  0
 25 26  1  0
 25 67  1  0
 25 68  1  0
 26 27  1  1
 26 28  1  0
 27 69  1  0
 27 70  1  0
 27 71  1  0
 28 29  1  0
 28 72  1  0
 28 73  1  0
 29 30  1  0
 29 74  1  0
 29 75  1  0
 30 31  1  0
 30 35  1  0
 30 76  1  6
 31 32  1  0
 31 33  1  0
 31 34  1  0
 32 77  1  0
 32 78  1  0
 32 79  1  0
 33 80  1  0
 33 81  1  0
 33 82  1  0
 34 83  1  0
 35 36  1  1
 36 84  1  0
 36 85  1  0
 36 86  1  0
 37 38  1  0
 37 39  1  0
 38 87  1  0
 38 88  1  0
 38 89  1  0
 39 90  1  0
 39 91  1  0
 39 92  1  0
M  END
>  <i_m_ct_stereo_status>  (82) 
1

>  <s_m_source_file>  (82) 
/var/tmp/pbs.5076255.sched01/tmps52fw2z9/0bkrl5082.sdf

>  <i_m_source_file_index>  (82) 
33

>  <i_lp_mmshare_version>  (82) 
48012

>  <i_f3d_flags>  (82) 
0

>  <s_epik_input>  (82) 
W0NIM11uMVtjSF1ubmMxU1tDQEhdKEMoPU8pW0NIMl0yKUMoW0NIM10pKFtDSDNdKVtDQEBIXShbQ0BAXTIzW0NIM10pW0NIMl1bQ0gyXVtDQF00KFtDSDNdKVtDQEhdM1tDSDJdW0NIMl1bQ0BASF01W0NASF02W0NAXShbQ0gzXSkoW0NIMl1bQ0gyXTYpW0NIMl1bQ0gyXVtDQEBIXShDKFtDSDNdKShbQ0gzXSlbT0hdKVtDQEBdNDVbQ0gzXQ==

>  <s_epik_cmdline>  (82) 
J2VwaWtfcHl0aG9uJywgJy1waHQnLCAnMi4wJywgJy1waCcsICc3LjAnLCAnLXRuJywgJzgnLCAnLW1hJywgJzIwMCcsICctaW1hZScsICc8aW5maWxlLm1hZT4nLCAnLW9tYWUnLCAnPG91dGZpbGUubWFlPic=

>  <r_lp_tautomer_probability>  (82) 
1

>  <r_epik_Ionization_Penalty>  (82) 
1.35881e-06

>  <r_epik_Ionization_Penalty_Charging>  (82) 
0

>  <r_epik_Ionization_Penalty_Neutral>  (82) 
1.35881e-06

>  <r_epik_State_Penalty>  (82) 
-0

>  <r_epik_Charging_Adjusted_Penalty>  (82) 
0

>  <i_epik_Tot_Q>  (82) 
0

>  <i_epik_Tot_abs_Q>  (82) 
0

>  <s_lp_Force_Field>  (82) 
OPLS3e

>  <r_lp_Energy>  (82) 
158.963

>  <b_lp_Chiralities_Consistent>  (82) 
1

>  <s_lp_Variant>  (82) 
27:0-1

>  <s_i_glide_gridfile>  (82) 
pfpi4k_grid

>  <i_i_glide_lignum>  (82) 
33

>  <i_i_glide_rotatable_bonds>  (82) 
4

>  <r_i_docking_score>  (82) 
-1.73205

>  <r_i_glide_ligand_efficiency>  (82) 
-0.0444114

>  <r_i_glide_ligand_efficiency_sa>  (82) 
-0.150609

>  <r_i_glide_ligand_efficiency_ln>  (82) 
-0.3714

>  <r_i_glide_gscore>  (82) 
-1.73205

>  <r_i_glide_lipo>  (82) 
-0.29968

>  <r_i_glide_hbond>  (82) 
0

>  <r_i_glide_metal>  (82) 
-0

>  <r_i_glide_rewards>  (82) 
-0.131037

>  <r_i_glide_evdw>  (82) 
-25.556

>  <r_i_glide_ecoul>  (82) 
-0.650585

>  <r_i_glide_erotb>  (82) 
0.126532

>  <r_i_glide_esite>  (82) 
-0.0524707

>  <r_i_glide_emodel>  (82) 
-25.5301

>  <r_i_glide_energy>  (82) 
-26.2066

>  <r_i_glide_einternal>  (82) 
2.44787

>  <r_i_glide_intrahb_reward>  (82) 
-0

>  <i_i_glide_confnum>  (82) 
3

>  <i_i_glide_posenum>  (82) 
11

>  <r_i_glide_eff_state_penalty>  (82) 
0

>  <ligand_id>  (82) 
27

>  <original_smiles>  (82) 
Cn1cnnc1SC1C(=O)CC2(C)C(CCC3(C)C2CCC2C4CCC4(C)CCC(C(C)(C)O)C23C)C1(C)C

>  <smiles>  (82) 
[H]OC(C([H])([H])[H])(C([H])([H])[H])C1([H])C([H])([H])C([H])([H])C2(C([H])([H])[H])C([H])([H])C([H])([H])C2([H])C2([H])C([H])([H])C([H])([H])C3([H])C4(C([H])([H])[H])C([H])([H])C(=O)C([H])(Sc5nnc([H])n5C([H])([H])[H])C(C([H])([H])[H])(C([H])([H])[H])C4([H])C([H])([H])C([H])([H])C3(C([H])([H])[H])C21C([H])([H])[H]

$$$$
28:0:0
     RDKit          3D

 67 72  0  0  1  0  0  0  0  0999 V2000
    5.8025   -4.8812    0.3253 C   0  0  0  0  0  0  0  0  0  0  0  0
    4.8362   -3.7520    0.7660 C   0  0  2  0  0  0  0  0  0  0  0  0
    4.5151   -3.7328    2.2784 C   0  0  1  0  0  0  0  0  0  0  0  0
    5.7637   -3.2872    3.0186 C   0  0  0  0  0  0  0  0  0  0  0  0
    3.5076   -2.7779    2.6097 O   0  0  0  0  0  0  0  0  0  0  0  0
    2.9659   -1.9587    1.6182 C   0  0  0  0  0  0  0  0  0  0  0  0
    1.5820   -1.5620    2.1273 C   0  0  0  0  0  0  0  0  0  0  0  0
    3.8321   -0.6974    1.4392 C   0  0  0  0  0  0  0  0  0  0  0  0
    2.7680   -2.5890    0.3806 O   0  0  0  0  0  0  0  0  0  0  0  0
    3.4848   -3.7757    0.0487 C   0  0  1  0  0  0  0  0  0  0  0  0
    3.6755   -3.7150   -1.4842 C   0  0  0  0  0  0  0  0  0  0  0  0
    2.3731   -3.4593   -2.2783 C   0  0  0  0  0  0  0  0  0  0  0  0
    2.6609   -3.4530   -3.6596 O   0  0  0  0  0  0  0  0  0  0  0  0
    2.6609   -4.9884    0.5018 C   0  0  2  0  0  0  0  0  0  0  0  0
    1.8585   -4.7898    1.6838 O   0  0  0  0  0  0  0  0  0  0  0  0
    2.9554   -5.6677    1.8306 C   0  0  1  0  0  0  0  0  0  0  0  0
    2.5238   -7.0819    2.1605 C   0  0  1  0  0  0  0  0  0  0  0  0
    3.5137   -8.1419    1.6513 C   0  0  0  0  0  0  0  0  0  0  0  0
    2.9361   -9.5770    1.7135 C   0  0  0  0  0  0  0  0  0  0  0  0
    1.7860   -9.7502    2.7404 C   0  0  1  0  0  0  0  0  0  0  0  0
    0.5908   -9.3225    2.0991 O   0  0  0  0  0  0  0  0  0  0  0  0
    1.5960  -11.1980    3.1824 C   0  0  0  0  0  0  0  0  0  0  0  0
    1.1515  -11.5302    4.4099 C   0  0  0  0  0  0  0  0  0  0  0  0
    0.7886  -10.4978    5.3548 C   0  0  0  0  0  0  0  0  0  0  0  0
    1.2013   -9.2342    5.1831 C   0  0  0  0  0  0  0  0  0  0  0  0
    2.0587   -8.8446    3.9799 C   0  0  2  0  0  0  0  0  0  0  0  0
    2.1558   -7.3153    3.6657 C   0  0  2  0  0  0  0  0  0  0  0  0
    0.8893   -6.7312    3.9100 O   0  0  0  0  0  0  0  0  0  0  0  0
    3.1911   -6.6459    4.6007 C   0  0  0  0  0  0  0  0  0  0  0  0
    3.5590   -5.2036    4.2187 C   0  0  0  0  0  0  0  0  0  0  0  0
    4.0374   -5.1415    2.7497 C   0  0  2  0  0  0  0  0  0  0  0  0
    5.3583   -5.8768    0.3905 H   0  0  0  0  0  0  0  0  0  0  0  0
    6.7258   -4.8955    0.9046 H   0  0  0  0  0  0  0  0  0  0  0  0
    6.1148   -4.7315   -0.7061 H   0  0  0  0  0  0  0  0  0  0  0  0
    5.3530   -2.8410    0.4780 H   0  0  0  0  0  0  0  0  0  0  0  0
    6.4668   -4.0984    2.8767 H   0  0  0  0  0  0  0  0  0  0  0  0
    5.5893   -3.1539    4.0877 H   0  0  0  0  0  0  0  0  0  0  0  0
    6.1682   -2.3517    2.6238 H   0  0  0  0  0  0  0  0  0  0  0  0
    0.9957   -2.4643    2.2836 H   0  0  0  0  0  0  0  0  0  0  0  0
    1.0826   -0.9128    1.4068 H   0  0  0  0  0  0  0  0  0  0  0  0
    1.6572   -1.0418    3.0841 H   0  0  0  0  0  0  0  0  0  0  0  0
    4.8485   -0.9272    1.1379 H   0  0  0  0  0  0  0  0  0  0  0  0
    3.8808   -0.1531    2.3830 H   0  0  0  0  0  0  0  0  0  0  0  0
    3.3884   -0.0489    0.6837 H   0  0  0  0  0  0  0  0  0  0  0  0
    4.3566   -2.9024   -1.7289 H   0  0  0  0  0  0  0  0  0  0  0  0
    4.2028   -4.6119   -1.8213 H   0  0  0  0  0  0  0  0  0  0  0  0
    1.6028   -4.2077   -2.0836 H   0  0  0  0  0  0  0  0  0  0  0  0
    1.9443   -2.4865   -2.0288 H   0  0  0  0  0  0  0  0  0  0  0  0
    2.7702   -4.3584   -3.9015 H   0  0  0  0  0  0  0  0  0  0  0  0
    2.1828   -5.5775   -0.2705 H   0  0  0  0  0  0  0  0  0  0  0  0
    1.6255   -7.2038    1.5694 H   0  0  0  0  0  0  0  0  0  0  0  0
    3.8231   -7.9223    0.6259 H   0  0  0  0  0  0  0  0  0  0  0  0
    4.4155   -8.1105    2.2609 H   0  0  0  0  0  0  0  0  0  0  0  0
    2.5845   -9.8681    0.7234 H   0  0  0  0  0  0  0  0  0  0  0  0
    3.7535  -10.2635    1.9515 H   0  0  0  0  0  0  0  0  0  0  0  0
    0.5692   -9.6177    1.1868 H   0  0  0  0  0  0  0  0  0  0  0  0
    1.8959  -11.9860    2.5029 H   0  0  0  0  0  0  0  0  0  0  0  0
    1.0613  -12.5698    4.6937 H   0  0  0  0  0  0  0  0  0  0  0  0
    0.2024  -10.7747    6.2221 H   0  0  0  0  0  0  0  0  0  0  0  0
    0.9544   -8.4714    5.9017 H   0  0  0  0  0  0  0  0  0  0  0  0
    3.0517   -9.1494    4.3128 H   0  0  0  0  0  0  0  0  0  0  0  0
    0.2478   -7.3028    3.5080 H   0  0  0  0  0  0  0  0  0  0  0  0
    2.8542   -6.6794    5.6386 H   0  0  0  0  0  0  0  0  0  0  0  0
    4.1192   -7.2165    4.5621 H   0  0  0  0  0  0  0  0  0  0  0  0
    2.6993   -4.5464    4.3789 H   0  0  0  0  0  0  0  0  0  0  0  0
    4.3508   -4.8589    4.8882 H   0  0  0  0  0  0  0  0  0  0  0  0
    4.8889   -5.8200    2.6771 H   0  0  0  0  0  0  0  0  0  0  0  0
  1  2  1  0
  1 32  1  0
  1 33  1  0
  1 34  1  0
  2 10  1  0
  2  3  1  0
  2 35  1  6
  3 31  1  0
  3  4  1  1
  3  5  1  0
  4 36  1  0
  4 37  1  0
  4 38  1  0
  5  6  1  0
  6  7  1  0
  6  8  1  0
  6  9  1  0
  7 39  1  0
  7 40  1  0
  7 41  1  0
  8 42  1  0
  8 43  1  0
  8 44  1  0
  9 10  1  0
 10 11  1  6
 10 14  1  0
 11 12  1  0
 11 45  1  0
 11 46  1  0
 12 13  1  0
 12 47  1  0
 12 48  1  0
 13 49  1  0
 14 16  1  0
 14 15  1  0
 14 50  1  6
 16 15  1  1
 16 31  1  0
 16 17  1  0
 17 27  1  0
 17 18  1  0
 17 51  1  6
 18 19  1  0
 18 52  1  0
 18 53  1  0
 19 20  1  0
 19 54  1  0
 19 55  1  0
 20 26  1  0
 20 21  1  6
 20 22  1  0
 21 56  1  0
 22 23  2  0
 22 57  1  0
 23 24  1  0
 23 58  1  0
 24 25  2  0
 24 59  1  0
 25 26  1  0
 25 60  1  0
 26 27  1  0
 26 61  1  1
 27 28  1  6
 27 29  1  0
 28 62  1  0
 29 30  1  0
 29 63  1  0
 29 64  1  0
 30 31  1  0
 30 65  1  0
 30 66  1  0
 31 67  1  1
M  END
>  <i_m_ct_stereo_status>  (83) 
1

>  <s_m_source_file>  (83) 
/var/tmp/pbs.5076255.sched01/tmps52fw2z9/0bkrl5082.sdf

>  <i_m_source_file_index>  (83) 
34

>  <i_lp_mmshare_version>  (83) 
48012

>  <i_f3d_flags>  (83) 
0

>  <s_epik_input>  (83) 
W09IXVtDSDJdW0NIMl1bQ0BAXTEoW0NASF0oTzIpW0NAQF0yMzQpW0NASF0oW0NIM10pW0NAQF0oW0NIM10pKE9DKE8xKShbQ0gzXSlbQ0gzXSlbQ0BIXTRbQ0gyXVtDSDJdW0NAQF01KFtPSF0pW0NAQEhdM1tDSDJdW0NIMl1bQ0BdNihbT0hdKVtDQEBIXTVbQ0hdPVtDSF1bQ0hdPVtDSF02

>  <s_epik_cmdline>  (83) 
J2VwaWtfcHl0aG9uJywgJy1waHQnLCAnMi4wJywgJy1waCcsICc3LjAnLCAnLXRuJywgJzgnLCAnLW1hJywgJzIwMCcsICctaW1hZScsICc8aW5maWxlLm1hZT4nLCAnLW9tYWUnLCAnPG91dGZpbGUubWFlPic=

>  <r_lp_tautomer_probability>  (83) 
1

>  <r_epik_Ionization_Penalty>  (83) 
3.75493e-07

>  <r_epik_Ionization_Penalty_Charging>  (83) 
0

>  <r_epik_Ionization_Penalty_Neutral>  (83) 
3.75493e-07

>  <r_epik_State_Penalty>  (83) 
-0

>  <r_epik_Charging_Adjusted_Penalty>  (83) 
0

>  <i_epik_Tot_Q>  (83) 
0

>  <i_epik_Tot_abs_Q>  (83) 
0

>  <s_lp_Force_Field>  (83) 
OPLS3e

>  <r_lp_Energy>  (83) 
63.39

>  <b_lp_Chiralities_Consistent>  (83) 
1

>  <s_lp_Variant>  (83) 
28:0-1

>  <s_i_glide_gridfile>  (83) 
pfpi4k_grid

>  <i_i_glide_lignum>  (83) 
34

>  <i_i_glide_rotatable_bonds>  (83) 
5

>  <r_i_docking_score>  (83) 
-3.53789

>  <r_i_glide_ligand_efficiency>  (83) 
-0.114126

>  <r_i_glide_ligand_efficiency_sa>  (83) 
-0.358512

>  <r_i_glide_ligand_efficiency_ln>  (83) 
-0.797904

>  <r_i_glide_gscore>  (83) 
-3.53789

>  <r_i_glide_lipo>  (83) 
-0.650823

>  <r_i_glide_hbond>  (83) 
-0.169205

>  <r_i_glide_metal>  (83) 
-0

>  <r_i_glide_rewards>  (83) 
-0.959888

>  <r_i_glide_evdw>  (83) 
-17.5037

>  <r_i_glide_ecoul>  (83) 
-7.14343

>  <r_i_glide_erotb>  (83) 
0.212716

>  <r_i_glide_esite>  (83) 
-0.0239937

>  <r_i_glide_emodel>  (83) 
-34.2423

>  <r_i_glide_energy>  (83) 
-24.6471

>  <r_i_glide_einternal>  (83) 
0.898977

>  <r_i_glide_intrahb_reward>  (83) 
-0.5

>  <i_i_glide_confnum>  (83) 
6

>  <i_i_glide_posenum>  (83) 
1

>  <r_i_glide_eff_state_penalty>  (83) 
0

>  <ligand_id>  (83) 
28

>  <original_smiles>  (83) 
CC1C2(C)OC(C)(C)OC1(CCO)C1OC13C1CCC4(O)C=CC=CC4C1(O)CCC23

>  <smiles>  (83) 
[H]OC([H])([H])C([H])([H])C12OC(C([H])([H])[H])(C([H])([H])[H])OC(C([H])([H])[H])(C1([H])C([H])([H])[H])C1([H])C([H])([H])C([H])([H])C3(O[H])C4([H])C([H])=C([H])C([H])=C([H])C4(O[H])C([H])([H])C([H])([H])C3([H])C13OC23[H]

$$$$
28:0:1
     RDKit          3D

 67 72  0  0  1  0  0  0  0  0999 V2000
    5.7986   -4.6532   -0.1992 C   0  0  0  0  0  0  0  0  0  0  0  0
    4.9695   -3.4535    0.3006 C   0  0  2  0  0  0  0  0  0  0  0  0
    4.8225   -3.3954    1.8408 C   0  0  1  0  0  0  0  0  0  0  0  0
    6.1513   -2.9996    2.4413 C   0  0  0  0  0  0  0  0  0  0  0  0
    3.9173   -2.3690    2.2518 O   0  0  0  0  0  0  0  0  0  0  0  0
    3.3352   -1.5174    1.3098 C   0  0  0  0  0  0  0  0  0  0  0  0
    2.0231   -1.0336    1.9410 C   0  0  0  0  0  0  0  0  0  0  0  0
    4.2717   -0.3288    1.0405 C   0  0  0  0  0  0  0  0  0  0  0  0
    3.0121   -2.1258    0.0831 O   0  0  0  0  0  0  0  0  0  0  0  0
    3.5543   -3.3945   -0.2713 C   0  0  1  0  0  0  0  0  0  0  0  0
    3.5507   -3.3662   -1.8259 C   0  0  0  0  0  0  0  0  0  0  0  0
    2.1787   -3.2478   -2.5002 C   0  0  0  0  0  0  0  0  0  0  0  0
    2.2965   -3.4388   -3.8912 O   0  0  0  0  0  0  0  0  0  0  0  0
    2.6936   -4.5244    0.3175 C   0  0  2  0  0  0  0  0  0  0  0  0
    2.0872   -4.2445    1.6012 O   0  0  0  0  0  0  0  0  0  0  0  0
    3.1025   -5.2189    1.6160 C   0  0  1  0  0  0  0  0  0  0  0  0
    2.5800   -6.5884    1.9984 C   0  0  1  0  0  0  0  0  0  0  0  0
    3.4407   -7.7288    1.4286 C   0  0  0  0  0  0  0  0  0  0  0  0
    2.7642   -9.1210    1.5608 C   0  0  0  0  0  0  0  0  0  0  0  0
    1.7086   -9.1978    2.6976 C   0  0  1  0  0  0  0  0  0  0  0  0
    0.4784   -8.7365    2.1659 O   0  0  0  0  0  0  0  0  0  0  0  0
    1.4736  -10.6223    3.1860 C   0  0  0  0  0  0  0  0  0  0  0  0
    1.1505  -10.9194    4.4558 C   0  0  0  0  0  0  0  0  0  0  0  0
    0.9741   -9.8618    5.4305 C   0  0  0  0  0  0  0  0  0  0  0  0
    1.4301   -8.6219    5.1815 C   0  0  0  0  0  0  0  0  0  0  0  0
    2.1646   -8.2914    3.8849 C   0  0  2  0  0  0  0  0  0  0  0  0
    2.3542   -6.7748    3.5435 C   0  0  2  0  0  0  0  0  0  0  0  0
    1.1972   -6.0431    3.9226 O   0  0  0  0  0  0  0  0  0  0  0  0
    3.5327   -6.1719    4.3453 C   0  0  0  0  0  0  0  0  0  0  0  0
    3.9585   -4.7661    3.8993 C   0  0  0  0  0  0  0  0  0  0  0  0
    4.3056   -4.7568    2.3897 C   0  0  2  0  0  0  0  0  0  0  0  0
    5.2941   -5.6141   -0.0740 H   0  0  0  0  0  0  0  0  0  0  0  0
    6.7762   -4.7178    0.2807 H   0  0  0  0  0  0  0  0  0  0  0  0
    5.9804   -4.5154   -1.2612 H   0  0  0  0  0  0  0  0  0  0  0  0
    5.5129   -2.5878   -0.0588 H   0  0  0  0  0  0  0  0  0  0  0  0
    6.8340   -3.8286    2.2666 H   0  0  0  0  0  0  0  0  0  0  0  0
    6.0303   -2.7975    3.5050 H   0  0  0  0  0  0  0  0  0  0  0  0
    6.5677   -2.1001    1.9856 H   0  0  0  0  0  0  0  0  0  0  0  0
    1.3584   -1.8744    2.1403 H   0  0  0  0  0  0  0  0  0  0  0  0
    1.5046   -0.3325    1.2846 H   0  0  0  0  0  0  0  0  0  0  0  0
    2.2265   -0.5255    2.8884 H   0  0  0  0  0  0  0  0  0  0  0  0
    5.2287   -0.6300    0.6333 H   0  0  0  0  0  0  0  0  0  0  0  0
    4.4456    0.2263    1.9640 H   0  0  0  0  0  0  0  0  0  0  0  0
    3.8169    0.3431    0.3168 H   0  0  0  0  0  0  0  0  0  0  0  0
    4.1634   -2.5379   -2.1644 H   0  0  0  0  0  0  0  0  0  0  0  0
    4.0465   -4.2591   -2.2195 H   0  0  0  0  0  0  0  0  0  0  0  0
    1.4703   -3.9962   -2.1438 H   0  0  0  0  0  0  0  0  0  0  0  0
    1.7499   -2.2630   -2.3321 H   0  0  0  0  0  0  0  0  0  0  0  0
    1.4711   -3.7916   -4.1779 H   0  0  0  0  0  0  0  0  0  0  0  0
    2.1071   -5.1214   -0.3604 H   0  0  0  0  0  0  0  0  0  0  0  0
    1.6204   -6.6626    1.5128 H   0  0  0  0  0  0  0  0  0  0  0  0
    3.6916   -7.5083    0.3898 H   0  0  0  0  0  0  0  0  0  0  0  0
    4.3928   -7.7534    1.9489 H   0  0  0  0  0  0  0  0  0  0  0  0
    2.2993   -9.4192    0.6213 H   0  0  0  0  0  0  0  0  0  0  0  0
    3.5540   -9.8581    1.7298 H   0  0  0  0  0  0  0  0  0  0  0  0
    0.2433   -9.2853    1.4255 H   0  0  0  0  0  0  0  0  0  0  0  0
    1.6177  -11.4287    2.4824 H   0  0  0  0  0  0  0  0  0  0  0  0
    1.0111  -11.9508    4.7565 H   0  0  0  0  0  0  0  0  0  0  0  0
    0.4687  -10.0913    6.3605 H   0  0  0  0  0  0  0  0  0  0  0  0
    1.3111   -7.8261    5.9012 H   0  0  0  0  0  0  0  0  0  0  0  0
    3.1656   -8.6630    4.1118 H   0  0  0  0  0  0  0  0  0  0  0  0
    1.3749   -5.1273    3.7664 H   0  0  0  0  0  0  0  0  0  0  0  0
    3.3044   -6.1707    5.4141 H   0  0  0  0  0  0  0  0  0  0  0  0
    4.4049   -6.8135    4.2177 H   0  0  0  0  0  0  0  0  0  0  0  0
    3.1753   -4.0378    4.1344 H   0  0  0  0  0  0  0  0  0  0  0  0
    4.8377   -4.4692    4.4747 H   0  0  0  0  0  0  0  0  0  0  0  0
    5.0892   -5.5057    2.2446 H   0  0  0  0  0  0  0  0  0  0  0  0
  1  2  1  0
  1 32  1  0
  1 33  1  0
  1 34  1  0
  2 10  1  0
  2  3  1  0
  2 35  1  6
  3 31  1  0
  3  4  1  1
  3  5  1  0
  4 36  1  0
  4 37  1  0
  4 38  1  0
  5  6  1  0
  6  7  1  0
  6  8  1  0
  6  9  1  0
  7 39  1  0
  7 40  1  0
  7 41  1  0
  8 42  1  0
  8 43  1  0
  8 44  1  0
  9 10  1  0
 10 11  1  6
 10 14  1  0
 11 12  1  0
 11 45  1  0
 11 46  1  0
 12 13  1  0
 12 47  1  0
 12 48  1  0
 13 49  1  0
 14 16  1  0
 14 15  1  0
 14 50  1  6
 16 15  1  1
 16 31  1  0
 16 17  1  0
 17 27  1  0
 17 18  1  0
 17 51  1  6
 18 19  1  0
 18 52  1  0
 18 53  1  0
 19 20  1  0
 19 54  1  0
 19 55  1  0
 20 26  1  0
 20 21  1  6
 20 22  1  0
 21 56  1  0
 22 23  2  0
 22 57  1  0
 23 24  1  0
 23 58  1  0
 24 25  2  0
 24 59  1  0
 25 26  1  0
 25 60  1  0
 26 27  1  0
 26 61  1  1
 27 28  1  1
 27 29  1  0
 28 62  1  0
 29 30  1  0
 29 63  1  0
 29 64  1  0
 30 31  1  0
 30 65  1  0
 30 66  1  0
 31 67  1  1
M  END
>  <i_m_ct_stereo_status>  (84) 
1

>  <s_m_source_file>  (84) 
/var/tmp/pbs.5076255.sched01/tmps52fw2z9/0bkrl5082.sdf

>  <i_m_source_file_index>  (84) 
34

>  <i_lp_mmshare_version>  (84) 
48012

>  <i_f3d_flags>  (84) 
0

>  <s_epik_input>  (84) 
W09IXVtDSDJdW0NIMl1bQ0BAXTEoW0NASF0oTzIpW0NAQF0yMzQpW0NASF0oW0NIM10pW0NAQF0oW0NIM10pKE9DKE8xKShbQ0gzXSlbQ0gzXSlbQ0BIXTRbQ0gyXVtDSDJdW0NAQF01KFtPSF0pW0NAQEhdM1tDSDJdW0NIMl1bQ0BdNihbT0hdKVtDQEBIXTVbQ0hdPVtDSF1bQ0hdPVtDSF02

>  <s_epik_cmdline>  (84) 
J2VwaWtfcHl0aG9uJywgJy1waHQnLCAnMi4wJywgJy1waCcsICc3LjAnLCAnLXRuJywgJzgnLCAnLW1hJywgJzIwMCcsICctaW1hZScsICc8aW5maWxlLm1hZT4nLCAnLW9tYWUnLCAnPG91dGZpbGUubWFlPic=

>  <r_lp_tautomer_probability>  (84) 
1

>  <r_epik_Ionization_Penalty>  (84) 
3.75493e-07

>  <r_epik_Ionization_Penalty_Charging>  (84) 
0

>  <r_epik_Ionization_Penalty_Neutral>  (84) 
3.75493e-07

>  <r_epik_State_Penalty>  (84) 
-0

>  <r_epik_Charging_Adjusted_Penalty>  (84) 
0

>  <i_epik_Tot_Q>  (84) 
0

>  <i_epik_Tot_abs_Q>  (84) 
0

>  <s_lp_Force_Field>  (84) 
OPLS3e

>  <r_lp_Energy>  (84) 
63.39

>  <b_lp_Chiralities_Consistent>  (84) 
1

>  <s_lp_Variant>  (84) 
28:0-1

>  <s_i_glide_gridfile>  (84) 
pfpi4k_grid

>  <i_i_glide_lignum>  (84) 
34

>  <i_i_glide_rotatable_bonds>  (84) 
5

>  <r_i_docking_score>  (84) 
-3.2456

>  <r_i_glide_ligand_efficiency>  (84) 
-0.104697

>  <r_i_glide_ligand_efficiency_sa>  (84) 
-0.328893

>  <r_i_glide_ligand_efficiency_ln>  (84) 
-0.731983

>  <r_i_glide_gscore>  (84) 
-3.2456

>  <r_i_glide_lipo>  (84) 
-0.691597

>  <r_i_glide_hbond>  (84) 
-0.304

>  <r_i_glide_metal>  (84) 
-0

>  <r_i_glide_rewards>  (84) 
-0.459888

>  <r_i_glide_evdw>  (84) 
-19.1918

>  <r_i_glide_ecoul>  (84) 
-6.75525

>  <r_i_glide_erotb>  (84) 
0.212716

>  <r_i_glide_esite>  (84) 
-0.0299564

>  <r_i_glide_emodel>  (84) 
-30.0554

>  <r_i_glide_energy>  (84) 
-25.9471

>  <r_i_glide_einternal>  (84) 
1.28815

>  <r_i_glide_intrahb_reward>  (84) 
-0

>  <i_i_glide_confnum>  (84) 
5

>  <i_i_glide_posenum>  (84) 
8

>  <r_i_glide_eff_state_penalty>  (84) 
0

>  <ligand_id>  (84) 
28

>  <original_smiles>  (84) 
CC1C2(C)OC(C)(C)OC1(CCO)C1OC13C1CCC4(O)C=CC=CC4C1(O)CCC23

>  <smiles>  (84) 
[H]OC([H])([H])C([H])([H])C12OC(C([H])([H])[H])(C([H])([H])[H])OC(C([H])([H])[H])(C1([H])C([H])([H])[H])C1([H])C([H])([H])C([H])([H])C3(O[H])C4([H])C([H])=C([H])C([H])=C([H])C4(O[H])C([H])([H])C([H])([H])C3([H])C13OC23[H]

$$$$
28:0:2
     RDKit          3D

 67 72  0  0  1  0  0  0  0  0999 V2000
    4.9348   -4.9618   -1.0300 C   0  0  0  0  0  0  0  0  0  0  0  0
    5.2522   -3.6916   -0.2372 C   0  0  2  0  0  0  0  0  0  0  0  0
    5.8043   -3.9479    1.1783 C   0  0  1  0  0  0  0  0  0  0  0  0
    7.2621   -4.4571    1.0741 C   0  0  0  0  0  0  0  0  0  0  0  0
    5.8574   -2.7190    1.9087 O   0  0  0  0  0  0  0  0  0  0  0  0
    5.5242   -1.4885    1.3125 C   0  0  0  0  0  0  0  0  0  0  0  0
    5.1211   -0.5646    2.4649 C   0  0  0  0  0  0  0  0  0  0  0  0
    6.7414   -0.9178    0.5718 C   0  0  0  0  0  0  0  0  0  0  0  0
    4.4282   -1.5183    0.4369 O   0  0  0  0  0  0  0  0  0  0  0  0
    4.0390   -2.7662   -0.1221 C   0  0  1  0  0  0  0  0  0  0  0  0
    3.4096   -2.4088   -1.4968 C   0  0  0  0  0  0  0  0  0  0  0  0
    4.3984   -1.8321   -2.5355 C   0  0  0  0  0  0  0  0  0  0  0  0
    3.7590   -1.5762   -3.7641 O   0  0  0  0  0  0  0  0  0  0  0  0
    2.9983   -3.3823    0.8302 C   0  0  2  0  0  0  0  0  0  0  0  0
    3.1801   -3.1285    2.2405 O   0  0  0  0  0  0  0  0  0  0  0  0
    3.4043   -4.4621    1.8296 C   0  0  1  0  0  0  0  0  0  0  0  0
    2.4338   -5.4532    2.4608 C   0  0  1  0  0  0  0  0  0  0  0  0
    2.1738   -6.6941    1.5872 C   0  0  0  0  0  0  0  0  0  0  0  0
    0.9817   -7.5507    2.0871 C   0  0  0  0  0  0  0  0  0  0  0  0
    0.6572   -7.3726    3.5909 C   0  0  1  0  0  0  0  0  0  0  0  0
   -0.1942   -6.2574    3.7125 O   0  0  0  0  0  0  0  0  0  0  0  0
   -0.1184   -8.5417    4.1763 C   0  0  0  0  0  0  0  0  0  0  0  0
    0.0047   -8.9127    5.4616 C   0  0  0  0  0  0  0  0  0  0  0  0
    0.8607   -8.1685    6.3717 C   0  0  0  0  0  0  0  0  0  0  0  0
    1.7835   -7.3167    5.8864 C   0  0  0  0  0  0  0  0  0  0  0  0
    1.9722   -7.1212    4.3851 C   0  0  2  0  0  0  0  0  0  0  0  0
    2.8048   -5.8723    3.9311 C   0  0  2  0  0  0  0  0  0  0  0  0
    2.5246   -4.7776    4.7861 O   0  0  0  0  0  0  0  0  0  0  0  0
    4.3184   -6.1613    4.0688 C   0  0  0  0  0  0  0  0  0  0  0  0
    5.2308   -5.1056    3.4297 C   0  0  0  0  0  0  0  0  0  0  0  0
    4.8509   -4.9050    1.9458 C   0  0  2  0  0  0  0  0  0  0  0  0
    4.0787   -5.5238   -0.6587 H   0  0  0  0  0  0  0  0  0  0  0  0
    5.7827   -5.6211   -0.9619 H   0  0  0  0  0  0  0  0  0  0  0  0
    4.7499   -4.7389   -2.0832 H   0  0  0  0  0  0  0  0  0  0  0  0
    6.0359   -3.2076   -0.8035 H   0  0  0  0  0  0  0  0  0  0  0  0
    7.3137   -5.4604    0.6491 H   0  0  0  0  0  0  0  0  0  0  0  0
    7.7483   -4.4883    2.0484 H   0  0  0  0  0  0  0  0  0  0  0  0
    7.8661   -3.8053    0.4369 H   0  0  0  0  0  0  0  0  0  0  0  0
    4.2646   -0.9776    3.0002 H   0  0  0  0  0  0  0  0  0  0  0  0
    4.8309    0.4182    2.0832 H   0  0  0  0  0  0  0  0  0  0  0  0
    5.9491   -0.4537    3.1728 H   0  0  0  0  0  0  0  0  0  0  0  0
    7.1003   -1.5594   -0.2203 H   0  0  0  0  0  0  0  0  0  0  0  0
    7.5604   -0.7976    1.2789 H   0  0  0  0  0  0  0  0  0  0  0  0
    6.4875    0.0546    0.1430 H   0  0  0  0  0  0  0  0  0  0  0  0
    2.8879   -3.2722   -1.9090 H   0  0  0  0  0  0  0  0  0  0  0  0
    2.6599   -1.6613   -1.3277 H   0  0  0  0  0  0  0  0  0  0  0  0
    4.8363   -0.9051   -2.1527 H   0  0  0  0  0  0  0  0  0  0  0  0
    5.2070   -2.5163   -2.7850 H   0  0  0  0  0  0  0  0  0  0  0  0
    3.0030   -1.0265   -3.5993 H   0  0  0  0  0  0  0  0  0  0  0  0
    1.9743   -3.3643    0.4967 H   0  0  0  0  0  0  0  0  0  0  0  0
    1.5023   -4.9183    2.5023 H   0  0  0  0  0  0  0  0  0  0  0  0
    2.0020   -6.3935    0.5520 H   0  0  0  0  0  0  0  0  0  0  0  0
    3.0599   -7.3227    1.5865 H   0  0  0  0  0  0  0  0  0  0  0  0
    0.0922   -7.3305    1.4969 H   0  0  0  0  0  0  0  0  0  0  0  0
    1.2125   -8.6027    1.8855 H   0  0  0  0  0  0  0  0  0  0  0  0
   -0.2932   -6.0988    4.6388 H   0  0  0  0  0  0  0  0  0  0  0  0
   -0.7637   -9.0937    3.5058 H   0  0  0  0  0  0  0  0  0  0  0  0
   -0.5580   -9.7602    5.8323 H   0  0  0  0  0  0  0  0  0  0  0  0
    0.7591   -8.3216    7.4367 H   0  0  0  0  0  0  0  0  0  0  0  0
    2.4400   -6.7710    6.5449 H   0  0  0  0  0  0  0  0  0  0  0  0
    2.5835   -7.9909    4.1338 H   0  0  0  0  0  0  0  0  0  0  0  0
    2.9898   -4.0237    4.4453 H   0  0  0  0  0  0  0  0  0  0  0  0
    4.5950   -6.2925    5.1193 H   0  0  0  0  0  0  0  0  0  0  0  0
    4.5466   -7.1053    3.5723 H   0  0  0  0  0  0  0  0  0  0  0  0
    5.1702   -4.1608    3.9827 H   0  0  0  0  0  0  0  0  0  0  0  0
    6.2697   -5.4470    3.5071 H   0  0  0  0  0  0  0  0  0  0  0  0
    4.9395   -5.8847    1.4753 H   0  0  0  0  0  0  0  0  0  0  0  0
  1  2  1  0
  1 32  1  0
  1 33  1  0
  1 34  1  0
  2 10  1  0
  2  3  1  0
  2 35  1  6
  3 31  1  0
  3  4  1  6
  3  5  1  0
  4 36  1  0
  4 37  1  0
  4 38  1  0
  5  6  1  0
  6  7  1  0
  6  8  1  0
  6  9  1  0
  7 39  1  0
  7 40  1  0
  7 41  1  0
  8 42  1  0
  8 43  1  0
  8 44  1  0
  9 10  1  0
 10 11  1  6
 10 14  1  0
 11 12  1  0
 11 45  1  0
 11 46  1  0
 12 13  1  0
 12 47  1  0
 12 48  1  0
 13 49  1  0
 14 16  1  0
 14 15  1  0
 14 50  1  6
 16 15  1  1
 16 31  1  0
 16 17  1  0
 17 27  1  0
 17 18  1  0
 17 51  1  1
 18 19  1  0
 18 52  1  0
 18 53  1  0
 19 20  1  0
 19 54  1  0
 19 55  1  0
 20 26  1  0
 20 21  1  6
 20 22  1  0
 21 56  1  0
 22 23  2  0
 22 57  1  0
 23 24  1  0
 23 58  1  0
 24 25  2  0
 24 59  1  0
 25 26  1  0
 25 60  1  0
 26 27  1  0
 26 61  1  6
 27 28  1  1
 27 29  1  0
 28 62  1  0
 29 30  1  0
 29 63  1  0
 29 64  1  0
 30 31  1  0
 30 65  1  0
 30 66  1  0
 31 67  1  6
M  END
>  <i_m_ct_stereo_status>  (85) 
1

>  <s_m_source_file>  (85) 
/var/tmp/pbs.5076255.sched01/tmps52fw2z9/0bkrl5082.sdf

>  <i_m_source_file_index>  (85) 
34

>  <i_lp_mmshare_version>  (85) 
48012

>  <i_f3d_flags>  (85) 
0

>  <s_epik_input>  (85) 
W09IXVtDSDJdW0NIMl1bQ0BAXTEoW0NASF0oTzIpW0NAQF0yMzQpW0NASF0oW0NIM10pW0NAQF0oW0NIM10pKE9DKE8xKShbQ0gzXSlbQ0gzXSlbQ0BIXTRbQ0gyXVtDSDJdW0NAQF01KFtPSF0pW0NAQEhdM1tDSDJdW0NIMl1bQ0BdNihbT0hdKVtDQEBIXTVbQ0hdPVtDSF1bQ0hdPVtDSF02

>  <s_epik_cmdline>  (85) 
J2VwaWtfcHl0aG9uJywgJy1waHQnLCAnMi4wJywgJy1waCcsICc3LjAnLCAnLXRuJywgJzgnLCAnLW1hJywgJzIwMCcsICctaW1hZScsICc8aW5maWxlLm1hZT4nLCAnLW9tYWUnLCAnPG91dGZpbGUubWFlPic=

>  <r_lp_tautomer_probability>  (85) 
1

>  <r_epik_Ionization_Penalty>  (85) 
3.75493e-07

>  <r_epik_Ionization_Penalty_Charging>  (85) 
0

>  <r_epik_Ionization_Penalty_Neutral>  (85) 
3.75493e-07

>  <r_epik_State_Penalty>  (85) 
-0

>  <r_epik_Charging_Adjusted_Penalty>  (85) 
0

>  <i_epik_Tot_Q>  (85) 
0

>  <i_epik_Tot_abs_Q>  (85) 
0

>  <s_lp_Force_Field>  (85) 
OPLS3e

>  <r_lp_Energy>  (85) 
63.39

>  <b_lp_Chiralities_Consistent>  (85) 
1

>  <s_lp_Variant>  (85) 
28:0-1

>  <s_i_glide_gridfile>  (85) 
pfpi4k_grid

>  <i_i_glide_lignum>  (85) 
34

>  <i_i_glide_rotatable_bonds>  (85) 
5

>  <r_i_docking_score>  (85) 
-2.56345

>  <r_i_glide_ligand_efficiency>  (85) 
-0.082692

>  <r_i_glide_ligand_efficiency_sa>  (85) 
-0.259767

>  <r_i_glide_ligand_efficiency_ln>  (85) 
-0.578137

>  <r_i_glide_gscore>  (85) 
-2.56345

>  <r_i_glide_lipo>  (85) 
-0.415392

>  <r_i_glide_hbond>  (85) 
0

>  <r_i_glide_metal>  (85) 
-0

>  <r_i_glide_rewards>  (85) 
-0.636803

>  <r_i_glide_evdw>  (85) 
-21.6205

>  <r_i_glide_ecoul>  (85) 
-4.28633

>  <r_i_glide_erotb>  (85) 
0.212716

>  <r_i_glide_esite>  (85) 
0

>  <r_i_glide_emodel>  (85) 
-29.3606

>  <r_i_glide_energy>  (85) 
-25.9068

>  <r_i_glide_einternal>  (85) 
0.827884

>  <r_i_glide_intrahb_reward>  (85) 
-0

>  <i_i_glide_confnum>  (85) 
2

>  <i_i_glide_posenum>  (85) 
11

>  <r_i_glide_eff_state_penalty>  (85) 
0

>  <ligand_id>  (85) 
28

>  <original_smiles>  (85) 
CC1C2(C)OC(C)(C)OC1(CCO)C1OC13C1CCC4(O)C=CC=CC4C1(O)CCC23

>  <smiles>  (85) 
[H]OC([H])([H])C([H])([H])C12OC(C([H])([H])[H])(C([H])([H])[H])OC(C([H])([H])[H])(C1([H])C([H])([H])[H])C1([H])C([H])([H])C([H])([H])C3(O[H])C4([H])C([H])=C([H])C([H])=C([H])C4(O[H])C([H])([H])C([H])([H])C3([H])C13OC23[H]

$$$$
29:0:0
     RDKit          3D

 29 33  0  0  1  0  0  0  0  0999 V2000
    2.8761   -2.0061   -3.5112 C   0  0  0  0  0  0  0  0  0  0  0  0
    2.9699   -3.0772   -2.6347 C   0  0  0  0  0  0  0  0  0  0  0  0
    4.2193   -3.0051   -1.9354 C   0  0  0  0  0  0  0  0  0  0  0  0
    4.9360   -1.9068   -2.2758 C   0  0  0  0  0  0  0  0  0  0  0  0
    6.1343   -1.8648   -1.5607 N   0  0  0  0  0  0  0  0  0  0  0  0
    6.1002   -2.9914   -0.7948 C   0  0  0  0  0  0  0  0  0  0  0  0
    7.0495   -3.4093    0.0767 N   0  0  0  0  0  0  0  0  0  0  0  0
    6.7867   -4.5560    0.7347 C   0  0  0  0  0  0  0  0  0  0  0  0
    7.7360   -5.0562    1.6566 C   0  0  0  0  0  0  0  0  0  0  0  0
    7.5274   -6.2455    2.3770 C   0  0  0  0  0  0  0  0  0  0  0  0
    6.3285   -6.9657    2.1969 C   0  0  0  0  0  0  0  0  0  0  0  0
    5.3771   -6.4920    1.2724 C   0  0  0  0  0  0  0  0  0  0  0  0
    5.5917   -5.3016    0.5477 C   0  0  0  0  0  0  0  0  0  0  0  0
    4.5834   -4.8924   -0.3558 C   0  0  0  0  0  0  0  0  0  0  0  0
    4.8824   -3.7128   -1.0227 N   0  0  0  0  0  0  0  0  0  0  0  0
    6.0648   -8.1198    2.9002 O   0  0  0  0  0  0  0  0  0  0  0  0
    6.8976   -8.3245    4.0387 C   0  0  0  0  0  0  0  0  0  0  0  0
    8.3606   -8.0370    3.6727 C   0  0  0  0  0  0  0  0  0  0  0  0
    8.4909   -6.6797    3.2622 O   0  0  0  0  0  0  0  0  0  0  0  0
    4.2123   -0.8562   -3.4597 S   0  0  0  0  0  0  0  0  0  0  0  0
    2.0458   -1.8136   -4.1800 H   0  0  0  0  0  0  0  0  0  0  0  0
    2.2702   -3.8788   -2.4725 H   0  0  0  0  0  0  0  0  0  0  0  0
    8.6576   -4.5111    1.8262 H   0  0  0  0  0  0  0  0  0  0  0  0
    4.4680   -7.0571    1.1329 H   0  0  0  0  0  0  0  0  0  0  0  0
    3.6550   -5.4076   -0.5513 H   0  0  0  0  0  0  0  0  0  0  0  0
    6.5743   -7.6795    4.8576 H   0  0  0  0  0  0  0  0  0  0  0  0
    6.7886   -9.3549    4.3833 H   0  0  0  0  0  0  0  0  0  0  0  0
    9.0147   -8.2218    4.5253 H   0  0  0  0  0  0  0  0  0  0  0  0
    8.6957   -8.6978    2.8770 H   0  0  0  0  0  0  0  0  0  0  0  0
  1 20  1  0
  1  2  2  0
  1 21  1  0
  2  3  1  0
  2 22  1  0
  3 15  1  0
  3  4  2  0
  4  5  1  0
  4 20  1  0
  5  6  2  0
  6 15  1  0
  6  7  1  0
  7  8  2  0
  8 13  1  0
  8  9  1  0
  9 10  2  0
  9 23  1  0
 10 19  1  0
 10 11  1  0
 11 12  2  0
 11 16  1  0
 12 13  1  0
 12 24  1  0
 13 14  2  0
 14 15  1  0
 14 25  1  0
 16 17  1  0
 17 18  1  0
 17 26  1  0
 17 27  1  0
 18 19  1  0
 18 28  1  0
 18 29  1  0
M  END
>  <i_m_ct_stereo_status>  (86) 
1

>  <s_m_source_file>  (86) 
/var/tmp/pbs.5076255.sched01/tmps52fw2z9/0bkrl5082.sdf

>  <i_m_source_file_index>  (86) 
35

>  <i_lp_mmshare_version>  (86) 
48012

>  <i_f3d_flags>  (86) 
0

>  <s_epik_input>  (86) 
W2NIXTFbY0hdc2MoYzEyKW5jM24yW2NIXWM0YyhuMylbY0hdYzVjKFtjSF00KU9bQ0gyXVtDSDJdTzU=

>  <s_epik_cmdline>  (86) 
J2VwaWtfcHl0aG9uJywgJy1waHQnLCAnMi4wJywgJy1waCcsICc3LjAnLCAnLXRuJywgJzgnLCAnLW1hJywgJzIwMCcsICctaW1hZScsICc8aW5maWxlLm1hZT4nLCAnLW9tYWUnLCAnPG91dGZpbGUubWFlPic=

>  <r_lp_tautomer_probability>  (86) 
1

>  <r_epik_Ionization_Penalty>  (86) 
0.000244817

>  <r_epik_Ionization_Penalty_Charging>  (86) 
0.000244817

>  <r_epik_Ionization_Penalty_Neutral>  (86) 
2.63117e-16

>  <r_epik_State_Penalty>  (86) 
-0

>  <r_epik_Charging_Adjusted_Penalty>  (86) 
0.000244817

>  <i_epik_Tot_Q>  (86) 
0

>  <i_epik_Tot_abs_Q>  (86) 
0

>  <s_lp_Force_Field>  (86) 
OPLS3e

>  <r_lp_Energy>  (86) 
30.6395

>  <b_lp_Chiralities_Consistent>  (86) 
1

>  <s_lp_Variant>  (86) 
29:0-1

>  <s_i_glide_gridfile>  (86) 
pfpi4k_grid

>  <i_i_glide_lignum>  (86) 
35

>  <i_i_glide_rotatable_bonds>  (86) 
0

>  <r_i_docking_score>  (86) 
-4.45519

>  <r_i_glide_ligand_efficiency>  (86) 
-0.22276

>  <r_i_glide_ligand_efficiency_sa>  (86) 
-0.604663

>  <r_i_glide_ligand_efficiency_ln>  (86) 
-1.11499

>  <r_i_glide_gscore>  (86) 
-4.45519

>  <r_i_glide_lipo>  (86) 
-0.836045

>  <r_i_glide_hbond>  (86) 
-0.132705

>  <r_i_glide_metal>  (86) 
-0

>  <r_i_glide_rewards>  (86) 
-1.54856

>  <r_i_glide_evdw>  (86) 
-25.6517

>  <r_i_glide_ecoul>  (86) 
-4.36867

>  <r_i_glide_erotb>  (86) 
0

>  <r_i_glide_esite>  (86) 
0

>  <r_i_glide_emodel>  (86) 
-39.9253

>  <r_i_glide_energy>  (86) 
-30.0203

>  <r_i_glide_einternal>  (86) 
0

>  <r_i_glide_intrahb_reward>  (86) 
-0

>  <i_i_glide_confnum>  (86) 
1

>  <i_i_glide_posenum>  (86) 
40

>  <r_i_glide_eff_state_penalty>  (86) 
0

>  <ligand_id>  (86) 
29

>  <original_smiles>  (86) 
c1cc2c(nc3nc4cc5c(cc4cn32)OCCO5)s1

>  <smiles>  (86) 
[H]c1sc2nc3nc4c([H])c5c(c([H])c4c([H])n3c2c1[H])OC([H])([H])C([H])([H])O5

$$$$
29:0:1
     RDKit          3D

 29 33  0  0  1  0  0  0  0  0999 V2000
   -0.1595   -9.4351    3.4728 C   0  0  0  0  0  0  0  0  0  0  0  0
    1.1714   -9.0355    3.4101 C   0  0  0  0  0  0  0  0  0  0  0  0
    1.2770   -7.9323    2.5003 C   0  0  0  0  0  0  0  0  0  0  0  0
    0.0767   -7.5869    1.9667 C   0  0  0  0  0  0  0  0  0  0  0  0
    0.2322   -6.5133    1.0900 N   0  0  0  0  0  0  0  0  0  0  0  0
    1.5673   -6.2483    1.1273 C   0  0  0  0  0  0  0  0  0  0  0  0
    2.2171   -5.2733    0.4467 N   0  0  0  0  0  0  0  0  0  0  0  0
    3.5496   -5.1892    0.6484 C   0  0  0  0  0  0  0  0  0  0  0  0
    4.2921   -4.1969   -0.0397 C   0  0  0  0  0  0  0  0  0  0  0  0
    5.6842   -4.0494    0.1335 C   0  0  0  0  0  0  0  0  0  0  0  0
    6.3707   -4.9295    1.0013 C   0  0  0  0  0  0  0  0  0  0  0  0
    5.6459   -5.9105    1.7002 C   0  0  0  0  0  0  0  0  0  0  0  0
    4.2504   -6.0542    1.5304 C   0  0  0  0  0  0  0  0  0  0  0  0
    3.5999   -7.0769    2.2594 C   0  0  0  0  0  0  0  0  0  0  0  0
    2.2309   -7.1395    2.0273 N   0  0  0  0  0  0  0  0  0  0  0  0
    7.7335   -4.8457    1.1823 O   0  0  0  0  0  0  0  0  0  0  0  0
    8.4196   -4.0749    0.2023 C   0  0  0  0  0  0  0  0  0  0  0  0
    7.6612   -2.7672   -0.0548 C   0  0  0  0  0  0  0  0  0  0  0  0
    6.3564   -3.0577   -0.5482 O   0  0  0  0  0  0  0  0  0  0  0  0
   -1.3020   -8.5082    2.4802 S   0  0  0  0  0  0  0  0  0  0  0  0
   -0.5533  -10.2476    4.0735 H   0  0  0  0  0  0  0  0  0  0  0  0
    2.0343   -9.4324    3.9205 H   0  0  0  0  0  0  0  0  0  0  0  0
    3.7863   -3.5211   -0.7165 H   0  0  0  0  0  0  0  0  0  0  0  0
    6.1772   -6.5690    2.3694 H   0  0  0  0  0  0  0  0  0  0  0  0
    4.0655   -7.7670    2.9472 H   0  0  0  0  0  0  0  0  0  0  0  0
    9.4260   -3.8581    0.5570 H   0  0  0  0  0  0  0  0  0  0  0  0
    8.5308   -4.6504   -0.7181 H   0  0  0  0  0  0  0  0  0  0  0  0
    7.5894   -2.1757    0.8591 H   0  0  0  0  0  0  0  0  0  0  0  0
    8.1965   -2.1613   -0.7864 H   0  0  0  0  0  0  0  0  0  0  0  0
  1 20  1  0
  1  2  2  0
  1 21  1  0
  2  3  1  0
  2 22  1  0
  3 15  1  0
  3  4  2  0
  4  5  1  0
  4 20  1  0
  5  6  2  0
  6 15  1  0
  6  7  1  0
  7  8  2  0
  8 13  1  0
  8  9  1  0
  9 10  2  0
  9 23  1  0
 10 19  1  0
 10 11  1  0
 11 12  2  0
 11 16  1  0
 12 13  1  0
 12 24  1  0
 13 14  2  0
 14 15  1  0
 14 25  1  0
 16 17  1  0
 17 18  1  0
 17 26  1  0
 17 27  1  0
 18 19  1  0
 18 28  1  0
 18 29  1  0
M  END
>  <i_m_ct_stereo_status>  (87) 
1

>  <s_m_source_file>  (87) 
/var/tmp/pbs.5076255.sched01/tmps52fw2z9/0bkrl5082.sdf

>  <i_m_source_file_index>  (87) 
35

>  <i_lp_mmshare_version>  (87) 
48012

>  <i_f3d_flags>  (87) 
0

>  <s_epik_input>  (87) 
W2NIXTFbY0hdc2MoYzEyKW5jM24yW2NIXWM0YyhuMylbY0hdYzVjKFtjSF00KU9bQ0gyXVtDSDJdTzU=

>  <s_epik_cmdline>  (87) 
J2VwaWtfcHl0aG9uJywgJy1waHQnLCAnMi4wJywgJy1waCcsICc3LjAnLCAnLXRuJywgJzgnLCAnLW1hJywgJzIwMCcsICctaW1hZScsICc8aW5maWxlLm1hZT4nLCAnLW9tYWUnLCAnPG91dGZpbGUubWFlPic=

>  <r_lp_tautomer_probability>  (87) 
1

>  <r_epik_Ionization_Penalty>  (87) 
0.000244817

>  <r_epik_Ionization_Penalty_Charging>  (87) 
0.000244817

>  <r_epik_Ionization_Penalty_Neutral>  (87) 
2.63117e-16

>  <r_epik_State_Penalty>  (87) 
-0

>  <r_epik_Charging_Adjusted_Penalty>  (87) 
0.000244817

>  <i_epik_Tot_Q>  (87) 
0

>  <i_epik_Tot_abs_Q>  (87) 
0

>  <s_lp_Force_Field>  (87) 
OPLS3e

>  <r_lp_Energy>  (87) 
30.6395

>  <b_lp_Chiralities_Consistent>  (87) 
1

>  <s_lp_Variant>  (87) 
29:0-1

>  <s_i_glide_gridfile>  (87) 
pfpi4k_grid

>  <i_i_glide_lignum>  (87) 
35

>  <i_i_glide_rotatable_bonds>  (87) 
0

>  <r_i_docking_score>  (87) 
-4.17058

>  <r_i_glide_ligand_efficiency>  (87) 
-0.208529

>  <r_i_glide_ligand_efficiency_sa>  (87) 
-0.566035

>  <r_i_glide_ligand_efficiency_ln>  (87) 
-1.04376

>  <r_i_glide_gscore>  (87) 
-4.17058

>  <r_i_glide_lipo>  (87) 
-0.483636

>  <r_i_glide_hbond>  (87) 
-0.171871

>  <r_i_glide_metal>  (87) 
-0

>  <r_i_glide_rewards>  (87) 
-1.47746

>  <r_i_glide_evdw>  (87) 
-27.0299

>  <r_i_glide_ecoul>  (87) 
-4.0745

>  <r_i_glide_erotb>  (87) 
0

>  <r_i_glide_esite>  (87) 
-0.074946

>  <r_i_glide_emodel>  (87) 
-40.3846

>  <r_i_glide_energy>  (87) 
-31.1045

>  <r_i_glide_einternal>  (87) 
0

>  <r_i_glide_intrahb_reward>  (87) 
-0

>  <i_i_glide_confnum>  (87) 
4

>  <i_i_glide_posenum>  (87) 
10

>  <r_i_glide_eff_state_penalty>  (87) 
0

>  <ligand_id>  (87) 
29

>  <original_smiles>  (87) 
c1cc2c(nc3nc4cc5c(cc4cn32)OCCO5)s1

>  <smiles>  (87) 
[H]c1sc2nc3nc4c([H])c5c(c([H])c4c([H])n3c2c1[H])OC([H])([H])C([H])([H])O5

$$$$
29:0:2
     RDKit          3D

 29 33  0  0  1  0  0  0  0  0999 V2000
    6.6455   -3.0564   -1.8836 C   0  0  0  0  0  0  0  0  0  0  0  0
    5.3987   -3.6381   -1.6824 C   0  0  0  0  0  0  0  0  0  0  0  0
    5.3222   -4.0932   -0.3245 C   0  0  0  0  0  0  0  0  0  0  0  0
    6.4545   -3.8296    0.3750 C   0  0  0  0  0  0  0  0  0  0  0  0
    6.3286   -4.2946    1.6797 N   0  0  0  0  0  0  0  0  0  0  0  0
    5.0864   -4.8434    1.7272 C   0  0  0  0  0  0  0  0  0  0  0  0
    4.4879   -5.4271    2.7961 N   0  0  0  0  0  0  0  0  0  0  0  0
    3.2426   -5.9076    2.5883 C   0  0  0  0  0  0  0  0  0  0  0  0
    2.5600   -6.5345    3.6574 C   0  0  0  0  0  0  0  0  0  0  0  0
    1.2586   -7.0593    3.5089 C   0  0  0  0  0  0  0  0  0  0  0  0
    0.5972   -6.9354    2.2669 C   0  0  0  0  0  0  0  0  0  0  0  0
    1.2695   -6.3346    1.1903 C   0  0  0  0  0  0  0  0  0  0  0  0
    2.5743   -5.8116    1.3424 C   0  0  0  0  0  0  0  0  0  0  0  0
    3.1645   -5.1911    0.2229 C   0  0  0  0  0  0  0  0  0  0  0  0
    4.4456   -4.7181    0.4539 N   0  0  0  0  0  0  0  0  0  0  0  0
   -0.6944   -7.3823    2.0873 O   0  0  0  0  0  0  0  0  0  0  0  0
   -1.3939   -7.6942    3.2917 C   0  0  0  0  0  0  0  0  0  0  0  0
   -0.4831   -8.4724    4.2519 C   0  0  0  0  0  0  0  0  0  0  0  0
    0.6476   -7.6706    4.5800 O   0  0  0  0  0  0  0  0  0  0  0  0
    7.7344   -3.0341   -0.4792 S   0  0  0  0  0  0  0  0  0  0  0  0
    7.0206   -2.6752   -2.8225 H   0  0  0  0  0  0  0  0  0  0  0  0
    4.5872   -3.7968   -2.3776 H   0  0  0  0  0  0  0  0  0  0  0  0
    3.0440   -6.6281    4.6195 H   0  0  0  0  0  0  0  0  0  0  0  0
    0.7673   -6.2679    0.2394 H   0  0  0  0  0  0  0  0  0  0  0  0
    2.6935   -5.0496   -0.7303 H   0  0  0  0  0  0  0  0  0  0  0  0
   -1.7380   -6.7690    3.7588 H   0  0  0  0  0  0  0  0  0  0  0  0
   -2.2840   -8.2809    3.0570 H   0  0  0  0  0  0  0  0  0  0  0  0
   -1.0205   -8.7182    5.1684 H   0  0  0  0  0  0  0  0  0  0  0  0
   -0.1622   -9.4155    3.8098 H   0  0  0  0  0  0  0  0  0  0  0  0
  1 20  1  0
  1  2  2  0
  1 21  1  0
  2  3  1  0
  2 22  1  0
  3 15  1  0
  3  4  2  0
  4  5  1  0
  4 20  1  0
  5  6  2  0
  6 15  1  0
  6  7  1  0
  7  8  2  0
  8 13  1  0
  8  9  1  0
  9 10  2  0
  9 23  1  0
 10 19  1  0
 10 11  1  0
 11 12  2  0
 11 16  1  0
 12 13  1  0
 12 24  1  0
 13 14  2  0
 14 15  1  0
 14 25  1  0
 16 17  1  0
 17 18  1  0
 17 26  1  0
 17 27  1  0
 18 19  1  0
 18 28  1  0
 18 29  1  0
M  END
>  <i_m_ct_stereo_status>  (88) 
1

>  <s_m_source_file>  (88) 
/var/tmp/pbs.5076255.sched01/tmps52fw2z9/0bkrl5082.sdf

>  <i_m_source_file_index>  (88) 
35

>  <i_lp_mmshare_version>  (88) 
48012

>  <i_f3d_flags>  (88) 
0

>  <s_epik_input>  (88) 
W2NIXTFbY0hdc2MoYzEyKW5jM24yW2NIXWM0YyhuMylbY0hdYzVjKFtjSF00KU9bQ0gyXVtDSDJdTzU=

>  <s_epik_cmdline>  (88) 
J2VwaWtfcHl0aG9uJywgJy1waHQnLCAnMi4wJywgJy1waCcsICc3LjAnLCAnLXRuJywgJzgnLCAnLW1hJywgJzIwMCcsICctaW1hZScsICc8aW5maWxlLm1hZT4nLCAnLW9tYWUnLCAnPG91dGZpbGUubWFlPic=

>  <r_lp_tautomer_probability>  (88) 
1

>  <r_epik_Ionization_Penalty>  (88) 
0.000244817

>  <r_epik_Ionization_Penalty_Charging>  (88) 
0.000244817

>  <r_epik_Ionization_Penalty_Neutral>  (88) 
2.63117e-16

>  <r_epik_State_Penalty>  (88) 
-0

>  <r_epik_Charging_Adjusted_Penalty>  (88) 
0.000244817

>  <i_epik_Tot_Q>  (88) 
0

>  <i_epik_Tot_abs_Q>  (88) 
0

>  <s_lp_Force_Field>  (88) 
OPLS3e

>  <r_lp_Energy>  (88) 
30.6395

>  <b_lp_Chiralities_Consistent>  (88) 
1

>  <s_lp_Variant>  (88) 
29:0-1

>  <s_i_glide_gridfile>  (88) 
pfpi4k_grid

>  <i_i_glide_lignum>  (88) 
35

>  <i_i_glide_rotatable_bonds>  (88) 
0

>  <r_i_docking_score>  (88) 
-3.61494

>  <r_i_glide_ligand_efficiency>  (88) 
-0.180747

>  <r_i_glide_ligand_efficiency_sa>  (88) 
-0.490623

>  <r_i_glide_ligand_efficiency_ln>  (88) 
-0.904701

>  <r_i_glide_gscore>  (88) 
-3.61494

>  <r_i_glide_lipo>  (88) 
-0.346901

>  <r_i_glide_hbond>  (88) 
-0.0343697

>  <r_i_glide_metal>  (88) 
-0

>  <r_i_glide_rewards>  (88) 
-1.58022

>  <r_i_glide_evdw>  (88) 
-24.639

>  <r_i_glide_ecoul>  (88) 
-2.81001

>  <r_i_glide_erotb>  (88) 
0

>  <r_i_glide_esite>  (88) 
0

>  <r_i_glide_emodel>  (88) 
-35.4767

>  <r_i_glide_energy>  (88) 
-27.449

>  <r_i_glide_einternal>  (88) 
0

>  <r_i_glide_intrahb_reward>  (88) 
-0

>  <i_i_glide_confnum>  (88) 
3

>  <i_i_glide_posenum>  (88) 
13

>  <r_i_glide_eff_state_penalty>  (88) 
0

>  <ligand_id>  (88) 
29

>  <original_smiles>  (88) 
c1cc2c(nc3nc4cc5c(cc4cn32)OCCO5)s1

>  <smiles>  (88) 
[H]c1sc2nc3nc4c([H])c5c(c([H])c4c([H])n3c2c1[H])OC([H])([H])C([H])([H])O5

$$$$
30:0:0
     RDKit          3D

 72 78  0  0  1  0  0  0  0  0999 V2000
    2.9887   -1.1262    3.4604 C   0  0  0  0  0  0  0  0  0  0  0  0
    4.0006   -2.1005    3.6143 O   0  0  0  0  0  0  0  0  0  0  0  0
    3.4794   -3.3831    3.8643 C   0  0  2  0  0  0  0  0  0  0  0  0
    4.3912   -4.5882    3.8050 C   0  0  1  0  0  0  0  0  0  0  0  0
    5.8334   -4.2425    4.0698 C   0  0  0  0  0  0  0  0  0  0  0  0
    6.5844   -5.2517    3.2549 C   0  0  1  0  0  0  0  0  0  0  0  0
    5.7011   -6.5109    3.4357 C   0  0  1  0  0  0  0  0  0  0  0  0
    6.3831   -7.5581    4.1057 O   0  0  0  0  0  0  0  0  0  0  0  0
    4.4318   -6.0411    4.2358 C   0  0  2  0  0  0  0  0  0  0  0  0
    3.1694   -6.9330    4.1550 C   0  0  1  0  0  0  0  0  0  0  0  0
    1.9819   -6.2810    4.6089 O   0  0  0  0  0  0  0  0  0  0  0  0
    1.3546   -5.2604    3.8327 C   0  0  0  0  0  0  0  0  0  0  0  0
    2.0057   -4.8716    2.4711 C   0  0  2  0  0  0  0  0  0  0  0  0
    1.6214   -6.0660    1.5203 C   0  0  1  0  0  0  0  0  0  0  0  0
    1.4926   -5.6984    0.1662 O   0  0  0  0  0  0  0  0  0  0  0  0
    2.4201   -7.3644    1.6273 C   0  0  1  0  0  0  0  0  0  0  0  0
    3.0939   -7.8151    2.9062 C   0  0  2  0  0  0  0  0  0  0  0  0
    1.9140   -8.5846    2.3745 C   0  0  0  0  0  0  0  0  0  0  0  0
    0.5702   -8.6553    3.0921 C   0  0  0  0  0  0  0  0  0  0  0  0
    2.2157   -9.9346    1.7780 C   0  0  0  0  0  0  0  0  0  0  0  0
    3.4737   -4.2827    2.5927 C   0  0  1  0  0  0  0  0  0  0  0  0
    4.2682   -4.0828    1.2202 C   0  0  1  0  0  0  0  0  0  0  0  0
    4.2677   -5.3556    0.6208 O   0  0  0  0  0  0  0  0  0  0  0  0
    3.6219   -3.1586    0.1549 C   0  0  1  0  0  0  0  0  0  0  0  0
    3.1027   -2.0211    0.7171 O   0  0  0  0  0  0  0  0  0  0  0  0
    4.7200   -2.8057   -0.9352 C   0  0  0  0  0  0  0  0  0  0  0  0
    4.3573   -3.4582   -2.2705 C   0  0  0  0  0  0  0  0  0  0  0  0
    4.8954   -1.2759   -1.2000 C   0  0  0  0  0  0  0  0  0  0  0  0
    5.9995   -3.4646   -0.3777 C   0  0  1  0  0  0  0  0  0  0  0  0
    7.1910   -2.8011   -0.7749 O   0  0  0  0  0  0  0  0  0  0  0  0
    5.7804   -3.6875    1.1586 C   0  0  1  0  0  0  0  0  0  0  0  0
    5.9849   -2.3928    1.6976 O   0  0  0  0  0  0  0  0  0  0  0  0
    6.7878   -4.7657    1.7699 C   0  0  1  0  0  0  0  0  0  0  0  0
    8.1454   -4.3636    1.5792 O   0  0  0  0  0  0  0  0  0  0  0  0
    3.4525   -0.1915    3.1510 H   0  0  0  0  0  0  0  0  0  0  0  0
    2.4927   -0.9174    4.4293 H   0  0  0  0  0  0  0  0  0  0  0  0
    2.2773   -1.4213    2.7337 H   0  0  0  0  0  0  0  0  0  0  0  0
    2.8615   -3.3746    4.7546 H   0  0  0  0  0  0  0  0  0  0  0  0
    6.0401   -3.1904    3.9043 H   0  0  0  0  0  0  0  0  0  0  0  0
    6.0300   -4.3794    5.1421 H   0  0  0  0  0  0  0  0  0  0  0  0
    7.5568   -5.4717    3.7144 H   0  0  0  0  0  0  0  0  0  0  0  0
    5.4400   -6.8650    2.4293 H   0  0  0  0  0  0  0  0  0  0  0  0
    6.6524   -7.2377    4.9585 H   0  0  0  0  0  0  0  0  0  0  0  0
    4.6845   -6.0259    5.2912 H   0  0  0  0  0  0  0  0  0  0  0  0
    3.3403   -7.6777    4.9250 H   0  0  0  0  0  0  0  0  0  0  0  0
    0.3341   -5.5692    3.6620 H   0  0  0  0  0  0  0  0  0  0  0  0
    1.1813   -4.4125    4.4816 H   0  0  0  0  0  0  0  0  0  0  0  0
    1.4392   -4.0132    2.1235 H   0  0  0  0  0  0  0  0  0  0  0  0
    0.5945   -6.3326    1.7358 H   0  0  0  0  0  0  0  0  0  0  0  0
    2.3693   -5.5421   -0.1750 H   0  0  0  0  0  0  0  0  0  0  0  0
    3.0440   -7.5456    0.7605 H   0  0  0  0  0  0  0  0  0  0  0  0
    4.0051   -8.3758    2.7635 H   0  0  0  0  0  0  0  0  0  0  0  0
    0.6085   -9.4276    3.8635 H   0  0  0  0  0  0  0  0  0  0  0  0
   -0.2114   -8.9300    2.3804 H   0  0  0  0  0  0  0  0  0  0  0  0
    0.2966   -7.7221    3.5598 H   0  0  0  0  0  0  0  0  0  0  0  0
    2.2799  -10.7027    2.5491 H   0  0  0  0  0  0  0  0  0  0  0  0
    3.1421   -9.9149    1.2039 H   0  0  0  0  0  0  0  0  0  0  0  0
    1.4320  -10.2076    1.1308 H   0  0  0  0  0  0  0  0  0  0  0  0
    4.5858   -5.2869   -0.2709 H   0  0  0  0  0  0  0  0  0  0  0  0
    2.7552   -3.6387   -0.3578 H   0  0  0  0  0  0  0  0  0  0  0  0
    3.8275   -1.5069    1.1515 H   0  0  0  0  0  0  0  0  0  0  0  0
    5.0936   -3.2813   -3.0415 H   0  0  0  0  0  0  0  0  0  0  0  0
    3.4036   -3.0802   -2.6198 H   0  0  0  0  0  0  0  0  0  0  0  0
    4.2684   -4.5239   -2.1252 H   0  0  0  0  0  0  0  0  0  0  0  0
    5.6049   -1.0810   -2.0003 H   0  0  0  0  0  0  0  0  0  0  0  0
    5.2469   -0.7397   -0.3138 H   0  0  0  0  0  0  0  0  0  0  0  0
    3.9478   -0.8270   -1.5092 H   0  0  0  0  0  0  0  0  0  0  0  0
    6.1267   -4.4561   -0.8037 H   0  0  0  0  0  0  0  0  0  0  0  0
    7.4963   -3.1744   -1.5932 H   0  0  0  0  0  0  0  0  0  0  0  0
    5.7866   -2.3987    2.6224 H   0  0  0  0  0  0  0  0  0  0  0  0
    6.7766   -5.6769    1.1500 H   0  0  0  0  0  0  0  0  0  0  0  0
    8.7151   -4.8533    2.1428 H   0  0  0  0  0  0  0  0  0  0  0  0
  1  2  1  0
  1 35  1  0
  1 36  1  0
  1 37  1  0
  2  3  1  0
  3 21  1  0
  3  4  1  0
  3 38  1  1
  4  9  1  0
  4 21  1  0
  4  5  1  6
  5  6  1  0
  5 39  1  0
  5 40  1  0
  6 33  1  0
  6  7  1  0
  6 41  1  1
  7  8  1  0
  7  9  1  0
  7 42  1  6
  8 43  1  0
  9 10  1  0
  9 44  1  1
 10 17  1  0
 10 11  1  0
 10 45  1  1
 11 12  1  0
 12 13  1  0
 12 46  1  0
 12 47  1  0
 13 14  1  0
 13 21  1  0
 13 48  1  6
 14 15  1  0
 14 16  1  0
 14 49  1  1
 15 50  1  0
 16 18  1  0
 16 17  1  0
 16 51  1  6
 17 18  1  0
 17 52  1  6
 18 19  1  0
 18 20  1  0
 19 53  1  0
 19 54  1  0
 19 55  1  0
 20 56  1  0
 20 57  1  0
 20 58  1  0
 21 22  1  6
 22 31  1  0
 22 23  1  6
 22 24  1  0
 23 59  1  0
 24 25  1  0
 24 26  1  0
 24 60  1  6
 25 61  1  0
 26 27  1  0
 26 28  1  0
 26 29  1  0
 27 62  1  0
 27 63  1  0
 27 64  1  0
 28 65  1  0
 28 66  1  0
 28 67  1  0
 29 30  1  0
 29 31  1  0
 29 68  1  6
 30 69  1  0
 31 32  1  1
 31 33  1  0
 32 70  1  0
 33 34  1  0
 33 71  1  6
 34 72  1  0
M  END
>  <i_m_ct_stereo_status>  (89) 
1

>  <s_m_source_file>  (89) 
/var/tmp/pbs.5076255.sched01/tmps52fw2z9/0bkrl5082.sdf

>  <i_m_source_file_index>  (89) 
36

>  <i_lp_mmshare_version>  (89) 
48012

>  <i_f3d_flags>  (89) 
0

>  <s_epik_input>  (89) 
W0NIM11PW0NASF0xW0NAQF0yKFtDQF0xMzQpW0NAQEhdNVtDSDJdT1tDQEBIXShbQ0BASF02W0NASF0oW0NAQEhdNVtPSF0pQzYoW0NIM10pW0NIM10pW0NASF00W0NASF0oW09IXSlbQ0BIXShbQ0gyXTMpW0NASF0oW09IXSlbQ0BdNyhbT0hdKVtDQF0yKFtPSF0pW0NAQEhdKFtPSF0pQyhbQ0gzXSkoW0NIM10pW0NASF03W09IXQ==

>  <s_epik_cmdline>  (89) 
J2VwaWtfcHl0aG9uJywgJy1waHQnLCAnMi4wJywgJy1waCcsICc3LjAnLCAnLXRuJywgJzgnLCAnLW1hJywgJzIwMCcsICctaW1hZScsICc8aW5maWxlLm1hZT4nLCAnLW9tYWUnLCAnPG91dGZpbGUubWFlPic=

>  <r_lp_tautomer_probability>  (89) 
1

>  <r_epik_Ionization_Penalty>  (89) 
5.54268e-07

>  <r_epik_Ionization_Penalty_Charging>  (89) 
0

>  <r_epik_Ionization_Penalty_Neutral>  (89) 
5.54268e-07

>  <r_epik_State_Penalty>  (89) 
-0

>  <r_epik_Charging_Adjusted_Penalty>  (89) 
0

>  <i_epik_Tot_Q>  (89) 
0

>  <i_epik_Tot_abs_Q>  (89) 
0

>  <s_lp_Force_Field>  (89) 
OPLS3e

>  <r_lp_Energy>  (89) 
138.541

>  <b_lp_Chiralities_Consistent>  (89) 
1

>  <s_lp_Variant>  (89) 
30:0-1

>  <s_i_glide_gridfile>  (89) 
pfpi4k_grid

>  <i_i_glide_lignum>  (89) 
36

>  <i_i_glide_rotatable_bonds>  (89) 
8

>  <r_i_docking_score>  (89) 
-3.09784

>  <r_i_glide_ligand_efficiency>  (89) 
-0.091113

>  <r_i_glide_ligand_efficiency_sa>  (89) 
-0.295171

>  <r_i_glide_ligand_efficiency_ln>  (89) 
-0.6844

>  <r_i_glide_gscore>  (89) 
-3.09784

>  <r_i_glide_lipo>  (89) 
-0.282136

>  <r_i_glide_hbond>  (89) 
0

>  <r_i_glide_metal>  (89) 
-0

>  <r_i_glide_rewards>  (89) 
-1.11888

>  <r_i_glide_evdw>  (89) 
-14.6434

>  <r_i_glide_ecoul>  (89) 
-6.43102

>  <r_i_glide_erotb>  (89) 
0

>  <r_i_glide_esite>  (89) 
0

>  <r_i_glide_emodel>  (89) 
-35.1652

>  <r_i_glide_energy>  (89) 
-21.0744

>  <r_i_glide_einternal>  (89) 
1.66277

>  <r_i_glide_intrahb_reward>  (89) 
-1

>  <i_i_glide_confnum>  (89) 
1

>  <i_i_glide_posenum>  (89) 
21

>  <r_i_glide_eff_state_penalty>  (89) 
0

>  <ligand_id>  (89) 
30

>  <original_smiles>  (89) 
COC1C23CC4C(O)C2C2OCC(C(O)C5C2C5(C)C)C13C1(O)C(O)C(C)(C)C(O)C1(O)C4O

>  <smiles>  (89) 
[H]OC1([H])C2([H])C([H])([H])C34C([H])(OC([H])([H])[H])C3(C3([H])C([H])([H])OC([H])(C5([H])C([H])(C3([H])O[H])C5(C([H])([H])[H])C([H])([H])[H])C14[H])C1(O[H])C([H])(O[H])C(C([H])([H])[H])(C([H])([H])[H])C([H])(O[H])C1(O[H])C2([H])O[H]

$$$$
30:0:1
     RDKit          3D

 72 78  0  0  1  0  0  0  0  0999 V2000
    5.2945   -9.8896    1.7792 C   0  0  0  0  0  0  0  0  0  0  0  0
    5.2363   -9.1006    2.9554 O   0  0  0  0  0  0  0  0  0  0  0  0
    5.2030   -7.7137    2.6978 C   0  0  2  0  0  0  0  0  0  0  0  0
    4.8259   -6.7733    3.8043 C   0  0  1  0  0  0  0  0  0  0  0  0
    5.0508   -7.3409    5.2006 C   0  0  0  0  0  0  0  0  0  0  0  0
    3.9900   -6.6493    6.0169 C   0  0  1  0  0  0  0  0  0  0  0  0
    3.9806   -5.2273    5.3648 C   0  0  1  0  0  0  0  0  0  0  0  0
    4.3500   -4.2062    6.2667 O   0  0  0  0  0  0  0  0  0  0  0  0
    4.9317   -5.2849    4.1315 C   0  0  2  0  0  0  0  0  0  0  0  0
    4.7279   -4.1910    3.0178 C   0  0  1  0  0  0  0  0  0  0  0  0
    5.3988   -4.4860    1.7908 O   0  0  0  0  0  0  0  0  0  0  0  0
    4.9155   -5.5076    0.9194 C   0  0  0  0  0  0  0  0  0  0  0  0
    3.6298   -6.2688    1.3565 C   0  0  2  0  0  0  0  0  0  0  0  0
    2.4692   -5.2439    1.0633 C   0  0  1  0  0  0  0  0  0  0  0  0
    1.2578   -5.8820    0.7217 O   0  0  0  0  0  0  0  0  0  0  0  0
    2.2286   -4.1188    2.0687 C   0  0  1  0  0  0  0  0  0  0  0  0
    3.3195   -3.5659    2.9488 C   0  0  2  0  0  0  0  0  0  0  0  0
    2.7315   -2.6845    1.8595 C   0  0  0  0  0  0  0  0  0  0  0  0
    3.5319   -2.2351    0.6416 C   0  0  0  0  0  0  0  0  0  0  0  0
    1.8086   -1.5533    2.2945 C   0  0  0  0  0  0  0  0  0  0  0  0
    3.7827   -7.0971    2.7138 C   0  0  1  0  0  0  0  0  0  0  0  0
    2.4280   -7.7011    3.2929 C   0  0  1  0  0  0  0  0  0  0  0  0
    1.5782   -6.5936    3.4601 O   0  0  0  0  0  0  0  0  0  0  0  0
    1.6089   -8.6849    2.3850 C   0  0  1  0  0  0  0  0  0  0  0  0
    2.4001   -9.5979    1.7253 O   0  0  0  0  0  0  0  0  0  0  0  0
    0.5461   -9.4193    3.2704 C   0  0  0  0  0  0  0  0  0  0  0  0
   -0.8667   -8.9705    2.8431 C   0  0  0  0  0  0  0  0  0  0  0  0
    0.5933  -10.9671    3.1583 C   0  0  0  0  0  0  0  0  0  0  0  0
    0.8525   -8.9176    4.7071 C   0  0  1  0  0  0  0  0  0  0  0  0
    0.5444   -9.8465    5.7347 O   0  0  0  0  0  0  0  0  0  0  0  0
    2.3299   -8.3869    4.7133 C   0  0  1  0  0  0  0  0  0  0  0  0
    3.1000   -9.5774    4.7920 O   0  0  0  0  0  0  0  0  0  0  0  0
    2.6383   -7.4569    5.9657 C   0  0  1  0  0  0  0  0  0  0  0  0
    2.5602   -8.2282    7.1533 O   0  0  0  0  0  0  0  0  0  0  0  0
    5.1236  -10.9289    2.0704 H   0  0  0  0  0  0  0  0  0  0  0  0
    6.2493   -9.8129    1.2661 H   0  0  0  0  0  0  0  0  0  0  0  0
    4.5447   -9.5994    1.0636 H   0  0  0  0  0  0  0  0  0  0  0  0
    6.1025   -7.4077    2.1790 H   0  0  0  0  0  0  0  0  0  0  0  0
    5.0683   -8.4206    5.2720 H   0  0  0  0  0  0  0  0  0  0  0  0
    6.0428   -7.0454    5.5531 H   0  0  0  0  0  0  0  0  0  0  0  0
    4.3296   -6.5727    7.0539 H   0  0  0  0  0  0  0  0  0  0  0  0
    2.9595   -5.0264    5.0592 H   0  0  0  0  0  0  0  0  0  0  0  0
    5.2241   -4.3814    6.5967 H   0  0  0  0  0  0  0  0  0  0  0  0
    5.9638   -5.1340    4.4672 H   0  0  0  0  0  0  0  0  0  0  0  0
    5.3241   -3.3505    3.3796 H   0  0  0  0  0  0  0  0  0  0  0  0
    4.7651   -5.0544   -0.0589 H   0  0  0  0  0  0  0  0  0  0  0  0
    5.7475   -6.1588    0.6702 H   0  0  0  0  0  0  0  0  0  0  0  0
    3.5170   -7.0448    0.5968 H   0  0  0  0  0  0  0  0  0  0  0  0
    2.6847   -4.7508    0.1127 H   0  0  0  0  0  0  0  0  0  0  0  0
    1.1794   -6.6454    1.2796 H   0  0  0  0  0  0  0  0  0  0  0  0
    1.2508   -4.1834    2.5364 H   0  0  0  0  0  0  0  0  0  0  0  0
    3.0190   -3.2046    3.9277 H   0  0  0  0  0  0  0  0  0  0  0  0
    4.1318   -1.3624    0.8887 H   0  0  0  0  0  0  0  0  0  0  0  0
    2.8584   -1.9665   -0.1698 H   0  0  0  0  0  0  0  0  0  0  0  0
    4.2007   -2.9995    0.2705 H   0  0  0  0  0  0  0  0  0  0  0  0
    2.3807   -0.6687    2.5590 H   0  0  0  0  0  0  0  0  0  0  0  0
    1.2153   -1.8414    3.1604 H   0  0  0  0  0  0  0  0  0  0  0  0
    1.1201   -1.2889    1.4981 H   0  0  0  0  0  0  0  0  0  0  0  0
    2.0102   -5.9940    4.0501 H   0  0  0  0  0  0  0  0  0  0  0  0
    1.1029   -8.1710    1.5705 H   0  0  0  0  0  0  0  0  0  0  0  0
    1.8424  -10.2136    1.2524 H   0  0  0  0  0  0  0  0  0  0  0  0
   -1.6442   -9.3848    3.4837 H   0  0  0  0  0  0  0  0  0  0  0  0
   -1.0865   -9.2878    1.8210 H   0  0  0  0  0  0  0  0  0  0  0  0
   -0.9667   -7.8824    2.8615 H   0  0  0  0  0  0  0  0  0  0  0  0
   -0.1772  -11.4481    3.7565 H   0  0  0  0  0  0  0  0  0  0  0  0
    1.5462  -11.3784    3.4896 H   0  0  0  0  0  0  0  0  0  0  0  0
    0.4286  -11.2915    2.1340 H   0  0  0  0  0  0  0  0  0  0  0  0
    0.1978   -8.0682    4.9283 H   0  0  0  0  0  0  0  0  0  0  0  0
   -0.3075  -10.2348    5.5436 H   0  0  0  0  0  0  0  0  0  0  0  0
    2.7926  -10.0882    5.5370 H   0  0  0  0  0  0  0  0  0  0  0  0
    1.8312   -6.7315    6.0655 H   0  0  0  0  0  0  0  0  0  0  0  0
    1.8339   -8.8427    7.0645 H   0  0  0  0  0  0  0  0  0  0  0  0
  1  2  1  0
  1 35  1  0
  1 36  1  0
  1 37  1  0
  2  3  1  0
  3 21  1  0
  3  4  1  0
  3 38  1  6
  4  9  1  0
  4 21  1  0
  4  5  1  1
  5  6  1  0
  5 39  1  0
  5 40  1  0
  6 33  1  0
  6  7  1  0
  6 41  1  1
  7  8  1  0
  7  9  1  0
  7 42  1  6
  8 43  1  0
  9 10  1  0
  9 44  1  1
 10 17  1  0
 10 11  1  0
 10 45  1  1
 11 12  1  0
 12 13  1  0
 12 46  1  0
 12 47  1  0
 13 14  1  0
 13 21  1  0
 13 48  1  6
 14 15  1  0
 14 16  1  0
 14 49  1  6
 15 50  1  0
 16 18  1  0
 16 17  1  0
 16 51  1  1
 17 18  1  0
 17 52  1  1
 18 19  1  0
 18 20  1  0
 19 53  1  0
 19 54  1  0
 19 55  1  0
 20 56  1  0
 20 57  1  0
 20 58  1  0
 21 22  1  1
 22 31  1  0
 22 23  1  1
 22 24  1  0
 23 59  1  0
 24 25  1  0
 24 26  1  0
 24 60  1  6
 25 61  1  0
 26 27  1  0
 26 28  1  0
 26 29  1  0
 27 62  1  0
 27 63  1  0
 27 64  1  0
 28 65  1  0
 28 66  1  0
 28 67  1  0
 29 30  1  0
 29 31  1  0
 29 68  1  1
 30 69  1  0
 31 32  1  6
 31 33  1  0
 32 70  1  0
 33 34  1  0
 33 71  1  1
 34 72  1  0
M  END
>  <i_m_ct_stereo_status>  (90) 
1

>  <s_m_source_file>  (90) 
/var/tmp/pbs.5076255.sched01/tmps52fw2z9/0bkrl5082.sdf

>  <i_m_source_file_index>  (90) 
36

>  <i_lp_mmshare_version>  (90) 
48012

>  <i_f3d_flags>  (90) 
0

>  <s_epik_input>  (90) 
W0NIM11PW0NASF0xW0NAQF0yKFtDQF0xMzQpW0NAQEhdNVtDSDJdT1tDQEBIXShbQ0BASF02W0NASF0oW0NAQEhdNVtPSF0pQzYoW0NIM10pW0NIM10pW0NASF00W0NASF0oW09IXSlbQ0BIXShbQ0gyXTMpW0NASF0oW09IXSlbQ0BdNyhbT0hdKVtDQF0yKFtPSF0pW0NAQEhdKFtPSF0pQyhbQ0gzXSkoW0NIM10pW0NASF03W09IXQ==

>  <s_epik_cmdline>  (90) 
J2VwaWtfcHl0aG9uJywgJy1waHQnLCAnMi4wJywgJy1waCcsICc3LjAnLCAnLXRuJywgJzgnLCAnLW1hJywgJzIwMCcsICctaW1hZScsICc8aW5maWxlLm1hZT4nLCAnLW9tYWUnLCAnPG91dGZpbGUubWFlPic=

>  <r_lp_tautomer_probability>  (90) 
1

>  <r_epik_Ionization_Penalty>  (90) 
5.54268e-07

>  <r_epik_Ionization_Penalty_Charging>  (90) 
0

>  <r_epik_Ionization_Penalty_Neutral>  (90) 
5.54268e-07

>  <r_epik_State_Penalty>  (90) 
-0

>  <r_epik_Charging_Adjusted_Penalty>  (90) 
0

>  <i_epik_Tot_Q>  (90) 
0

>  <i_epik_Tot_abs_Q>  (90) 
0

>  <s_lp_Force_Field>  (90) 
OPLS3e

>  <r_lp_Energy>  (90) 
138.541

>  <b_lp_Chiralities_Consistent>  (90) 
1

>  <s_lp_Variant>  (90) 
30:0-1

>  <s_i_glide_gridfile>  (90) 
pfpi4k_grid

>  <i_i_glide_lignum>  (90) 
36

>  <i_i_glide_rotatable_bonds>  (90) 
8

>  <r_i_docking_score>  (90) 
-2.97997

>  <r_i_glide_ligand_efficiency>  (90) 
-0.0876462

>  <r_i_glide_ligand_efficiency_sa>  (90) 
-0.28394

>  <r_i_glide_ligand_efficiency_ln>  (90) 
-0.658359

>  <r_i_glide_gscore>  (90) 
-2.97997

>  <r_i_glide_lipo>  (90) 
-0.218457

>  <r_i_glide_hbond>  (90) 
0

>  <r_i_glide_metal>  (90) 
-0

>  <r_i_glide_rewards>  (90) 
-0.618883

>  <r_i_glide_evdw>  (90) 
-21.2274

>  <r_i_glide_ecoul>  (90) 
-7.20841

>  <r_i_glide_erotb>  (90) 
0

>  <r_i_glide_esite>  (90) 
0

>  <r_i_glide_emodel>  (90) 
-37.0186

>  <r_i_glide_energy>  (90) 
-28.4358

>  <r_i_glide_einternal>  (90) 
2.4366

>  <r_i_glide_intrahb_reward>  (90) 
-0.5

>  <i_i_glide_confnum>  (90) 
2

>  <i_i_glide_posenum>  (90) 
8

>  <r_i_glide_eff_state_penalty>  (90) 
0

>  <ligand_id>  (90) 
30

>  <original_smiles>  (90) 
COC1C23CC4C(O)C2C2OCC(C(O)C5C2C5(C)C)C13C1(O)C(O)C(C)(C)C(O)C1(O)C4O

>  <smiles>  (90) 
[H]OC1([H])C2([H])C([H])([H])C34C([H])(OC([H])([H])[H])C3(C3([H])C([H])([H])OC([H])(C5([H])C([H])(C3([H])O[H])C5(C([H])([H])[H])C([H])([H])[H])C14[H])C1(O[H])C([H])(O[H])C(C([H])([H])[H])(C([H])([H])[H])C([H])(O[H])C1(O[H])C2([H])O[H]

$$$$
30:0:2
     RDKit          3D

 72 78  0  0  1  0  0  0  0  0999 V2000
    5.8178   -3.1752    5.8675 C   0  0  0  0  0  0  0  0  0  0  0  0
    5.0443   -3.6308    4.7635 O   0  0  0  0  0  0  0  0  0  0  0  0
    4.3746   -4.8490    5.0374 C   0  0  2  0  0  0  0  0  0  0  0  0
    4.8712   -6.1170    4.4295 C   0  0  1  0  0  0  0  0  0  0  0  0
    6.3315   -6.0770    4.0400 C   0  0  0  0  0  0  0  0  0  0  0  0
    6.3942   -7.0362    2.8828 C   0  0  1  0  0  0  0  0  0  0  0  0
    5.3672   -8.1182    3.3085 C   0  0  1  0  0  0  0  0  0  0  0  0
    6.0003   -9.3615    3.5203 O   0  0  0  0  0  0  0  0  0  0  0  0
    4.7052   -7.6078    4.6242 C   0  0  2  0  0  0  0  0  0  0  0  0
    3.3326   -8.2275    5.0253 C   0  0  1  0  0  0  0  0  0  0  0  0
    2.6437   -7.4855    6.0335 O   0  0  0  0  0  0  0  0  0  0  0  0
    1.9990   -6.2475    5.7403 C   0  0  0  0  0  0  0  0  0  0  0  0
    2.1237   -5.7260    4.2851 C   0  0  2  0  0  0  0  0  0  0  0  0
    1.0941   -6.6086    3.4847 C   0  0  1  0  0  0  0  0  0  0  0  0
    0.6169   -5.9447    2.3413 O   0  0  0  0  0  0  0  0  0  0  0  0
    1.5094   -8.0195    3.0868 C   0  0  1  0  0  0  0  0  0  0  0  0
    2.5219   -8.8264    3.8648 C   0  0  2  0  0  0  0  0  0  0  0  0
    1.0713   -9.2643    3.8480 C   0  0  0  0  0  0  0  0  0  0  0  0
    0.1909   -9.2334    5.0845 C   0  0  0  0  0  0  0  0  0  0  0  0
    0.7096  -10.4930    3.0333 C   0  0  0  0  0  0  0  0  0  0  0  0
    3.6198   -5.4433    3.8148 C   0  0  1  0  0  0  0  0  0  0  0  0
    3.7760   -5.0998    2.2675 C   0  0  1  0  0  0  0  0  0  0  0  0
    3.2109   -6.2009    1.5750 O   0  0  0  0  0  0  0  0  0  0  0  0
    3.0037   -3.8577    1.7282 C   0  0  1  0  0  0  0  0  0  0  0  0
    3.0856   -2.7684    2.6204 O   0  0  0  0  0  0  0  0  0  0  0  0
    3.5709   -3.5301    0.3038 C   0  0  0  0  0  0  0  0  0  0  0  0
    2.5164   -3.8360   -0.7797 C   0  0  0  0  0  0  0  0  0  0  0  0
    3.9745   -2.0374    0.1353 C   0  0  0  0  0  0  0  0  0  0  0  0
    4.7801   -4.5034    0.1402 C   0  0  1  0  0  0  0  0  0  0  0  0
    5.8207   -3.9578   -0.6517 O   0  0  0  0  0  0  0  0  0  0  0  0
    5.1839   -4.9977    1.5631 C   0  0  1  0  0  0  0  0  0  0  0  0
    5.9435   -3.9094    2.0385 O   0  0  0  0  0  0  0  0  0  0  0  0
    6.0904   -6.3032    1.5402 C   0  0  1  0  0  0  0  0  0  0  0  0
    7.3439   -5.9881    0.9551 O   0  0  0  0  0  0  0  0  0  0  0  0
    6.2096   -2.1785    5.6594 H   0  0  0  0  0  0  0  0  0  0  0  0
    6.6611   -3.8424    6.0650 H   0  0  0  0  0  0  0  0  0  0  0  0
    5.2153   -3.0932    6.7748 H   0  0  0  0  0  0  0  0  0  0  0  0
    4.1240   -4.9297    6.0843 H   0  0  0  0  0  0  0  0  0  0  0  0
    6.7340   -5.0963    3.8542 H   0  0  0  0  0  0  0  0  0  0  0  0
    6.9308   -6.4484    4.8721 H   0  0  0  0  0  0  0  0  0  0  0  0
    7.3899   -7.4838    2.8469 H   0  0  0  0  0  0  0  0  0  0  0  0
    4.6486   -8.2208    2.5015 H   0  0  0  0  0  0  0  0  0  0  0  0
    5.3331  -10.0265    3.6129 H   0  0  0  0  0  0  0  0  0  0  0  0
    5.3656   -7.8530    5.4592 H   0  0  0  0  0  0  0  0  0  0  0  0
    3.6170   -9.1263    5.5750 H   0  0  0  0  0  0  0  0  0  0  0  0
    0.9471   -6.3431    6.0027 H   0  0  0  0  0  0  0  0  0  0  0  0
    2.2856   -5.5222    6.4951 H   0  0  0  0  0  0  0  0  0  0  0  0
    1.6821   -4.7239    4.3065 H   0  0  0  0  0  0  0  0  0  0  0  0
    0.1900   -6.7084    4.0862 H   0  0  0  0  0  0  0  0  0  0  0  0
    1.3760   -5.8968    1.7710 H   0  0  0  0  0  0  0  0  0  0  0  0
    1.5517   -8.1538    2.0048 H   0  0  0  0  0  0  0  0  0  0  0  0
    3.1280   -9.5135    3.2747 H   0  0  0  0  0  0  0  0  0  0  0  0
    0.3444  -10.1423    5.6716 H   0  0  0  0  0  0  0  0  0  0  0  0
   -0.8568   -9.1957    4.7813 H   0  0  0  0  0  0  0  0  0  0  0  0
    0.3833   -8.3825    5.7261 H   0  0  0  0  0  0  0  0  0  0  0  0
    0.8812  -11.3990    3.6179 H   0  0  0  0  0  0  0  0  0  0  0  0
    1.3210  -10.5396    2.1303 H   0  0  0  0  0  0  0  0  0  0  0  0
   -0.3388  -10.4549    2.7363 H   0  0  0  0  0  0  0  0  0  0  0  0
    3.4084   -6.1195    0.6500 H   0  0  0  0  0  0  0  0  0  0  0  0
    1.9409   -4.0471    1.6583 H   0  0  0  0  0  0  0  0  0  0  0  0
    2.6444   -2.0308    2.2229 H   0  0  0  0  0  0  0  0  0  0  0  0
    2.9288   -3.7083   -1.7827 H   0  0  0  0  0  0  0  0  0  0  0  0
    1.6665   -3.1587   -0.6990 H   0  0  0  0  0  0  0  0  0  0  0  0
    2.1404   -4.8590   -0.7120 H   0  0  0  0  0  0  0  0  0  0  0  0
    4.3216   -1.8296   -0.8791 H   0  0  0  0  0  0  0  0  0  0  0  0
    4.7804   -1.7509    0.8142 H   0  0  0  0  0  0  0  0  0  0  0  0
    3.1301   -1.3696    0.3123 H   0  0  0  0  0  0  0  0  0  0  0  0
    4.4614   -5.3743   -0.4382 H   0  0  0  0  0  0  0  0  0  0  0  0
    5.5013   -3.8998   -1.5417 H   0  0  0  0  0  0  0  0  0  0  0  0
    6.7221   -3.8895    1.4983 H   0  0  0  0  0  0  0  0  0  0  0  0
    5.6372   -7.0367    0.8744 H   0  0  0  0  0  0  0  0  0  0  0  0
    7.8743   -6.7732    0.9337 H   0  0  0  0  0  0  0  0  0  0  0  0
  1  2  1  0
  1 35  1  0
  1 36  1  0
  1 37  1  0
  2  3  1  0
  3 21  1  0
  3  4  1  0
  3 38  1  1
  4  9  1  0
  4 21  1  0
  4  5  1  6
  5  6  1  0
  5 39  1  0
  5 40  1  0
  6 33  1  0
  6  7  1  0
  6 41  1  6
  7  8  1  0
  7  9  1  0
  7 42  1  6
  8 43  1  0
  9 10  1  0
  9 44  1  1
 10 17  1  0
 10 11  1  0
 10 45  1  1
 11 12  1  0
 12 13  1  0
 12 46  1  0
 12 47  1  0
 13 14  1  0
 13 21  1  0
 13 48  1  1
 14 15  1  0
 14 16  1  0
 14 49  1  1
 15 50  1  0
 16 18  1  0
 16 17  1  0
 16 51  1  6
 17 18  1  0
 17 52  1  6
 18 19  1  0
 18 20  1  0
 19 53  1  0
 19 54  1  0
 19 55  1  0
 20 56  1  0
 20 57  1  0
 20 58  1  0
 21 22  1  6
 22 31  1  0
 22 23  1  6
 22 24  1  0
 23 59  1  0
 24 25  1  0
 24 26  1  0
 24 60  1  6
 25 61  1  0
 26 27  1  0
 26 28  1  0
 26 29  1  0
 27 62  1  0
 27 63  1  0
 27 64  1  0
 28 65  1  0
 28 66  1  0
 28 67  1  0
 29 30  1  0
 29 31  1  0
 29 68  1  6
 30 69  1  0
 31 32  1  1
 31 33  1  0
 32 70  1  0
 33 34  1  0
 33 71  1  6
 34 72  1  0
M  END
>  <i_m_ct_stereo_status>  (91) 
1

>  <s_m_source_file>  (91) 
/var/tmp/pbs.5076255.sched01/tmps52fw2z9/0bkrl5082.sdf

>  <i_m_source_file_index>  (91) 
36

>  <i_lp_mmshare_version>  (91) 
48012

>  <i_f3d_flags>  (91) 
0

>  <s_epik_input>  (91) 
W0NIM11PW0NASF0xW0NAQF0yKFtDQF0xMzQpW0NAQEhdNVtDSDJdT1tDQEBIXShbQ0BASF02W0NASF0oW0NAQEhdNVtPSF0pQzYoW0NIM10pW0NIM10pW0NASF00W0NASF0oW09IXSlbQ0BIXShbQ0gyXTMpW0NASF0oW09IXSlbQ0BdNyhbT0hdKVtDQF0yKFtPSF0pW0NAQEhdKFtPSF0pQyhbQ0gzXSkoW0NIM10pW0NASF03W09IXQ==

>  <s_epik_cmdline>  (91) 
J2VwaWtfcHl0aG9uJywgJy1waHQnLCAnMi4wJywgJy1waCcsICc3LjAnLCAnLXRuJywgJzgnLCAnLW1hJywgJzIwMCcsICctaW1hZScsICc8aW5maWxlLm1hZT4nLCAnLW9tYWUnLCAnPG91dGZpbGUubWFlPic=

>  <r_lp_tautomer_probability>  (91) 
1

>  <r_epik_Ionization_Penalty>  (91) 
5.54268e-07

>  <r_epik_Ionization_Penalty_Charging>  (91) 
0

>  <r_epik_Ionization_Penalty_Neutral>  (91) 
5.54268e-07

>  <r_epik_State_Penalty>  (91) 
-0

>  <r_epik_Charging_Adjusted_Penalty>  (91) 
0

>  <i_epik_Tot_Q>  (91) 
0

>  <i_epik_Tot_abs_Q>  (91) 
0

>  <s_lp_Force_Field>  (91) 
OPLS3e

>  <r_lp_Energy>  (91) 
138.541

>  <b_lp_Chiralities_Consistent>  (91) 
1

>  <s_lp_Variant>  (91) 
30:0-1

>  <s_i_glide_gridfile>  (91) 
pfpi4k_grid

>  <i_i_glide_lignum>  (91) 
36

>  <i_i_glide_rotatable_bonds>  (91) 
8

>  <r_i_docking_score>  (91) 
-2.57831

>  <r_i_glide_ligand_efficiency>  (91) 
-0.0758325

>  <r_i_glide_ligand_efficiency_sa>  (91) 
-0.245668

>  <r_i_glide_ligand_efficiency_ln>  (91) 
-0.56962

>  <r_i_glide_gscore>  (91) 
-2.57831

>  <r_i_glide_lipo>  (91) 
-0.291026

>  <r_i_glide_hbond>  (91) 
0

>  <r_i_glide_metal>  (91) 
-0

>  <r_i_glide_rewards>  (91) 
-0.618883

>  <r_i_glide_evdw>  (91) 
-19.5774

>  <r_i_glide_ecoul>  (91) 
-4.59685

>  <r_i_glide_erotb>  (91) 
0

>  <r_i_glide_esite>  (91) 
0

>  <r_i_glide_emodel>  (91) 
-32.3594

>  <r_i_glide_energy>  (91) 
-24.1742

>  <r_i_glide_einternal>  (91) 
2.83813

>  <r_i_glide_intrahb_reward>  (91) 
-0.5

>  <i_i_glide_confnum>  (91) 
1

>  <i_i_glide_posenum>  (91) 
3

>  <r_i_glide_eff_state_penalty>  (91) 
0

>  <ligand_id>  (91) 
30

>  <original_smiles>  (91) 
COC1C23CC4C(O)C2C2OCC(C(O)C5C2C5(C)C)C13C1(O)C(O)C(C)(C)C(O)C1(O)C4O

>  <smiles>  (91) 
[H]OC1([H])C2([H])C([H])([H])C34C([H])(OC([H])([H])[H])C3(C3([H])C([H])([H])OC([H])(C5([H])C([H])(C3([H])O[H])C5(C([H])([H])[H])C([H])([H])[H])C14[H])C1(O[H])C([H])(O[H])C(C([H])([H])[H])(C([H])([H])[H])C([H])(O[H])C1(O[H])C2([H])O[H]

$$$$
31:0:0
     RDKit          3D

 51 54  0  0  1  0  0  0  0  0999 V2000
    2.4556  -11.7391    5.0834 C   0  0  0  0  0  0  0  0  0  0  0  0
    1.8388  -10.3821    5.0199 N   0  0  2  0  0  0  0  0  0  0  0  0
    0.9874  -10.0800    6.1910 C   0  0  0  0  0  0  0  0  0  0  0  0
    0.4715   -8.6310    6.1434 C   0  0  0  0  0  0  0  0  0  0  0  0
   -0.2862   -8.3677    4.8373 C   0  0  0  0  0  0  0  0  0  0  0  0
    0.5768   -8.7251    3.6239 C   0  0  1  0  0  0  0  0  0  0  0  0
   -0.0289   -8.3973    2.2460 C   0  0  0  0  0  0  0  0  0  0  0  0
    1.3565   -7.8980    1.7781 C   0  0  1  0  0  0  0  0  0  0  0  0
    1.3113   -6.6248    0.9539 C   0  0  0  0  0  0  0  0  0  0  0  0
    0.2212   -6.2637    0.4968 O   0  0  0  0  0  0  0  0  0  0  0  0
    2.4473   -5.9044    0.7465 N   0  0  0  0  0  0  0  0  0  0  0  0
    2.4341   -4.6737   -0.0390 C   0  0  0  0  0  0  0  0  0  0  0  0
    2.6176   -3.4853    0.9057 C   0  0  0  0  0  0  0  0  0  0  0  0
    3.9711   -3.6665    1.6654 C   0  0  0  0  0  0  0  0  0  0  0  0
    4.0332   -5.0315    2.3982 C   0  0  0  0  0  0  0  0  0  0  0  0
    3.7520   -6.1622    1.3859 C   0  0  0  0  0  0  0  0  0  0  0  0
    4.1109   -2.6440    2.5913 O   0  0  0  0  0  0  0  0  0  0  0  0
    4.8807   -1.6342    1.9591 C   0  0  0  0  0  0  0  0  0  0  0  0
    5.2880   -2.2129    0.6023 C   0  0  0  0  0  0  0  0  0  0  0  0
    5.0436   -3.5897    0.7770 O   0  0  0  0  0  0  0  0  0  0  0  0
    1.6650   -7.6990    3.2630 C   0  0  0  0  0  0  0  0  0  0  0  0
    1.0872  -10.1776    3.7536 C   0  0  0  0  0  0  0  0  0  0  0  0
    1.6870  -12.5126    5.0375 H   0  0  0  0  0  0  0  0  0  0  0  0
    3.0288  -11.8690    6.0063 H   0  0  0  0  0  0  0  0  0  0  0  0
    3.1446  -11.9043    4.2517 H   0  0  0  0  0  0  0  0  0  0  0  0
    0.1340  -10.7542    6.2110 H   0  0  0  0  0  0  0  0  0  0  0  0
    1.5534  -10.2334    7.1122 H   0  0  0  0  0  0  0  0  0  0  0  0
   -0.1783   -8.4308    6.9920 H   0  0  0  0  0  0  0  0  0  0  0  0
    1.3038   -7.9300    6.2423 H   0  0  0  0  0  0  0  0  0  0  0  0
   -1.2005   -8.9569    4.8105 H   0  0  0  0  0  0  0  0  0  0  0  0
   -0.5822   -7.3149    4.8038 H   0  0  0  0  0  0  0  0  0  0  0  0
   -0.4178   -9.2666    1.7162 H   0  0  0  0  0  0  0  0  0  0  0  0
   -0.7927   -7.6216    2.3123 H   0  0  0  0  0  0  0  0  0  0  0  0
    1.9335   -8.6896    1.3128 H   0  0  0  0  0  0  0  0  0  0  0  0
    3.2680   -4.7493   -0.7284 H   0  0  0  0  0  0  0  0  0  0  0  0
    1.5571   -4.5185   -0.6679 H   0  0  0  0  0  0  0  0  0  0  0  0
    2.5833   -2.5463    0.3470 H   0  0  0  0  0  0  0  0  0  0  0  0
    1.8142   -3.4532    1.6492 H   0  0  0  0  0  0  0  0  0  0  0  0
    4.9916   -5.1428    2.9041 H   0  0  0  0  0  0  0  0  0  0  0  0
    3.2801   -5.0250    3.1848 H   0  0  0  0  0  0  0  0  0  0  0  0
    3.8453   -7.1320    1.8798 H   0  0  0  0  0  0  0  0  0  0  0  0
    4.5232   -6.1701    0.6107 H   0  0  0  0  0  0  0  0  0  0  0  0
    4.2873   -0.7304    1.8536 H   0  0  0  0  0  0  0  0  0  0  0  0
    5.7473   -1.4188    2.5815 H   0  0  0  0  0  0  0  0  0  0  0  0
    4.6522   -1.8460   -0.2024 H   0  0  0  0  0  0  0  0  0  0  0  0
    6.3271   -2.0053    0.3423 H   0  0  0  0  0  0  0  0  0  0  0  0
    1.4470   -6.6894    3.6114 H   0  0  0  0  0  0  0  0  0  0  0  0
    2.6513   -8.0191    3.6000 H   0  0  0  0  0  0  0  0  0  0  0  0
    1.7706  -10.3921    2.9347 H   0  0  0  0  0  0  0  0  0  0  0  0
    0.2583  -10.8787    3.6773 H   0  0  0  0  0  0  0  0  0  0  0  0
    2.5961   -9.7196    5.0190 H   0  0  0  0  0  0  0  0  0  0  0  0
  1  2  1  0
  1 23  1  0
  1 24  1  0
  1 25  1  0
  2 22  1  0
  2  3  1  0
  2 51  1  6
  3  4  1  0
  3 26  1  0
  3 27  1  0
  4  5  1  0
  4 28  1  0
  4 29  1  0
  6  5  1  1
  5 30  1  0
  5 31  1  0
  6 21  1  0
  6  7  1  0
  6 22  1  0
  7  8  1  0
  7 32  1  0
  7 33  1  0
  8  9  1  0
  8 21  1  0
  8 34  1  6
  9 10  2  0
  9 11  1  0
 11 16  1  0
 11 12  1  0
 12 13  1  0
 12 35  1  0
 12 36  1  0
 13 14  1  0
 13 37  1  0
 13 38  1  0
 14 20  1  0
 14 15  1  0
 14 17  1  0
 15 16  1  0
 15 39  1  0
 15 40  1  0
 16 41  1  0
 16 42  1  0
 17 18  1  0
 18 19  1  0
 18 43  1  0
 18 44  1  0
 19 20  1  0
 19 45  1  0
 19 46  1  0
 21 47  1  0
 21 48  1  0
 22 49  1  0
 22 50  1  0
M  CHG  1   2   1
M  END
>  <i_m_ct_stereo_status>  (92) 
1

>  <s_m_source_file>  (92) 
/var/tmp/pbs.5076255.sched01/tmps52fw2z9/0bkrl5082.sdf

>  <i_m_source_file_index>  (92) 
37

>  <i_lp_mmshare_version>  (92) 
48012

>  <i_f3d_flags>  (92) 
0

>  <s_epik_input>  (92) 
W0NIM11OKFtDSDJdMSlbQ0gyXVtDSDJdW0NIMl1bQ0BdMTJbQ0gyXVtDQEhdKFtDSDJdMilDKD1PKU4oW0NIMl1bQ0gyXTMpW0NIMl1bQ0gyXUMzNE9bQ0gyXVtDSDJdTzQ=

>  <s_epik_cmdline>  (92) 
J2VwaWtfcHl0aG9uJywgJy1waHQnLCAnMi4wJywgJy1waCcsICc3LjAnLCAnLXRuJywgJzgnLCAnLW1hJywgJzIwMCcsICctaW1hZScsICc8aW5maWxlLm1hZT4nLCAnLW9tYWUnLCAnPG91dGZpbGUubWFlPic=

>  <r_epik_Ionization_Penalty>  (92) 
0.000867409

>  <r_epik_Ionization_Penalty_Charging>  (92) 
0.000867405

>  <r_epik_Ionization_Penalty_Neutral>  (92) 
4.23065e-09

>  <r_epik_State_Penalty>  (92) 
0.000560041

>  <r_epik_Charging_Adjusted_Penalty>  (92) 
0.00142745

>  <i_epik_Tot_Q>  (92) 
1

>  <i_epik_Tot_abs_Q>  (92) 
1

>  <s_lp_Force_Field>  (92) 
OPLS3e

>  <r_lp_Energy>  (92) 
40.2991

>  <b_lp_Chiralities_Consistent>  (92) 
1

>  <s_lp_Variant>  (92) 
31:0-1

>  <s_i_glide_gridfile>  (92) 
pfpi4k_grid

>  <i_i_glide_lignum>  (92) 
37

>  <i_i_glide_rotatable_bonds>  (92) 
2

>  <r_i_docking_score>  (92) 
-3.77202

>  <r_i_glide_ligand_efficiency>  (92) 
-0.171455

>  <r_i_glide_ligand_efficiency_sa>  (92) 
-0.480425

>  <r_i_glide_ligand_efficiency_ln>  (92) 
-0.922019

>  <r_i_glide_gscore>  (92) 
-3.77202

>  <r_i_glide_lipo>  (92) 
-0.181616

>  <r_i_glide_hbond>  (92) 
-0.224127

>  <r_i_glide_metal>  (92) 
-0

>  <r_i_glide_rewards>  (92) 
-1.30952

>  <r_i_glide_evdw>  (92) 
-17.3732

>  <r_i_glide_ecoul>  (92) 
-9.52073

>  <r_i_glide_erotb>  (92) 
0.386785

>  <r_i_glide_esite>  (92) 
-0.146772

>  <r_i_glide_emodel>  (92) 
-35.4015

>  <r_i_glide_energy>  (92) 
-26.8939

>  <r_i_glide_einternal>  (92) 
0.746629

>  <r_i_glide_intrahb_reward>  (92) 
-0

>  <i_i_glide_confnum>  (92) 
5

>  <i_i_glide_posenum>  (92) 
1

>  <r_i_glide_eff_state_penalty>  (92) 
0

>  <ligand_id>  (92) 
31

>  <original_smiles>  (92) 
CN1CCCC2(CC(C(=O)N3CCC4(CC3)OCCO4)C2)C1

>  <smiles>  (92) 
[H]C1([H])OC2(OC1([H])[H])C([H])([H])C([H])([H])N(C(=O)C1([H])C([H])([H])C3(C([H])([H])C([H])([H])C([H])([H])[N+]([H])(C([H])([H])[H])C3([H])[H])C1([H])[H])C([H])([H])C2([H])[H]

$$$$
31:0:1
     RDKit          3D

 51 54  0  0  1  0  0  0  0  0999 V2000
   -2.2031    2.4598    2.7817 C   0  0  0  0  0  0  0  0  0  0  0  0
   -1.0847    2.1519    3.6945 N   0  0  2  0  0  0  0  0  0  0  0  0
   -1.2491    2.7699    5.0381 C   0  0  0  0  0  0  0  0  0  0  0  0
   -0.1387    2.3205    5.9932 C   0  0  0  0  0  0  0  0  0  0  0  0
    1.2396    2.6227    5.3966 C   0  0  0  0  0  0  0  0  0  0  0  0
    1.3985    2.0118    4.0035 C   0  0  1  0  0  0  0  0  0  0  0  0
    2.7918    2.1945    3.3770 C   0  0  0  0  0  0  0  0  0  0  0  0
    2.6861    0.7744    2.8237 C   0  0  1  0  0  0  0  0  0  0  0  0
    3.9860   -0.0332    2.9283 C   0  0  0  0  0  0  0  0  0  0  0  0
    4.6421    0.0671    3.9601 O   0  0  0  0  0  0  0  0  0  0  0  0
    4.3778   -0.8348    1.9074 N   0  0  0  0  0  0  0  0  0  0  0  0
    5.6478   -1.5767    1.9955 C   0  0  0  0  0  0  0  0  0  0  0  0
    6.4319   -1.5336    0.6705 C   0  0  0  0  0  0  0  0  0  0  0  0
    5.5240   -2.0012   -0.4843 C   0  0  0  0  0  0  0  0  0  0  0  0
    4.2453   -1.1512   -0.5488 C   0  0  0  0  0  0  0  0  0  0  0  0
    3.5171   -1.2507    0.7915 C   0  0  0  0  0  0  0  0  0  0  0  0
    5.2053   -3.3391   -0.3039 O   0  0  0  0  0  0  0  0  0  0  0  0
    4.9027   -3.8311   -1.5906 C   0  0  0  0  0  0  0  0  0  0  0  0
    5.8407   -2.9975   -2.4685 C   0  0  0  0  0  0  0  0  0  0  0  0
    6.2043   -1.8728   -1.6800 O   0  0  0  0  0  0  0  0  0  0  0  0
    1.6865    0.4996    3.9519 C   0  0  0  0  0  0  0  0  0  0  0  0
    0.2327    2.4829    3.1129 C   0  0  0  0  0  0  0  0  0  0  0  0
   -2.2212    3.5241    2.5300 H   0  0  0  0  0  0  0  0  0  0  0  0
   -3.1601    2.2030    3.2361 H   0  0  0  0  0  0  0  0  0  0  0  0
   -2.1207    1.8826    1.8553 H   0  0  0  0  0  0  0  0  0  0  0  0
   -1.2142    3.8545    4.9251 H   0  0  0  0  0  0  0  0  0  0  0  0
   -2.2178    2.5063    5.4566 H   0  0  0  0  0  0  0  0  0  0  0  0
   -0.2321    2.8242    6.9575 H   0  0  0  0  0  0  0  0  0  0  0  0
   -0.2205    1.2512    6.1916 H   0  0  0  0  0  0  0  0  0  0  0  0
    1.3922    3.7027    5.3308 H   0  0  0  0  0  0  0  0  0  0  0  0
    2.0122    2.2405    6.0676 H   0  0  0  0  0  0  0  0  0  0  0  0
    2.8292    2.9460    2.5886 H   0  0  0  0  0  0  0  0  0  0  0  0
    3.5895    2.3705    4.1066 H   0  0  0  0  0  0  0  0  0  0  0  0
    2.2215    0.8406    1.8473 H   0  0  0  0  0  0  0  0  0  0  0  0
    6.3172   -1.2092    2.7732 H   0  0  0  0  0  0  0  0  0  0  0  0
    5.4160   -2.6009    2.2696 H   0  0  0  0  0  0  0  0  0  0  0  0
    6.7692   -0.5144    0.4668 H   0  0  0  0  0  0  0  0  0  0  0  0
    7.3237   -2.1632    0.7095 H   0  0  0  0  0  0  0  0  0  0  0  0
    4.5280   -0.1252   -0.7746 H   0  0  0  0  0  0  0  0  0  0  0  0
    3.5859   -1.4785   -1.3521 H   0  0  0  0  0  0  0  0  0  0  0  0
    3.1911   -2.2764    0.9835 H   0  0  0  0  0  0  0  0  0  0  0  0
    2.6101   -0.6800    0.6437 H   0  0  0  0  0  0  0  0  0  0  0  0
    5.0605   -4.9047   -1.6750 H   0  0  0  0  0  0  0  0  0  0  0  0
    3.8551   -3.6434   -1.8289 H   0  0  0  0  0  0  0  0  0  0  0  0
    6.7463   -3.5498   -2.7197 H   0  0  0  0  0  0  0  0  0  0  0  0
    5.3580   -2.6785   -3.3935 H   0  0  0  0  0  0  0  0  0  0  0  0
    2.1254    0.0967    4.8695 H   0  0  0  0  0  0  0  0  0  0  0  0
    0.8487   -0.1166    3.6391 H   0  0  0  0  0  0  0  0  0  0  0  0
    0.2851    1.9960    2.1356 H   0  0  0  0  0  0  0  0  0  0  0  0
    0.3027    3.5569    2.9035 H   0  0  0  0  0  0  0  0  0  0  0  0
   -1.0883    1.1450    3.8207 H   0  0  0  0  0  0  0  0  0  0  0  0
  1  2  1  0
  1 23  1  0
  1 24  1  0
  1 25  1  0
  2 22  1  0
  2  3  1  0
  2 51  1  1
  3  4  1  0
  3 26  1  0
  3 27  1  0
  4  5  1  0
  4 28  1  0
  4 29  1  0
  6  5  1  1
  5 30  1  0
  5 31  1  0
  6 21  1  0
  6  7  1  0
  6 22  1  0
  7  8  1  0
  7 32  1  0
  7 33  1  0
  8  9  1  0
  8 21  1  0
  8 34  1  6
  9 10  2  0
  9 11  1  0
 11 16  1  0
 11 12  1  0
 12 13  1  0
 12 35  1  0
 12 36  1  0
 13 14  1  0
 13 37  1  0
 13 38  1  0
 14 20  1  0
 14 15  1  0
 14 17  1  0
 15 16  1  0
 15 39  1  0
 15 40  1  0
 16 41  1  0
 16 42  1  0
 17 18  1  0
 18 19  1  0
 18 43  1  0
 18 44  1  0
 19 20  1  0
 19 45  1  0
 19 46  1  0
 21 47  1  0
 21 48  1  0
 22 49  1  0
 22 50  1  0
M  CHG  1   2   1
M  END
>  <i_m_ct_stereo_status>  (93) 
1

>  <s_m_source_file>  (93) 
/var/tmp/pbs.5076255.sched01/tmps52fw2z9/0bkrl5082.sdf

>  <i_m_source_file_index>  (93) 
37

>  <i_lp_mmshare_version>  (93) 
48012

>  <i_f3d_flags>  (93) 
0

>  <s_epik_input>  (93) 
W0NIM11OKFtDSDJdMSlbQ0gyXVtDSDJdW0NIMl1bQ0BdMTJbQ0gyXVtDQEhdKFtDSDJdMilDKD1PKU4oW0NIMl1bQ0gyXTMpW0NIMl1bQ0gyXUMzNE9bQ0gyXVtDSDJdTzQ=

>  <s_epik_cmdline>  (93) 
J2VwaWtfcHl0aG9uJywgJy1waHQnLCAnMi4wJywgJy1waCcsICc3LjAnLCAnLXRuJywgJzgnLCAnLW1hJywgJzIwMCcsICctaW1hZScsICc8aW5maWxlLm1hZT4nLCAnLW9tYWUnLCAnPG91dGZpbGUubWFlPic=

>  <r_epik_Ionization_Penalty>  (93) 
0.000867409

>  <r_epik_Ionization_Penalty_Charging>  (93) 
0.000867405

>  <r_epik_Ionization_Penalty_Neutral>  (93) 
4.23065e-09

>  <r_epik_State_Penalty>  (93) 
0.000560041

>  <r_epik_Charging_Adjusted_Penalty>  (93) 
0.00142745

>  <i_epik_Tot_Q>  (93) 
1

>  <i_epik_Tot_abs_Q>  (93) 
1

>  <s_lp_Force_Field>  (93) 
OPLS3e

>  <r_lp_Energy>  (93) 
40.2991

>  <b_lp_Chiralities_Consistent>  (93) 
1

>  <s_lp_Variant>  (93) 
31:0-1

>  <s_i_glide_gridfile>  (93) 
pfpi4k_grid

>  <i_i_glide_lignum>  (93) 
37

>  <i_i_glide_rotatable_bonds>  (93) 
2

>  <r_i_docking_score>  (93) 
-3.42997

>  <r_i_glide_ligand_efficiency>  (93) 
-0.155908

>  <r_i_glide_ligand_efficiency_sa>  (93) 
-0.436859

>  <r_i_glide_ligand_efficiency_ln>  (93) 
-0.838409

>  <r_i_glide_gscore>  (93) 
-3.42997

>  <r_i_glide_lipo>  (93) 
-0.363649

>  <r_i_glide_hbond>  (93) 
-0.139995

>  <r_i_glide_metal>  (93) 
-0

>  <r_i_glide_rewards>  (93) 
-1.40452

>  <r_i_glide_evdw>  (93) 
-20.4249

>  <r_i_glide_ecoul>  (93) 
-5.53372

>  <r_i_glide_erotb>  (93) 
0.386785

>  <r_i_glide_esite>  (93) 
-0.0572838

>  <r_i_glide_emodel>  (93) 
-33.7894

>  <r_i_glide_energy>  (93) 
-25.9586

>  <r_i_glide_einternal>  (93) 
0.127316

>  <r_i_glide_intrahb_reward>  (93) 
-0

>  <i_i_glide_confnum>  (93) 
2

>  <i_i_glide_posenum>  (93) 
32

>  <r_i_glide_eff_state_penalty>  (93) 
0

>  <ligand_id>  (93) 
31

>  <original_smiles>  (93) 
CN1CCCC2(CC(C(=O)N3CCC4(CC3)OCCO4)C2)C1

>  <smiles>  (93) 
[H]C1([H])OC2(OC1([H])[H])C([H])([H])C([H])([H])N(C(=O)C1([H])C([H])([H])C3(C([H])([H])C([H])([H])C([H])([H])[N+]([H])(C([H])([H])[H])C3([H])[H])C1([H])[H])C([H])([H])C2([H])[H]

$$$$
31:0:2
     RDKit          3D

 51 54  0  0  1  0  0  0  0  0999 V2000
    4.9296  -11.7262    4.4476 C   0  0  0  0  0  0  0  0  0  0  0  0
    3.7517  -10.8124    4.4420 N   0  0  2  0  0  0  0  0  0  0  0  0
    2.6357  -11.3066    5.2767 C   0  0  0  0  0  0  0  0  0  0  0  0
    1.4994  -10.2724    5.3342 C   0  0  0  0  0  0  0  0  0  0  0  0
    1.0381   -9.9059    3.9223 C   0  0  0  0  0  0  0  0  0  0  0  0
    2.2042   -9.4253    3.0604 C   0  0  1  0  0  0  0  0  0  0  0  0
    1.8091   -8.9525    1.6507 C   0  0  0  0  0  0  0  0  0  0  0  0
    2.8006   -7.8013    1.7736 C   0  0  1  0  0  0  0  0  0  0  0  0
    2.2762   -6.4615    1.2704 C   0  0  0  0  0  0  0  0  0  0  0  0
    1.0597   -6.2448    1.2441 O   0  0  0  0  0  0  0  0  0  0  0  0
    3.1564   -5.5557    0.7928 N   0  0  0  0  0  0  0  0  0  0  0  0
    2.7128   -4.4061    0.0065 C   0  0  0  0  0  0  0  0  0  0  0  0
    2.8536   -3.1538    0.8777 C   0  0  0  0  0  0  0  0  0  0  0  0
    4.3556   -2.9996    1.2799 C   0  0  0  0  0  0  0  0  0  0  0  0
    4.8861   -4.2763    1.9758 C   0  0  0  0  0  0  0  0  0  0  0  0
    4.6016   -5.5091    1.1030 C   0  0  0  0  0  0  0  0  0  0  0  0
    4.4951   -1.9293    2.1384 O   0  0  0  0  0  0  0  0  0  0  0  0
    4.8386   -0.8099    1.3402 C   0  0  0  0  0  0  0  0  0  0  0  0
    5.0068   -1.3572   -0.0795 C   0  0  0  0  0  0  0  0  0  0  0  0
    5.1295   -2.7449    0.1445 O   0  0  0  0  0  0  0  0  0  0  0  0
    2.6930   -7.9808    3.2901 C   0  0  0  0  0  0  0  0  0  0  0  0
    3.3062  -10.5003    3.0600 C   0  0  0  0  0  0  0  0  0  0  0  0
    4.6791  -12.6823    3.9884 H   0  0  0  0  0  0  0  0  0  0  0  0
    5.2678  -11.9133    5.4688 H   0  0  0  0  0  0  0  0  0  0  0  0
    5.7696  -11.2976    3.9002 H   0  0  0  0  0  0  0  0  0  0  0  0
    2.2561  -12.2426    4.8681 H   0  0  0  0  0  0  0  0  0  0  0  0
    3.0046  -11.5098    6.2825 H   0  0  0  0  0  0  0  0  0  0  0  0
    0.6545  -10.6583    5.9046 H   0  0  0  0  0  0  0  0  0  0  0  0
    1.8343   -9.3762    5.8545 H   0  0  0  0  0  0  0  0  0  0  0  0
    0.5633  -10.7679    3.4526 H   0  0  0  0  0  0  0  0  0  0  0  0
    0.2637   -9.1377    3.9888 H   0  0  0  0  0  0  0  0  0  0  0  0
    2.0707   -9.6664    0.8770 H   0  0  0  0  0  0  0  0  0  0  0  0
    0.7630   -8.6663    1.5929 H   0  0  0  0  0  0  0  0  0  0  0  0
    3.7493   -8.1134    1.3479 H   0  0  0  0  0  0  0  0  0  0  0  0
    3.3241   -4.3496   -0.8916 H   0  0  0  0  0  0  0  0  0  0  0  0
    1.6906   -4.4712   -0.3644 H   0  0  0  0  0  0  0  0  0  0  0  0
    2.4775   -2.2694    0.3633 H   0  0  0  0  0  0  0  0  0  0  0  0
    2.2701   -3.2567    1.7941 H   0  0  0  0  0  0  0  0  0  0  0  0
    5.9513   -4.1687    2.2057 H   0  0  0  0  0  0  0  0  0  0  0  0
    4.3726   -4.3862    2.9293 H   0  0  0  0  0  0  0  0  0  0  0  0
    4.9713   -6.3697    1.6556 H   0  0  0  0  0  0  0  0  0  0  0  0
    5.1813   -5.4795    0.1816 H   0  0  0  0  0  0  0  0  0  0  0  0
    4.0552   -0.0552    1.3971 H   0  0  0  0  0  0  0  0  0  0  0  0
    5.7682   -0.3838    1.7168 H   0  0  0  0  0  0  0  0  0  0  0  0
    4.1227   -1.1708   -0.6921 H   0  0  0  0  0  0  0  0  0  0  0  0
    5.8649   -0.9374   -0.6011 H   0  0  0  0  0  0  0  0  0  0  0  0
    1.9378   -7.3345    3.7429 H   0  0  0  0  0  0  0  0  0  0  0  0
    3.6408   -7.8938    3.8179 H   0  0  0  0  0  0  0  0  0  0  0  0
    4.1709  -10.1409    2.5033 H   0  0  0  0  0  0  0  0  0  0  0  0
    2.9717  -11.4066    2.5515 H   0  0  0  0  0  0  0  0  0  0  0  0
    4.0563   -9.9453    4.8364 H   0  0  0  0  0  0  0  0  0  0  0  0
  1  2  1  0
  1 23  1  0
  1 24  1  0
  1 25  1  0
  2 22  1  0
  2  3  1  0
  2 51  1  1
  3  4  1  0
  3 26  1  0
  3 27  1  0
  4  5  1  0
  4 28  1  0
  4 29  1  0
  6  5  1  1
  5 30  1  0
  5 31  1  0
  6 21  1  0
  6  7  1  0
  6 22  1  0
  7  8  1  0
  7 32  1  0
  7 33  1  0
  8  9  1  0
  8 21  1  0
  8 34  1  6
  9 10  2  0
  9 11  1  0
 11 16  1  0
 11 12  1  0
 12 13  1  0
 12 35  1  0
 12 36  1  0
 13 14  1  0
 13 37  1  0
 13 38  1  0
 14 20  1  0
 14 15  1  0
 14 17  1  0
 15 16  1  0
 15 39  1  0
 15 40  1  0
 16 41  1  0
 16 42  1  0
 17 18  1  0
 18 19  1  0
 18 43  1  0
 18 44  1  0
 19 20  1  0
 19 45  1  0
 19 46  1  0
 21 47  1  0
 21 48  1  0
 22 49  1  0
 22 50  1  0
M  CHG  1   2   1
M  END
>  <i_m_ct_stereo_status>  (94) 
1

>  <s_m_source_file>  (94) 
/var/tmp/pbs.5076255.sched01/tmps52fw2z9/0bkrl5082.sdf

>  <i_m_source_file_index>  (94) 
37

>  <i_lp_mmshare_version>  (94) 
48012

>  <i_f3d_flags>  (94) 
0

>  <s_epik_input>  (94) 
W0NIM11OKFtDSDJdMSlbQ0gyXVtDSDJdW0NIMl1bQ0BdMTJbQ0gyXVtDQEhdKFtDSDJdMilDKD1PKU4oW0NIMl1bQ0gyXTMpW0NIMl1bQ0gyXUMzNE9bQ0gyXVtDSDJdTzQ=

>  <s_epik_cmdline>  (94) 
J2VwaWtfcHl0aG9uJywgJy1waHQnLCAnMi4wJywgJy1waCcsICc3LjAnLCAnLXRuJywgJzgnLCAnLW1hJywgJzIwMCcsICctaW1hZScsICc8aW5maWxlLm1hZT4nLCAnLW9tYWUnLCAnPG91dGZpbGUubWFlPic=

>  <r_epik_Ionization_Penalty>  (94) 
0.000867409

>  <r_epik_Ionization_Penalty_Charging>  (94) 
0.000867405

>  <r_epik_Ionization_Penalty_Neutral>  (94) 
4.23065e-09

>  <r_epik_State_Penalty>  (94) 
0.000560041

>  <r_epik_Charging_Adjusted_Penalty>  (94) 
0.00142745

>  <i_epik_Tot_Q>  (94) 
1

>  <i_epik_Tot_abs_Q>  (94) 
1

>  <s_lp_Force_Field>  (94) 
OPLS3e

>  <r_lp_Energy>  (94) 
40.2991

>  <b_lp_Chiralities_Consistent>  (94) 
1

>  <s_lp_Variant>  (94) 
31:0-1

>  <s_i_glide_gridfile>  (94) 
pfpi4k_grid

>  <i_i_glide_lignum>  (94) 
37

>  <i_i_glide_rotatable_bonds>  (94) 
2

>  <r_i_docking_score>  (94) 
-3.31179

>  <r_i_glide_ligand_efficiency>  (94) 
-0.150536

>  <r_i_glide_ligand_efficiency_sa>  (94) 
-0.421807

>  <r_i_glide_ligand_efficiency_ln>  (94) 
-0.809522

>  <r_i_glide_gscore>  (94) 
-3.31179

>  <r_i_glide_lipo>  (94) 
-0.205976

>  <r_i_glide_hbond>  (94) 
-0.16

>  <r_i_glide_metal>  (94) 
-0

>  <r_i_glide_rewards>  (94) 
-1.31691

>  <r_i_glide_evdw>  (94) 
-19.4956

>  <r_i_glide_ecoul>  (94) 
-6.65693

>  <r_i_glide_erotb>  (94) 
0.386785

>  <r_i_glide_esite>  (94) 
-0.0423628

>  <r_i_glide_emodel>  (94) 
-33.7638

>  <r_i_glide_energy>  (94) 
-26.1525

>  <r_i_glide_einternal>  (94) 
0.569775

>  <r_i_glide_intrahb_reward>  (94) 
-0

>  <i_i_glide_confnum>  (94) 
5

>  <i_i_glide_posenum>  (94) 
17

>  <r_i_glide_eff_state_penalty>  (94) 
0

>  <ligand_id>  (94) 
31

>  <original_smiles>  (94) 
CN1CCCC2(CC(C(=O)N3CCC4(CC3)OCCO4)C2)C1

>  <smiles>  (94) 
[H]C1([H])OC2(OC1([H])[H])C([H])([H])C([H])([H])N(C(=O)C1([H])C([H])([H])C3(C([H])([H])C([H])([H])C([H])([H])[N+]([H])(C([H])([H])[H])C3([H])[H])C1([H])[H])C([H])([H])C2([H])[H]

$$$$
32:0:0
     RDKit          3D

 32 34  0  0  1  0  0  0  0  0999 V2000
   -1.6007    1.8026    2.7297 C   0  0  0  0  0  0  0  0  0  0  0  0
   -0.4572    2.4518    3.3361 N   0  0  0  0  0  0  0  0  0  0  0  0
   -0.6272    3.2544    4.4161 N   0  0  0  0  0  0  0  0  0  0  0  0
    0.5602    3.6741    4.7543 N   0  0  0  0  0  0  0  0  0  0  0  0
    1.5351    3.1585    3.9205 N   0  0  0  0  0  0  0  0  0  0  0  0
    0.8552    2.4026    3.0642 C   0  0  0  0  0  0  0  0  0  0  0  0
    1.4514    1.6141    1.9337 C   0  0  0  0  0  0  0  0  0  0  0  0
    2.2666    0.4013    2.4034 C   0  0  0  0  0  0  0  0  0  0  0  0
    2.6164   -0.4682    1.2785 N   0  0  0  0  0  0  0  0  0  0  0  0
    3.9342   -0.8809    1.0356 C   0  0  0  0  0  0  0  0  0  0  0  0
    4.9094   -0.6616    1.9471 N   0  0  0  0  0  0  0  0  0  0  0  0
    6.1577   -1.0579    1.6848 C   0  0  0  0  0  0  0  0  0  0  0  0
    6.6328   -1.6711    0.5981 N   0  0  0  0  0  0  0  0  0  0  0  0
    5.6380   -1.8982   -0.3000 C   0  0  0  0  0  0  0  0  0  0  0  0
    4.2795   -1.5354   -0.1654 C   0  0  0  0  0  0  0  0  0  0  0  0
    3.6563   -1.9701   -1.3728 C   0  0  0  0  0  0  0  0  0  0  0  0
    4.5181   -2.5312   -2.1891 N   0  0  0  0  0  0  0  0  0  0  0  0
    5.7152   -2.5010   -1.5445 N   0  0  0  0  0  0  0  0  0  0  0  0
    6.8783   -3.0565   -2.1967 C   0  0  0  0  0  0  0  0  0  0  0  0
   -1.4223    1.5900    1.6795 H   0  0  0  0  0  0  0  0  0  0  0  0
   -2.4815    2.4438    2.7943 H   0  0  0  0  0  0  0  0  0  0  0  0
   -1.7889    0.8637    3.2478 H   0  0  0  0  0  0  0  0  0  0  0  0
    0.6684    1.2925    1.2471 H   0  0  0  0  0  0  0  0  0  0  0  0
    2.0733    2.2861    1.3483 H   0  0  0  0  0  0  0  0  0  0  0  0
    3.1410    0.7672    2.9447 H   0  0  0  0  0  0  0  0  0  0  0  0
    1.6828   -0.1899    3.1097 H   0  0  0  0  0  0  0  0  0  0  0  0
    6.8754   -0.8470    2.4622 H   0  0  0  0  0  0  0  0  0  0  0  0
    2.6225   -1.8728   -1.6655 H   0  0  0  0  0  0  0  0  0  0  0  0
    7.4021   -3.7151   -1.5073 H   0  0  0  0  0  0  0  0  0  0  0  0
    7.5521   -2.2572   -2.4805 H   0  0  0  0  0  0  0  0  0  0  0  0
    6.5839   -3.6159   -3.0836 H   0  0  0  0  0  0  0  0  0  0  0  0
    1.9164   -0.6501    0.5599 H   0  0  0  0  0  0  0  0  0  0  0  0
  1  2  1  0
  1 20  1  0
  1 21  1  0
  1 22  1  0
  2  6  1  0
  2  3  1  0
  3  4  2  0
  4  5  1  0
  5  6  2  0
  6  7  1  0
  7  8  1  0
  7 23  1  0
  7 24  1  0
  8  9  1  0
  8 25  1  0
  8 26  1  0
  9 10  1  0
  9 32  1  0
 10 15  1  0
 10 11  2  0
 11 12  1  0
 12 13  2  0
 12 27  1  0
 13 14  1  0
 14 18  1  0
 14 15  2  0
 15 16  1  0
 16 17  2  0
 16 28  1  0
 17 18  1  0
 18 19  1  0
 19 29  1  0
 19 30  1  0
 19 31  1  0
M  END
>  <i_m_ct_stereo_status>  (95) 
1

>  <s_m_source_file>  (95) 
/var/tmp/pbs.5076255.sched01/tmps52fw2z9/0bkrl5082.sdf

>  <i_m_source_file_index>  (95) 
38

>  <i_lp_mmshare_version>  (95) 
48012

>  <i_f3d_flags>  (95) 
0

>  <s_epik_input>  (95) 
W0NIM11uMW5ubmMxW0NIMl1bQ0gyXS9OPWMoL1tuSF1bY0hdbjIpYyhjMjMpW2NIXW5uM1tDSDNd

>  <s_epik_cmdline>  (95) 
J2VwaWtfcHl0aG9uJywgJy1waHQnLCAnMi4wJywgJy1waCcsICc3LjAnLCAnLXRuJywgJzgnLCAnLW1hJywgJzIwMCcsICctaW1hZScsICc8aW5maWxlLm1hZT4nLCAnLW9tYWUnLCAnPG91dGZpbGUubWFlPic=

>  <r_lp_tautomer_probability>  (95) 
1

>  <r_epik_Ionization_Penalty>  (95) 
0.000230339

>  <r_epik_Ionization_Penalty_Charging>  (95) 
0

>  <r_epik_Ionization_Penalty_Neutral>  (95) 
0.000230339

>  <r_epik_State_Penalty>  (95) 
-0

>  <r_epik_Charging_Adjusted_Penalty>  (95) 
0

>  <i_epik_Tot_Q>  (95) 
0

>  <i_epik_Tot_abs_Q>  (95) 
0

>  <s_lp_Force_Field>  (95) 
OPLS3e

>  <r_lp_Energy>  (95) 
11.4568

>  <b_lp_Chiralities_Consistent>  (95) 
1

>  <s_lp_Variant>  (95) 
32:0-1

>  <s_i_glide_gridfile>  (95) 
pfpi4k_grid

>  <i_i_glide_lignum>  (95) 
38

>  <i_i_glide_rotatable_bonds>  (95) 
4

>  <r_i_docking_score>  (95) 
-3.47548

>  <r_i_glide_ligand_efficiency>  (95) 
-0.18292

>  <r_i_glide_ligand_efficiency_sa>  (95) 
-0.488104

>  <r_i_glide_ligand_efficiency_ln>  (95) 
-0.88111

>  <r_i_glide_gscore>  (95) 
-3.47548

>  <r_i_glide_lipo>  (95) 
0

>  <r_i_glide_hbond>  (95) 
-0.16

>  <r_i_glide_metal>  (95) 
-0

>  <r_i_glide_rewards>  (95) 
-1.80931

>  <r_i_glide_evdw>  (95) 
-25.2904

>  <r_i_glide_ecoul>  (95) 
-6.47171

>  <r_i_glide_erotb>  (95) 
1.05209

>  <r_i_glide_esite>  (95) 
-0.322978

>  <r_i_glide_emodel>  (95) 
-39.206

>  <r_i_glide_energy>  (95) 
-31.7622

>  <r_i_glide_einternal>  (95) 
1.14068

>  <r_i_glide_intrahb_reward>  (95) 
-0

>  <i_i_glide_confnum>  (95) 
6

>  <i_i_glide_posenum>  (95) 
1

>  <r_i_glide_eff_state_penalty>  (95) 
0

>  <ligand_id>  (95) 
32

>  <original_smiles>  (95) 
Cn1nnnc1CCN=c1[nH]cnc2c1cnn2C

>  <smiles>  (95) 
[H]c1nc(N([H])C([H])([H])C([H])([H])c2nnnn2C([H])([H])[H])c2c([H])nn(C([H])([H])[H])c2n1

$$$$
32:0:1
     RDKit          3D

 32 34  0  0  1  0  0  0  0  0999 V2000
    1.9663    4.1531    3.1633 C   0  0  0  0  0  0  0  0  0  0  0  0
    0.9027    3.2712    3.6067 N   0  0  0  0  0  0  0  0  0  0  0  0
    0.1145    3.6113    4.6548 N   0  0  0  0  0  0  0  0  0  0  0  0
   -0.7426    2.6403    4.8033 N   0  0  0  0  0  0  0  0  0  0  0  0
   -0.5366    1.6379    3.8774 N   0  0  0  0  0  0  0  0  0  0  0  0
    0.4834    2.0845    3.1527 C   0  0  0  0  0  0  0  0  0  0  0  0
    1.0914    1.3642    1.9936 C   0  0  0  0  0  0  0  0  0  0  0  0
    2.2747    0.4526    2.3715 C   0  0  0  0  0  0  0  0  0  0  0  0
    2.6158   -0.4525    1.2775 N   0  0  0  0  0  0  0  0  0  0  0  0
    3.9291   -0.8729    1.0310 C   0  0  0  0  0  0  0  0  0  0  0  0
    4.9017   -0.6539    1.9441 N   0  0  0  0  0  0  0  0  0  0  0  0
    6.1484   -1.0573    1.6890 C   0  0  0  0  0  0  0  0  0  0  0  0
    6.6274   -1.6668    0.6031 N   0  0  0  0  0  0  0  0  0  0  0  0
    5.6367   -1.8904   -0.3007 C   0  0  0  0  0  0  0  0  0  0  0  0
    4.2778   -1.5255   -0.1704 C   0  0  0  0  0  0  0  0  0  0  0  0
    3.6587   -1.9575   -1.3855 C   0  0  0  0  0  0  0  0  0  0  0  0
    4.5265   -2.5161   -2.1967 N   0  0  0  0  0  0  0  0  0  0  0  0
    5.7203   -2.4921   -1.5440 N   0  0  0  0  0  0  0  0  0  0  0  0
    6.8838   -3.0534   -2.1902 C   0  0  0  0  0  0  0  0  0  0  0  0
    2.7475    3.5887    2.6499 H   0  0  0  0  0  0  0  0  0  0  0  0
    2.4095    4.6637    4.0205 H   0  0  0  0  0  0  0  0  0  0  0  0
    1.5583    4.8985    2.4812 H   0  0  0  0  0  0  0  0  0  0  0  0
    0.2989    0.8142    1.4874 H   0  0  0  0  0  0  0  0  0  0  0  0
    1.4175    2.1149    1.2785 H   0  0  0  0  0  0  0  0  0  0  0  0
    3.1244    1.0797    2.6543 H   0  0  0  0  0  0  0  0  0  0  0  0
    2.0132   -0.1559    3.2370 H   0  0  0  0  0  0  0  0  0  0  0  0
    6.8602   -0.8443    2.4682 H   0  0  0  0  0  0  0  0  0  0  0  0
    2.6237   -1.8613   -1.6848 H   0  0  0  0  0  0  0  0  0  0  0  0
    7.4004   -3.7144   -1.4969 H   0  0  0  0  0  0  0  0  0  0  0  0
    7.5623   -2.2564   -2.4679 H   0  0  0  0  0  0  0  0  0  0  0  0
    6.5890   -3.6088   -3.0800 H   0  0  0  0  0  0  0  0  0  0  0  0
    1.9109   -0.6434    0.5601 H   0  0  0  0  0  0  0  0  0  0  0  0
  1  2  1  0
  1 20  1  0
  1 21  1  0
  1 22  1  0
  2  6  1  0
  2  3  1  0
  3  4  2  0
  4  5  1  0
  5  6  2  0
  6  7  1  0
  7  8  1  0
  7 23  1  0
  7 24  1  0
  8  9  1  0
  8 25  1  0
  8 26  1  0
  9 10  1  0
  9 32  1  0
 10 15  1  0
 10 11  2  0
 11 12  1  0
 12 13  2  0
 12 27  1  0
 13 14  1  0
 14 18  1  0
 14 15  2  0
 15 16  1  0
 16 17  2  0
 16 28  1  0
 17 18  1  0
 18 19  1  0
 19 29  1  0
 19 30  1  0
 19 31  1  0
M  END
>  <i_m_ct_stereo_status>  (96) 
1

>  <s_m_source_file>  (96) 
/var/tmp/pbs.5076255.sched01/tmps52fw2z9/0bkrl5082.sdf

>  <i_m_source_file_index>  (96) 
38

>  <i_lp_mmshare_version>  (96) 
48012

>  <i_f3d_flags>  (96) 
0

>  <s_epik_input>  (96) 
W0NIM11uMW5ubmMxW0NIMl1bQ0gyXS9OPWMoL1tuSF1bY0hdbjIpYyhjMjMpW2NIXW5uM1tDSDNd

>  <s_epik_cmdline>  (96) 
J2VwaWtfcHl0aG9uJywgJy1waHQnLCAnMi4wJywgJy1waCcsICc3LjAnLCAnLXRuJywgJzgnLCAnLW1hJywgJzIwMCcsICctaW1hZScsICc8aW5maWxlLm1hZT4nLCAnLW9tYWUnLCAnPG91dGZpbGUubWFlPic=

>  <r_lp_tautomer_probability>  (96) 
1

>  <r_epik_Ionization_Penalty>  (96) 
0.000230339

>  <r_epik_Ionization_Penalty_Charging>  (96) 
0

>  <r_epik_Ionization_Penalty_Neutral>  (96) 
0.000230339

>  <r_epik_State_Penalty>  (96) 
-0

>  <r_epik_Charging_Adjusted_Penalty>  (96) 
0

>  <i_epik_Tot_Q>  (96) 
0

>  <i_epik_Tot_abs_Q>  (96) 
0

>  <s_lp_Force_Field>  (96) 
OPLS3e

>  <r_lp_Energy>  (96) 
11.4568

>  <b_lp_Chiralities_Consistent>  (96) 
1

>  <s_lp_Variant>  (96) 
32:0-1

>  <s_i_glide_gridfile>  (96) 
pfpi4k_grid

>  <i_i_glide_lignum>  (96) 
38

>  <i_i_glide_rotatable_bonds>  (96) 
4

>  <r_i_docking_score>  (96) 
-3.47017

>  <r_i_glide_ligand_efficiency>  (96) 
-0.18264

>  <r_i_glide_ligand_efficiency_sa>  (96) 
-0.487358

>  <r_i_glide_ligand_efficiency_ln>  (96) 
-0.879762

>  <r_i_glide_gscore>  (96) 
-3.47017

>  <r_i_glide_lipo>  (96) 
0

>  <r_i_glide_hbond>  (96) 
-0.16

>  <r_i_glide_metal>  (96) 
-0

>  <r_i_glide_rewards>  (96) 
-1.81078

>  <r_i_glide_evdw>  (96) 
-25.2364

>  <r_i_glide_ecoul>  (96) 
-6.58899

>  <r_i_glide_erotb>  (96) 
1.05209

>  <r_i_glide_esite>  (96) 
-0.301306

>  <r_i_glide_emodel>  (96) 
-39.0919

>  <r_i_glide_energy>  (96) 
-31.8254

>  <r_i_glide_einternal>  (96) 
1.4068

>  <r_i_glide_intrahb_reward>  (96) 
-0

>  <i_i_glide_confnum>  (96) 
6

>  <i_i_glide_posenum>  (96) 
9

>  <r_i_glide_eff_state_penalty>  (96) 
0

>  <ligand_id>  (96) 
32

>  <original_smiles>  (96) 
Cn1nnnc1CCN=c1[nH]cnc2c1cnn2C

>  <smiles>  (96) 
[H]c1nc(N([H])C([H])([H])C([H])([H])c2nnnn2C([H])([H])[H])c2c([H])nn(C([H])([H])[H])c2n1

$$$$
32:0:2
     RDKit          3D

 32 34  0  0  1  0  0  0  0  0999 V2000
    3.0223   -2.1670   -1.8996 C   0  0  0  0  0  0  0  0  0  0  0  0
    4.0790   -1.8689   -0.9522 N   0  0  0  0  0  0  0  0  0  0  0  0
    5.3624   -1.7276   -1.3756 N   0  0  0  0  0  0  0  0  0  0  0  0
    6.0817   -1.4797   -0.3217 N   0  0  0  0  0  0  0  0  0  0  0  0
    5.3038   -1.4354    0.8170 N   0  0  0  0  0  0  0  0  0  0  0  0
    4.0752   -1.6814    0.3759 C   0  0  0  0  0  0  0  0  0  0  0  0
    2.8588   -1.7703    1.2544 C   0  0  0  0  0  0  0  0  0  0  0  0
    2.3245   -0.3934    1.6895 C   0  0  0  0  0  0  0  0  0  0  0  0
    1.2058   -0.5373    2.6149 N   0  0  0  0  0  0  0  0  0  0  0  0
    0.5893    0.5853    3.1827 C   0  0  0  0  0  0  0  0  0  0  0  0
    0.8878    1.8268    2.7471 N   0  0  0  0  0  0  0  0  0  0  0  0
    0.2739    2.8812    3.2928 C   0  0  0  0  0  0  0  0  0  0  0  0
   -0.6224    2.9044    4.2866 N   0  0  0  0  0  0  0  0  0  0  0  0
   -0.8971    1.6470    4.7254 C   0  0  0  0  0  0  0  0  0  0  0  0
   -0.3436    0.4416    4.2322 C   0  0  0  0  0  0  0  0  0  0  0  0
   -0.9421   -0.5952    5.0097 C   0  0  0  0  0  0  0  0  0  0  0  0
   -1.7739   -0.1128    5.9045 N   0  0  0  0  0  0  0  0  0  0  0  0
   -1.7501    1.2408    5.7442 N   0  0  0  0  0  0  0  0  0  0  0  0
   -2.5715    2.0629    6.6131 C   0  0  0  0  0  0  0  0  0  0  0  0
    2.2121   -2.7120   -1.4194 H   0  0  0  0  0  0  0  0  0  0  0  0
    3.4046   -2.7915   -2.7101 H   0  0  0  0  0  0  0  0  0  0  0  0
    2.6298   -1.2342   -2.3109 H   0  0  0  0  0  0  0  0  0  0  0  0
    2.0744   -2.3324    0.7501 H   0  0  0  0  0  0  0  0  0  0  0  0
    3.1228   -2.3798    2.1194 H   0  0  0  0  0  0  0  0  0  0  0  0
    3.1223    0.1782    2.1675 H   0  0  0  0  0  0  0  0  0  0  0  0
    2.0071    0.1721    0.8103 H   0  0  0  0  0  0  0  0  0  0  0  0
    0.5574    3.8414    2.8922 H   0  0  0  0  0  0  0  0  0  0  0  0
   -0.7707   -1.6585    4.9465 H   0  0  0  0  0  0  0  0  0  0  0  0
   -3.1370    2.7748    6.0105 H   0  0  0  0  0  0  0  0  0  0  0  0
   -1.9352    2.6097    7.3106 H   0  0  0  0  0  0  0  0  0  0  0  0
   -3.2668    1.4400    7.1775 H   0  0  0  0  0  0  0  0  0  0  0  0
    1.0107   -1.4513    2.9908 H   0  0  0  0  0  0  0  0  0  0  0  0
  1  2  1  0
  1 20  1  0
  1 21  1  0
  1 22  1  0
  2  6  1  0
  2  3  1  0
  3  4  2  0
  4  5  1  0
  5  6  2  0
  6  7  1  0
  7  8  1  0
  7 23  1  0
  7 24  1  0
  8  9  1  0
  8 25  1  0
  8 26  1  0
  9 10  1  0
  9 32  1  0
 10 15  1  0
 10 11  2  0
 11 12  1  0
 12 13  2  0
 12 27  1  0
 13 14  1  0
 14 18  1  0
 14 15  2  0
 15 16  1  0
 16 17  2  0
 16 28  1  0
 17 18  1  0
 18 19  1  0
 19 29  1  0
 19 30  1  0
 19 31  1  0
M  END
>  <i_m_ct_stereo_status>  (97) 
1

>  <s_m_source_file>  (97) 
/var/tmp/pbs.5076255.sched01/tmps52fw2z9/0bkrl5082.sdf

>  <i_m_source_file_index>  (97) 
38

>  <i_lp_mmshare_version>  (97) 
48012

>  <i_f3d_flags>  (97) 
0

>  <s_epik_input>  (97) 
W0NIM11uMW5ubmMxW0NIMl1bQ0gyXS9OPWMoL1tuSF1bY0hdbjIpYyhjMjMpW2NIXW5uM1tDSDNd

>  <s_epik_cmdline>  (97) 
J2VwaWtfcHl0aG9uJywgJy1waHQnLCAnMi4wJywgJy1waCcsICc3LjAnLCAnLXRuJywgJzgnLCAnLW1hJywgJzIwMCcsICctaW1hZScsICc8aW5maWxlLm1hZT4nLCAnLW9tYWUnLCAnPG91dGZpbGUubWFlPic=

>  <r_lp_tautomer_probability>  (97) 
1

>  <r_epik_Ionization_Penalty>  (97) 
0.000230339

>  <r_epik_Ionization_Penalty_Charging>  (97) 
0

>  <r_epik_Ionization_Penalty_Neutral>  (97) 
0.000230339

>  <r_epik_State_Penalty>  (97) 
-0

>  <r_epik_Charging_Adjusted_Penalty>  (97) 
0

>  <i_epik_Tot_Q>  (97) 
0

>  <i_epik_Tot_abs_Q>  (97) 
0

>  <s_lp_Force_Field>  (97) 
OPLS3e

>  <r_lp_Energy>  (97) 
11.4568

>  <b_lp_Chiralities_Consistent>  (97) 
1

>  <s_lp_Variant>  (97) 
32:0-1

>  <s_i_glide_gridfile>  (97) 
pfpi4k_grid

>  <i_i_glide_lignum>  (97) 
38

>  <i_i_glide_rotatable_bonds>  (97) 
4

>  <r_i_docking_score>  (97) 
-3.11007

>  <r_i_glide_ligand_efficiency>  (97) 
-0.163688

>  <r_i_glide_ligand_efficiency_sa>  (97) 
-0.436785

>  <r_i_glide_ligand_efficiency_ln>  (97) 
-0.788469

>  <r_i_glide_gscore>  (97) 
-3.11007

>  <r_i_glide_lipo>  (97) 
-0.0333019

>  <r_i_glide_hbond>  (97) 
-0.113481

>  <r_i_glide_metal>  (97) 
-0

>  <r_i_glide_rewards>  (97) 
-1.64134

>  <r_i_glide_evdw>  (97) 
-23.9883

>  <r_i_glide_ecoul>  (97) 
-5.75198

>  <r_i_glide_erotb>  (97) 
1.05209

>  <r_i_glide_esite>  (97) 
-0.31182

>  <r_i_glide_emodel>  (97) 
-36.7894

>  <r_i_glide_energy>  (97) 
-29.7403

>  <r_i_glide_einternal>  (97) 
0.33474

>  <r_i_glide_intrahb_reward>  (97) 
-0

>  <i_i_glide_confnum>  (97) 
6

>  <i_i_glide_posenum>  (97) 
13

>  <r_i_glide_eff_state_penalty>  (97) 
0

>  <ligand_id>  (97) 
32

>  <original_smiles>  (97) 
Cn1nnnc1CCN=c1[nH]cnc2c1cnn2C

>  <smiles>  (97) 
[H]c1nc(N([H])C([H])([H])C([H])([H])c2nnnn2C([H])([H])[H])c2c([H])nn(C([H])([H])[H])c2n1

$$$$
34:0:0
     RDKit          3D

 13 14  0  0  1  0  0  0  0  0999 V2000
    0.6087  -10.3817    3.4405 C   0  0  0  0  0  0  0  0  0  0  0  0
    1.8934  -10.2308    2.8652 C   0  0  0  0  0  0  0  0  0  0  0  0
    2.3179   -9.1974    2.1394 N   0  0  0  0  0  0  0  0  0  0  0  0
    1.3533   -8.2490    1.9886 N   0  0  0  0  0  0  0  0  0  0  0  0
    1.4679   -7.0794    1.3093 C   0  0  0  0  0  0  0  0  0  0  0  0
    0.3259   -6.3953    1.3672 N   0  0  0  0  0  0  0  0  0  0  0  0
   -0.5799   -7.1241    2.1214 N   0  0  0  0  0  0  0  0  0  0  0  0
    0.0376   -8.2527    2.4933 C   0  0  0  0  0  0  0  0  0  0  0  0
   -0.3273   -9.3894    3.2568 C   0  0  0  0  0  0  0  0  0  0  0  0
    0.3577  -11.2666    4.0197 H   0  0  0  0  0  0  0  0  0  0  0  0
    2.6169  -11.0280    3.0150 H   0  0  0  0  0  0  0  0  0  0  0  0
    2.3541   -6.7483    0.7909 H   0  0  0  0  0  0  0  0  0  0  0  0
   -1.3252   -9.4621    3.6829 H   0  0  0  0  0  0  0  0  0  0  0  0
  1  9  2  0
  1  2  1  0
  1 10  1  0
  2  3  2  0
  2 11  1  0
  3  4  1  0
  4  8  1  0
  4  5  1  0
  5  6  2  0
  5 12  1  0
  6  7  1  0
  7  8  2  0
  8  9  1  0
  9 13  1  0
M  END
>  <i_m_ct_stereo_status>  (98) 
1

>  <s_m_source_file>  (98) 
/var/tmp/pbs.5076255.sched01/tmp1pt1fpgk/39zsbf0m6x.sdf

>  <i_m_source_file_index>  (98) 
1

>  <i_lp_mmshare_version>  (98) 
48012

>  <i_f3d_flags>  (98) 
0

>  <s_epik_input>  (98) 
bjFbY0hdW2NIXVtjSF1jKG4xMilubltjSF0y

>  <s_epik_cmdline>  (98) 
J2VwaWtfcHl0aG9uJywgJy1waHQnLCAnMi4wJywgJy1waCcsICc3LjAnLCAnLXRuJywgJzgnLCAnLW1hJywgJzIwMCcsICctaW1hZScsICc8aW5maWxlLm1hZT4nLCAnLW9tYWUnLCAnPG91dGZpbGUubWFlPic=

>  <r_lp_tautomer_probability>  (98) 
1

>  <r_epik_Ionization_Penalty>  (98) 
7.96732e-08

>  <r_epik_Ionization_Penalty_Charging>  (98) 
0

>  <r_epik_Ionization_Penalty_Neutral>  (98) 
7.96732e-08

>  <r_epik_State_Penalty>  (98) 
-0

>  <r_epik_Charging_Adjusted_Penalty>  (98) 
0

>  <i_epik_Tot_Q>  (98) 
0

>  <i_epik_Tot_abs_Q>  (98) 
0

>  <s_lp_Force_Field>  (98) 
OPLS3e

>  <r_lp_Energy>  (98) 
12.3815

>  <b_lp_Chiralities_Consistent>  (98) 
1

>  <s_lp_Variant>  (98) 
34:0-1

>  <s_i_glide_gridfile>  (98) 
pfpi4k_grid

>  <i_i_glide_lignum>  (98) 
1

>  <i_i_glide_rotatable_bonds>  (98) 
0

>  <r_i_docking_score>  (98) 
-4.18676

>  <r_i_glide_ligand_efficiency>  (98) 
-0.465195

>  <r_i_glide_ligand_efficiency_sa>  (98) 
-0.967645

>  <r_i_glide_ligand_efficiency_ln>  (98) 
-1.3095

>  <r_i_glide_gscore>  (98) 
-4.18676

>  <r_i_glide_lipo>  (98) 
-0.0805731

>  <r_i_glide_hbond>  (98) 
0

>  <r_i_glide_metal>  (98) 
-0

>  <r_i_glide_rewards>  (98) 
-2.25

>  <r_i_glide_evdw>  (98) 
-13.5852

>  <r_i_glide_ecoul>  (98) 
-5.6836

>  <r_i_glide_erotb>  (98) 
0

>  <r_i_glide_esite>  (98) 
-0.324383

>  <r_i_glide_emodel>  (98) 
-25.7309

>  <r_i_glide_energy>  (98) 
-19.2688

>  <r_i_glide_einternal>  (98) 
0

>  <r_i_glide_intrahb_reward>  (98) 
-0

>  <i_i_glide_confnum>  (98) 
1

>  <i_i_glide_posenum>  (98) 
11

>  <r_i_glide_eff_state_penalty>  (98) 
0

>  <ligand_id>  (98) 
34

>  <original_smiles>  (98) 
c1cnn2cnnc2c1

>  <smiles>  (98) 
[H]c1nn2c([H])nnc2c([H])c1[H]

$$$$
34:0:1
     RDKit          3D

 13 14  0  0  1  0  0  0  0  0999 V2000
   -0.5929   -9.2505    3.2239 C   0  0  0  0  0  0  0  0  0  0  0  0
    0.7684   -9.5008    3.5222 C   0  0  0  0  0  0  0  0  0  0  0  0
    1.8188   -8.8433    3.0337 N   0  0  0  0  0  0  0  0  0  0  0  0
    1.4446   -7.8674    2.1667 N   0  0  0  0  0  0  0  0  0  0  0  0
    2.2672   -7.0125    1.5052 C   0  0  0  0  0  0  0  0  0  0  0  0
    1.5510   -6.1809    0.7448 N   0  0  0  0  0  0  0  0  0  0  0  0
    0.2126   -6.5038    0.8959 N   0  0  0  0  0  0  0  0  0  0  0  0
    0.1424   -7.5107    1.7674 C   0  0  0  0  0  0  0  0  0  0  0  0
   -0.9186   -8.2499    2.3427 C   0  0  0  0  0  0  0  0  0  0  0  0
   -1.3722   -9.8512    3.6805 H   0  0  0  0  0  0  0  0  0  0  0  0
    1.0019  -10.2979    4.2202 H   0  0  0  0  0  0  0  0  0  0  0  0
    3.3448   -7.0097    1.5772 H   0  0  0  0  0  0  0  0  0  0  0  0
   -1.9477   -8.0376    2.0800 H   0  0  0  0  0  0  0  0  0  0  0  0
  1  9  2  0
  1  2  1  0
  1 10  1  0
  2  3  2  0
  2 11  1  0
  3  4  1  0
  4  8  1  0
  4  5  1  0
  5  6  2  0
  5 12  1  0
  6  7  1  0
  7  8  2  0
  8  9  1  0
  9 13  1  0
M  END
>  <i_m_ct_stereo_status>  (99) 
1

>  <s_m_source_file>  (99) 
/var/tmp/pbs.5076255.sched01/tmp1pt1fpgk/39zsbf0m6x.sdf

>  <i_m_source_file_index>  (99) 
1

>  <i_lp_mmshare_version>  (99) 
48012

>  <i_f3d_flags>  (99) 
0

>  <s_epik_input>  (99) 
bjFbY0hdW2NIXVtjSF1jKG4xMilubltjSF0y

>  <s_epik_cmdline>  (99) 
J2VwaWtfcHl0aG9uJywgJy1waHQnLCAnMi4wJywgJy1waCcsICc3LjAnLCAnLXRuJywgJzgnLCAnLW1hJywgJzIwMCcsICctaW1hZScsICc8aW5maWxlLm1hZT4nLCAnLW9tYWUnLCAnPG91dGZpbGUubWFlPic=

>  <r_lp_tautomer_probability>  (99) 
1

>  <r_epik_Ionization_Penalty>  (99) 
7.96732e-08

>  <r_epik_Ionization_Penalty_Charging>  (99) 
0

>  <r_epik_Ionization_Penalty_Neutral>  (99) 
7.96732e-08

>  <r_epik_State_Penalty>  (99) 
-0

>  <r_epik_Charging_Adjusted_Penalty>  (99) 
0

>  <i_epik_Tot_Q>  (99) 
0

>  <i_epik_Tot_abs_Q>  (99) 
0

>  <s_lp_Force_Field>  (99) 
OPLS3e

>  <r_lp_Energy>  (99) 
12.3815

>  <b_lp_Chiralities_Consistent>  (99) 
1

>  <s_lp_Variant>  (99) 
34:0-1

>  <s_i_glide_gridfile>  (99) 
pfpi4k_grid

>  <i_i_glide_lignum>  (99) 
1

>  <i_i_glide_rotatable_bonds>  (99) 
0

>  <r_i_docking_score>  (99) 
-3.93699

>  <r_i_glide_ligand_efficiency>  (99) 
-0.437443

>  <r_i_glide_ligand_efficiency_sa>  (99) 
-0.909918

>  <r_i_glide_ligand_efficiency_ln>  (99) 
-1.23138

>  <r_i_glide_gscore>  (99) 
-3.93699

>  <r_i_glide_lipo>  (99) 
0

>  <r_i_glide_hbond>  (99) 
0

>  <r_i_glide_metal>  (99) 
-0

>  <r_i_glide_rewards>  (99) 
-2.25

>  <r_i_glide_evdw>  (99) 
-12.4469

>  <r_i_glide_ecoul>  (99) 
-5.14459

>  <r_i_glide_erotb>  (99) 
0

>  <r_i_glide_esite>  (99) 
-0.292954

>  <r_i_glide_emodel>  (99) 
-23.667

>  <r_i_glide_energy>  (99) 
-17.5915

>  <r_i_glide_einternal>  (99) 
0

>  <r_i_glide_intrahb_reward>  (99) 
-0

>  <i_i_glide_confnum>  (99) 
1

>  <i_i_glide_posenum>  (99) 
2

>  <r_i_glide_eff_state_penalty>  (99) 
0

>  <ligand_id>  (99) 
34

>  <original_smiles>  (99) 
c1cnn2cnnc2c1

>  <smiles>  (99) 
[H]c1nn2c([H])nnc2c([H])c1[H]

$$$$
34:0:2
     RDKit          3D

 13 14  0  0  1  0  0  0  0  0999 V2000
   -0.9867    2.6465    3.2899 C   0  0  0  0  0  0  0  0  0  0  0  0
   -0.2271    1.7208    2.5334 C   0  0  0  0  0  0  0  0  0  0  0  0
    0.0002    0.4463    2.8445 N   0  0  0  0  0  0  0  0  0  0  0  0
   -0.6039    0.0896    4.0069 N   0  0  0  0  0  0  0  0  0  0  0  0
   -0.5796   -1.1386    4.5859 C   0  0  0  0  0  0  0  0  0  0  0  0
   -1.2978   -1.1370    5.7092 N   0  0  0  0  0  0  0  0  0  0  0  0
   -1.7880    0.1455    5.9025 N   0  0  0  0  0  0  0  0  0  0  0  0
   -1.3863    0.8873    4.8641 C   0  0  0  0  0  0  0  0  0  0  0  0
   -1.5733    2.2344    4.4648 C   0  0  0  0  0  0  0  0  0  0  0  0
   -1.0904    3.6688    2.9378 H   0  0  0  0  0  0  0  0  0  0  0  0
    0.2290    2.0638    1.6095 H   0  0  0  0  0  0  0  0  0  0  0  0
   -0.0652   -2.0007    4.1870 H   0  0  0  0  0  0  0  0  0  0  0  0
   -2.1639    2.9054    5.0769 H   0  0  0  0  0  0  0  0  0  0  0  0
  1  9  2  0
  1  2  1  0
  1 10  1  0
  2  3  2  0
  2 11  1  0
  3  4  1  0
  4  8  1  0
  4  5  1  0
  5  6  2  0
  5 12  1  0
  6  7  1  0
  7  8  2  0
  8  9  1  0
  9 13  1  0
M  END
>  <i_m_ct_stereo_status>  (100) 
1

>  <s_m_source_file>  (100) 
/var/tmp/pbs.5076255.sched01/tmp1pt1fpgk/39zsbf0m6x.sdf

>  <i_m_source_file_index>  (100) 
1

>  <i_lp_mmshare_version>  (100) 
48012

>  <i_f3d_flags>  (100) 
0

>  <s_epik_input>  (100) 
bjFbY0hdW2NIXVtjSF1jKG4xMilubltjSF0y

>  <s_epik_cmdline>  (100) 
J2VwaWtfcHl0aG9uJywgJy1waHQnLCAnMi4wJywgJy1waCcsICc3LjAnLCAnLXRuJywgJzgnLCAnLW1hJywgJzIwMCcsICctaW1hZScsICc8aW5maWxlLm1hZT4nLCAnLW9tYWUnLCAnPG91dGZpbGUubWFlPic=

>  <r_lp_tautomer_probability>  (100) 
1

>  <r_epik_Ionization_Penalty>  (100) 
7.96732e-08

>  <r_epik_Ionization_Penalty_Charging>  (100) 
0

>  <r_epik_Ionization_Penalty_Neutral>  (100) 
7.96732e-08

>  <r_epik_State_Penalty>  (100) 
-0

>  <r_epik_Charging_Adjusted_Penalty>  (100) 
0

>  <i_epik_Tot_Q>  (100) 
0

>  <i_epik_Tot_abs_Q>  (100) 
0

>  <s_lp_Force_Field>  (100) 
OPLS3e

>  <r_lp_Energy>  (100) 
12.3815

>  <b_lp_Chiralities_Consistent>  (100) 
1

>  <s_lp_Variant>  (100) 
34:0-1

>  <s_i_glide_gridfile>  (100) 
pfpi4k_grid

>  <i_i_glide_lignum>  (100) 
1

>  <i_i_glide_rotatable_bonds>  (100) 
0

>  <r_i_docking_score>  (100) 
-3.81576

>  <r_i_glide_ligand_efficiency>  (100) 
-0.423973

>  <r_i_glide_ligand_efficiency_sa>  (100) 
-0.8819

>  <r_i_glide_ligand_efficiency_ln>  (100) 
-1.19346

>  <r_i_glide_gscore>  (100) 
-3.81576

>  <r_i_glide_lipo>  (100) 
0

>  <r_i_glide_hbond>  (100) 
0

>  <r_i_glide_metal>  (100) 
-0

>  <r_i_glide_rewards>  (100) 
-2.25

>  <r_i_glide_evdw>  (100) 
-12.5299

>  <r_i_glide_ecoul>  (100) 
-4.80125

>  <r_i_glide_erotb>  (100) 
0

>  <r_i_glide_esite>  (100) 
-0.219076

>  <r_i_glide_emodel>  (100) 
-23.2193

>  <r_i_glide_energy>  (100) 
-17.3312

>  <r_i_glide_einternal>  (100) 
0

>  <r_i_glide_intrahb_reward>  (100) 
-0

>  <i_i_glide_confnum>  (100) 
1

>  <i_i_glide_posenum>  (100) 
1

>  <r_i_glide_eff_state_penalty>  (100) 
0

>  <ligand_id>  (100) 
34

>  <original_smiles>  (100) 
c1cnn2cnnc2c1

>  <smiles>  (100) 
[H]c1nn2c([H])nnc2c([H])c1[H]

$$$$
35:0:0
     RDKit          3D

 58 63  0  0  1  0  0  0  0  0999 V2000
    1.4562   -7.0807    1.7854 C   0  0  0  0  0  0  0  0  0  0  0  0
    2.1519   -5.9828    1.2040 O   0  0  0  0  0  0  0  0  0  0  0  0
    2.9871   -5.2418    2.0115 C   0  0  0  0  0  0  0  0  0  0  0  0
    3.1146   -5.4196    3.4030 C   0  0  0  0  0  0  0  0  0  0  0  0
    3.7746   -4.4438    4.1836 C   0  0  0  0  0  0  0  0  0  0  0  0
    4.5255   -3.4465    3.5660 C   0  0  0  0  0  0  0  0  0  0  0  0
    4.7727   -3.6462    2.2103 C   0  0  0  0  0  0  0  0  0  0  0  0
    3.7076   -4.1927    1.3889 C   0  0  0  0  0  0  0  0  0  0  0  0
    3.1811   -3.6733    0.1734 O   0  0  0  0  0  0  0  0  0  0  0  0
    3.2536   -2.2450   -0.2458 C   0  0  2  0  0  0  0  0  0  0  0  0
    3.6027   -2.1048   -1.7467 C   0  0  0  0  0  0  0  0  0  0  0  0
    3.5236   -1.0270   -2.3444 O   0  0  0  0  0  0  0  0  0  0  0  0
    4.0664   -3.3358   -2.5132 C   0  0  0  0  0  0  0  0  0  0  0  0
    4.9544   -4.2988   -1.6983 C   0  0  0  0  0  0  0  0  0  0  0  0
    5.9878   -3.6345   -0.7500 C   0  0  2  0  0  0  0  0  0  0  0  0
    6.9743   -3.1102   -1.7025 O   0  0  0  0  0  0  0  0  0  0  0  0
    8.2919   -2.7085   -1.2866 C   0  0  0  0  0  0  0  0  0  0  0  0
    6.7205   -4.6287    0.1801 C   0  0  0  0  0  0  0  0  0  0  0  0
    7.1638   -3.8139    1.4153 C   0  0  0  0  0  0  0  0  0  0  0  0
    5.9935   -2.8409    1.6376 C   0  0  2  0  0  0  0  0  0  0  0  0
    6.1861   -1.2800    1.7761 C   0  0  0  0  0  0  0  0  0  0  0  0
    5.2409   -0.5744    1.0732 C   0  0  0  0  0  0  0  0  0  0  0  0
    4.1979   -1.6294    0.7786 C   0  0  2  0  0  0  0  0  0  0  0  0
    5.4814   -2.5686    0.3368 C   0  0  2  0  0  0  0  0  0  0  0  0
    3.3682   -1.4539    2.2462 C   0  0  0  0  0  0  0  0  0  0  0  0
    3.1652   -0.0781    2.4815 O   0  0  0  0  0  0  0  0  0  0  0  0
    2.2219    0.6190    1.6675 C   0  0  0  0  0  0  0  0  0  0  0  0
    2.1033   -2.0674    2.1441 O   0  0  0  0  0  0  0  0  0  0  0  0
    1.2174   -1.9835    3.2499 C   0  0  0  0  0  0  0  0  0  0  0  0
    4.0820   -1.9735    3.5920 C   0  0  0  0  0  0  0  0  0  0  0  0
    0.8426   -7.5538    1.0188 H   0  0  0  0  0  0  0  0  0  0  0  0
    0.7877   -6.7576    2.5829 H   0  0  0  0  0  0  0  0  0  0  0  0
    2.1432   -7.8340    2.1706 H   0  0  0  0  0  0  0  0  0  0  0  0
    2.5448   -6.1731    3.9166 H   0  0  0  0  0  0  0  0  0  0  0  0
    3.5414   -4.3779    5.2425 H   0  0  0  0  0  0  0  0  0  0  0  0
    2.2562   -1.8615   -0.0851 H   0  0  0  0  0  0  0  0  0  0  0  0
    3.1892   -3.8488   -2.8943 H   0  0  0  0  0  0  0  0  0  0  0  0
    4.6217   -3.0013   -3.3931 H   0  0  0  0  0  0  0  0  0  0  0  0
    4.3805   -5.0535   -1.1627 H   0  0  0  0  0  0  0  0  0  0  0  0
    5.4097   -4.9134   -2.4666 H   0  0  0  0  0  0  0  0  0  0  0  0
    8.8403   -2.2503   -2.1095 H   0  0  0  0  0  0  0  0  0  0  0  0
    8.9156   -3.5361   -0.9390 H   0  0  0  0  0  0  0  0  0  0  0  0
    8.2627   -1.9572   -0.4982 H   0  0  0  0  0  0  0  0  0  0  0  0
    6.0198   -5.4024    0.5086 H   0  0  0  0  0  0  0  0  0  0  0  0
    7.5504   -5.1519   -0.2802 H   0  0  0  0  0  0  0  0  0  0  0  0
    7.2928   -4.5191    2.2432 H   0  0  0  0  0  0  0  0  0  0  0  0
    8.1152   -3.2941    1.2839 H   0  0  0  0  0  0  0  0  0  0  0  0
    7.0301   -0.8281    2.2690 H   0  0  0  0  0  0  0  0  0  0  0  0
    5.1274    0.4918    0.9468 H   0  0  0  0  0  0  0  0  0  0  0  0
    6.0525   -1.9116   -0.3249 H   0  0  0  0  0  0  0  0  0  0  0  0
    2.4042    1.6898    1.7506 H   0  0  0  0  0  0  0  0  0  0  0  0
    1.1955    0.4545    1.9951 H   0  0  0  0  0  0  0  0  0  0  0  0
    2.2877    0.3469    0.6168 H   0  0  0  0  0  0  0  0  0  0  0  0
    0.2105   -2.0359    2.8741 H   0  0  0  0  0  0  0  0  0  0  0  0
    1.3055   -1.0488    3.8050 H   0  0  0  0  0  0  0  0  0  0  0  0
    1.3584   -2.8199    3.9343 H   0  0  0  0  0  0  0  0  0  0  0  0
    3.4298   -1.8479    4.4508 H   0  0  0  0  0  0  0  0  0  0  0  0
    4.9071   -1.3176    3.8653 H   0  0  0  0  0  0  0  0  0  0  0  0
  1  2  1  0
  1 31  1  0
  1 32  1  0
  1 33  1  0
  2  3  1  0
  3  8  2  0
  3  4  1  0
  4  5  2  0
  4 34  1  0
  5  6  1  0
  5 35  1  0
  6 30  1  0
  6  7  2  0
  7 20  1  0
  7  8  1  0
  8  9  1  0
  9 10  1  0
 10 23  1  0
 10 11  1  0
 10 36  1  6
 11 12  2  0
 11 13  1  0
 13 14  1  0
 13 37  1  0
 13 38  1  0
 14 15  1  0
 14 39  1  0
 14 40  1  0
 15 24  1  0
 15 16  1  6
 15 18  1  0
 16 17  1  0
 17 41  1  0
 17 42  1  0
 17 43  1  0
 18 19  1  0
 18 44  1  0
 18 45  1  0
 20 19  1  6
 19 46  1  0
 19 47  1  0
 20 24  1  0
 20 21  1  0
 21 22  2  0
 21 48  1  0
 22 23  1  0
 22 49  1  0
 23 24  1  0
 23 25  1  1
 24 50  1  6
 25 26  1  0
 25 28  1  0
 25 30  1  0
 26 27  1  0
 27 51  1  0
 27 52  1  0
 27 53  1  0
 28 29  1  0
 29 54  1  0
 29 55  1  0
 29 56  1  0
 30 57  1  0
 30 58  1  0
M  END
>  <i_m_ct_stereo_status>  (101) 
1

>  <s_m_source_file>  (101) 
/var/tmp/pbs.5076255.sched01/tmp1pt1fpgk/39zsbf0m6x.sdf

>  <i_m_source_file_index>  (101) 
2

>  <i_lp_mmshare_version>  (101) 
48012

>  <i_f3d_flags>  (101) 
0

>  <s_epik_input>  (101) 
W0NAQF0xMjNjNGM1W2NIXVtjSF1jKE9bQ0gzXSljNE9bQ0BIXTZbQ0BAXShbQ0hdPVtDSF0yKShDKFtDSDJdNSkoT1tDSDNdKU9bQ0gzXSlbQ0BASF0zW0NAQF0oT1tDSDNdKShbQ0gyXVtDSDJdMSlbQ0gyXVtDSDJdQzY9Tw==

>  <s_epik_cmdline>  (101) 
J2VwaWtfcHl0aG9uJywgJy1waHQnLCAnMi4wJywgJy1waCcsICc3LjAnLCAnLXRuJywgJzgnLCAnLW1hJywgJzIwMCcsICctaW1hZScsICc8aW5maWxlLm1hZT4nLCAnLW9tYWUnLCAnPG91dGZpbGUubWFlPic=

>  <r_lp_tautomer_probability>  (101) 
1

>  <r_epik_Ionization_Penalty>  (101) 
8.59817e-11

>  <r_epik_Ionization_Penalty_Charging>  (101) 
0

>  <r_epik_Ionization_Penalty_Neutral>  (101) 
8.59817e-11

>  <r_epik_State_Penalty>  (101) 
-0

>  <r_epik_Charging_Adjusted_Penalty>  (101) 
0

>  <i_epik_Tot_Q>  (101) 
0

>  <i_epik_Tot_abs_Q>  (101) 
0

>  <s_lp_Force_Field>  (101) 
OPLS3e

>  <r_lp_Energy>  (101) 
314.669

>  <b_lp_Chiralities_Consistent>  (101) 
1

>  <s_lp_Variant>  (101) 
35:0-1

>  <s_i_glide_gridfile>  (101) 
pfpi4k_grid

>  <i_i_glide_lignum>  (101) 
2

>  <i_i_glide_rotatable_bonds>  (101) 
4

>  <r_i_docking_score>  (101) 
-2.71867

>  <r_i_glide_ligand_efficiency>  (101) 
-0.0906224

>  <r_i_glide_ligand_efficiency_sa>  (101) 
-0.281585

>  <r_i_glide_ligand_efficiency_ln>  (101) 
-0.617712

>  <r_i_glide_gscore>  (101) 
-2.71867

>  <r_i_glide_lipo>  (101) 
-0.73431

>  <r_i_glide_hbond>  (101) 
0

>  <r_i_glide_metal>  (101) 
-0

>  <r_i_glide_rewards>  (101) 
-0.596758

>  <r_i_glide_evdw>  (101) 
-23.0878

>  <r_i_glide_ecoul>  (101) 
-1.1671

>  <r_i_glide_erotb>  (101) 
0

>  <r_i_glide_esite>  (101) 
-0.0581496

>  <r_i_glide_emodel>  (101) 
-24.5581

>  <r_i_glide_energy>  (101) 
-24.2549

>  <r_i_glide_einternal>  (101) 
4.33016

>  <r_i_glide_intrahb_reward>  (101) 
-0

>  <i_i_glide_confnum>  (101) 
1

>  <i_i_glide_posenum>  (101) 
1

>  <r_i_glide_eff_state_penalty>  (101) 
0

>  <ligand_id>  (101) 
35

>  <original_smiles>  (101) 
COc1ccc2c3c1OC1C(=O)CCC4(OC)CCC35C=CC1(C45)C(OC)(OC)C2

>  <smiles>  (101) 
[H]C1=C([H])C23C4([H])Oc5c(OC([H])([H])[H])c([H])c([H])c(c5C15C([H])([H])C([H])([H])C(OC([H])([H])[H])(C([H])([H])C([H])([H])C4=O)C52[H])C([H])([H])C3(OC([H])([H])[H])OC([H])([H])[H]

$$$$
35:0:1
     RDKit          3D

 58 63  0  0  1  0  0  0  0  0999 V2000
    1.1452   -6.5974    3.2411 C   0  0  0  0  0  0  0  0  0  0  0  0
    1.8677   -5.6917    2.4097 O   0  0  0  0  0  0  0  0  0  0  0  0
    2.8427   -4.9324    3.0061 C   0  0  0  0  0  0  0  0  0  0  0  0
    3.1703   -4.9478    4.3615 C   0  0  0  0  0  0  0  0  0  0  0  0
    4.0046   -3.9560    4.9236 C   0  0  0  0  0  0  0  0  0  0  0  0
    4.7235   -3.1056    4.0809 C   0  0  0  0  0  0  0  0  0  0  0  0
    4.7546   -3.4992    2.7382 C   0  0  0  0  0  0  0  0  0  0  0  0
    3.5457   -4.0048    2.1491 C   0  0  0  0  0  0  0  0  0  0  0  0
    2.8739   -3.6044    0.9623 O   0  0  0  0  0  0  0  0  0  0  0  0
    2.9864   -2.2451    0.3293 C   0  0  2  0  0  0  0  0  0  0  0  0
    3.1465   -2.3613   -1.2118 C   0  0  0  0  0  0  0  0  0  0  0  0
    3.2803   -1.3625   -1.9530 O   0  0  0  0  0  0  0  0  0  0  0  0
    3.2489   -3.7517   -1.8178 C   0  0  0  0  0  0  0  0  0  0  0  0
    4.2906   -4.6436   -1.0540 C   0  0  0  0  0  0  0  0  0  0  0  0
    5.4432   -3.9263   -0.3272 C   0  0  2  0  0  0  0  0  0  0  0  0
    6.4696   -3.7023   -1.3168 O   0  0  0  0  0  0  0  0  0  0  0  0
    6.1714   -2.9753   -2.5001 C   0  0  0  0  0  0  0  0  0  0  0  0
    6.2726   -4.8449    0.5683 C   0  0  0  0  0  0  0  0  0  0  0  0
    6.9866   -3.9066    1.5423 C   0  0  0  0  0  0  0  0  0  0  0  0
    5.9277   -2.8554    1.8993 C   0  0  2  0  0  0  0  0  0  0  0  0
    6.2192   -1.3111    1.8177 C   0  0  0  0  0  0  0  0  0  0  0  0
    5.2484   -0.6246    1.1547 C   0  0  0  0  0  0  0  0  0  0  0  0
    4.1061   -1.6070    1.1409 C   0  0  2  0  0  0  0  0  0  0  0  0
    5.2384   -2.6964    0.6699 C   0  0  2  0  0  0  0  0  0  0  0  0
    3.5094   -1.1927    2.6709 C   0  0  0  0  0  0  0  0  0  0  0  0
    3.4577    0.2126    2.7511 O   0  0  0  0  0  0  0  0  0  0  0  0
    2.5096    0.8975    1.9329 C   0  0  0  0  0  0  0  0  0  0  0  0
    2.1914   -1.6780    2.8078 O   0  0  0  0  0  0  0  0  0  0  0  0
    1.4253   -1.2890    3.9401 C   0  0  0  0  0  0  0  0  0  0  0  0
    4.3675   -1.6175    3.9715 C   0  0  0  0  0  0  0  0  0  0  0  0
    0.3976   -7.1096    2.6356 H   0  0  0  0  0  0  0  0  0  0  0  0
    0.6144   -6.0789    4.0393 H   0  0  0  0  0  0  0  0  0  0  0  0
    1.7947   -7.3586    3.6716 H   0  0  0  0  0  0  0  0  0  0  0  0
    2.6356   -5.5891    5.0443 H   0  0  0  0  0  0  0  0  0  0  0  0
    3.9343   -3.7494    5.9864 H   0  0  0  0  0  0  0  0  0  0  0  0
    2.0518   -1.7515    0.5608 H   0  0  0  0  0  0  0  0  0  0  0  0
    2.2459   -4.2228   -1.8147 H   0  0  0  0  0  0  0  0  0  0  0  0
    3.5194   -3.5950   -2.8576 H   0  0  0  0  0  0  0  0  0  0  0  0
    3.7756   -5.3066   -0.3500 H   0  0  0  0  0  0  0  0  0  0  0  0
    4.7947   -5.3254   -1.7460 H   0  0  0  0  0  0  0  0  0  0  0  0
    7.0348   -3.1165   -3.0870 H   0  0  0  0  0  0  0  0  0  0  0  0
    6.1042   -1.8923   -2.2981 H   0  0  0  0  0  0  0  0  0  0  0  0
    5.4333   -3.3767   -3.1744 H   0  0  0  0  0  0  0  0  0  0  0  0
    5.6126   -5.5018    1.1316 H   0  0  0  0  0  0  0  0  0  0  0  0
    6.9766   -5.4900    0.0431 H   0  0  0  0  0  0  0  0  0  0  0  0
    7.2778   -4.5278    2.3821 H   0  0  0  0  0  0  0  0  0  0  0  0
    7.8729   -3.4627    1.0911 H   0  0  0  0  0  0  0  0  0  0  0  0
    7.1732   -0.8876    2.0874 H   0  0  0  0  0  0  0  0  0  0  0  0
    5.2071    0.4268    0.9070 H   0  0  0  0  0  0  0  0  0  0  0  0
    5.8489   -2.2130   -0.0998 H   0  0  0  0  0  0  0  0  0  0  0  0
    2.7772    1.9498    1.9030 H   0  0  0  0  0  0  0  0  0  0  0  0
    1.5014    0.8689    2.3407 H   0  0  0  0  0  0  0  0  0  0  0  0
    2.4715    0.5206    0.9132 H   0  0  0  0  0  0  0  0  0  0  0  0
    0.3732   -1.3441    3.6686 H   0  0  0  0  0  0  0  0  0  0  0  0
    1.6136   -0.2686    4.2625 H   0  0  0  0  0  0  0  0  0  0  0  0
    1.5952   -1.9379    4.7954 H   0  0  0  0  0  0  0  0  0  0  0  0
    3.8291   -1.3326    4.8709 H   0  0  0  0  0  0  0  0  0  0  0  0
    5.2612   -0.9960    4.0579 H   0  0  0  0  0  0  0  0  0  0  0  0
  1  2  1  0
  1 31  1  0
  1 32  1  0
  1 33  1  0
  2  3  1  0
  3  8  2  0
  3  4  1  0
  4  5  2  0
  4 34  1  0
  5  6  1  0
  5 35  1  0
  6 30  1  0
  6  7  2  0
  7 20  1  0
  7  8  1  0
  8  9  1  0
  9 10  1  0
 10 23  1  0
 10 11  1  0
 10 36  1  6
 11 12  2  0
 11 13  1  0
 13 14  1  0
 13 37  1  0
 13 38  1  0
 14 15  1  0
 14 39  1  0
 14 40  1  0
 15 24  1  0
 15 16  1  6
 15 18  1  0
 16 17  1  0
 17 41  1  0
 17 42  1  0
 17 43  1  0
 18 19  1  0
 18 44  1  0
 18 45  1  0
 20 19  1  6
 19 46  1  0
 19 47  1  0
 20 24  1  0
 20 21  1  0
 21 22  2  0
 21 48  1  0
 22 23  1  0
 22 49  1  0
 23 24  1  0
 23 25  1  1
 24 50  1  6
 25 26  1  0
 25 28  1  0
 25 30  1  0
 26 27  1  0
 27 51  1  0
 27 52  1  0
 27 53  1  0
 28 29  1  0
 29 54  1  0
 29 55  1  0
 29 56  1  0
 30 57  1  0
 30 58  1  0
M  END
>  <i_m_ct_stereo_status>  (102) 
1

>  <s_m_source_file>  (102) 
/var/tmp/pbs.5076255.sched01/tmp1pt1fpgk/39zsbf0m6x.sdf

>  <i_m_source_file_index>  (102) 
2

>  <i_lp_mmshare_version>  (102) 
48012

>  <i_f3d_flags>  (102) 
0

>  <s_epik_input>  (102) 
W0NAQF0xMjNjNGM1W2NIXVtjSF1jKE9bQ0gzXSljNE9bQ0BIXTZbQ0BAXShbQ0hdPVtDSF0yKShDKFtDSDJdNSkoT1tDSDNdKU9bQ0gzXSlbQ0BASF0zW0NAQF0oT1tDSDNdKShbQ0gyXVtDSDJdMSlbQ0gyXVtDSDJdQzY9Tw==

>  <s_epik_cmdline>  (102) 
J2VwaWtfcHl0aG9uJywgJy1waHQnLCAnMi4wJywgJy1waCcsICc3LjAnLCAnLXRuJywgJzgnLCAnLW1hJywgJzIwMCcsICctaW1hZScsICc8aW5maWxlLm1hZT4nLCAnLW9tYWUnLCAnPG91dGZpbGUubWFlPic=

>  <r_lp_tautomer_probability>  (102) 
1

>  <r_epik_Ionization_Penalty>  (102) 
8.59817e-11

>  <r_epik_Ionization_Penalty_Charging>  (102) 
0

>  <r_epik_Ionization_Penalty_Neutral>  (102) 
8.59817e-11

>  <r_epik_State_Penalty>  (102) 
-0

>  <r_epik_Charging_Adjusted_Penalty>  (102) 
0

>  <i_epik_Tot_Q>  (102) 
0

>  <i_epik_Tot_abs_Q>  (102) 
0

>  <s_lp_Force_Field>  (102) 
OPLS3e

>  <r_lp_Energy>  (102) 
314.669

>  <b_lp_Chiralities_Consistent>  (102) 
1

>  <s_lp_Variant>  (102) 
35:0-1

>  <s_i_glide_gridfile>  (102) 
pfpi4k_grid

>  <i_i_glide_lignum>  (102) 
2

>  <i_i_glide_rotatable_bonds>  (102) 
4

>  <r_i_docking_score>  (102) 
-2.35143

>  <r_i_glide_ligand_efficiency>  (102) 
-0.078381

>  <r_i_glide_ligand_efficiency_sa>  (102) 
-0.243548

>  <r_i_glide_ligand_efficiency_ln>  (102) 
-0.53427

>  <r_i_glide_gscore>  (102) 
-2.35143

>  <r_i_glide_lipo>  (102) 
-0.851511

>  <r_i_glide_hbond>  (102) 
0

>  <r_i_glide_metal>  (102) 
-0

>  <r_i_glide_rewards>  (102) 
-0.596758

>  <r_i_glide_evdw>  (102) 
-13.4208

>  <r_i_glide_ecoul>  (102) 
-1.06508

>  <r_i_glide_erotb>  (102) 
0

>  <r_i_glide_esite>  (102) 
-0.0723615

>  <r_i_glide_emodel>  (102) 
-15.1931

>  <r_i_glide_energy>  (102) 
-14.4858

>  <r_i_glide_einternal>  (102) 
1.19781

>  <r_i_glide_intrahb_reward>  (102) 
-0

>  <i_i_glide_confnum>  (102) 
1

>  <i_i_glide_posenum>  (102) 
13

>  <r_i_glide_eff_state_penalty>  (102) 
0

>  <ligand_id>  (102) 
35

>  <original_smiles>  (102) 
COc1ccc2c3c1OC1C(=O)CCC4(OC)CCC35C=CC1(C45)C(OC)(OC)C2

>  <smiles>  (102) 
[H]C1=C([H])C23C4([H])Oc5c(OC([H])([H])[H])c([H])c([H])c(c5C15C([H])([H])C([H])([H])C(OC([H])([H])[H])(C([H])([H])C([H])([H])C4=O)C52[H])C([H])([H])C3(OC([H])([H])[H])OC([H])([H])[H]

$$$$
36:0:0
     RDKit          3D

 67 70  0  0  1  0  0  0  0  0999 V2000
    5.3394   -7.7188    3.1046 C   0  0  0  0  0  0  0  0  0  0  0  0
    5.3512   -6.4308    2.2986 C   0  0  0  0  0  0  0  0  0  0  0  0
    4.2266   -5.7438    2.0251 C   0  0  0  0  0  0  0  0  0  0  0  0
    4.1513   -4.4342    1.2359 C   0  0  1  0  0  0  0  0  0  0  0  0
    3.4571   -3.1653    1.8160 C   0  0  0  0  0  0  0  0  0  0  0  0
    2.7018   -3.0697    3.0362 C   0  0  0  0  0  0  0  0  0  0  0  0
    2.4262   -4.2338    4.0259 C   0  0  0  0  0  0  0  0  0  0  0  0
    1.0841   -4.1221    4.7768 C   0  0  0  0  0  0  0  0  0  0  0  0
    3.5807   -4.4210    5.0440 C   0  0  0  0  0  0  0  0  0  0  0  0
    2.1357   -1.8244    3.3725 C   0  0  0  0  0  0  0  0  0  0  0  0
    2.2585   -0.6549    2.5998 C   0  0  0  0  0  0  0  0  0  0  0  0
    1.5583    0.6423    3.0501 C   0  0  0  0  0  0  0  0  0  0  0  0
    2.1449    1.8928    2.3676 C   0  0  0  0  0  0  0  0  0  0  0  0
    1.7098    0.8525    4.5801 C   0  0  0  0  0  0  0  0  0  0  0  0
    0.0571    0.5723    2.7044 C   0  0  0  0  0  0  0  0  0  0  0  0
    3.0121   -0.7554    1.4154 C   0  0  0  0  0  0  0  0  0  0  0  0
    3.5972   -1.9749    1.0195 C   0  0  0  0  0  0  0  0  0  0  0  0
    4.3628   -1.9264   -0.3075 C   0  0  2  0  0  0  0  0  0  0  0  0
    3.4213   -1.8373   -1.4478 N   0  0  1  0  0  0  0  0  0  0  0  0
    3.8159   -0.8845   -2.5208 C   0  0  0  0  0  0  0  0  0  0  0  0
    3.2741   -3.2159   -1.9587 C   0  0  0  0  0  0  0  0  0  0  0  0
    4.6703   -3.8320   -1.7946 C   0  0  0  0  0  0  0  0  0  0  0  0
    5.3377   -3.1101   -0.6007 C   0  0  1  0  0  0  0  0  0  0  0  0
    6.7117   -2.5484   -1.0476 C   0  0  0  0  0  0  0  0  0  0  0  0
    5.5290   -4.0118    0.6566 C   0  0  2  0  0  0  0  0  0  0  0  0
    6.5178   -5.1881    0.4773 C   0  0  0  0  0  0  0  0  0  0  0  0
    6.6967   -5.9728    1.7852 C   0  0  0  0  0  0  0  0  0  0  0  0
    5.6658   -8.5645    2.4971 H   0  0  0  0  0  0  0  0  0  0  0  0
    4.3362   -7.9352    3.4698 H   0  0  0  0  0  0  0  0  0  0  0  0
    5.9953   -7.6371    3.9743 H   0  0  0  0  0  0  0  0  0  0  0  0
    3.3007   -6.2404    2.2565 H   0  0  0  0  0  0  0  0  0  0  0  0
    3.5192   -4.7499    0.4117 H   0  0  0  0  0  0  0  0  0  0  0  0
    2.2257   -5.1360    3.4612 H   0  0  0  0  0  0  0  0  0  0  0  0
    0.2906   -3.9175    4.0612 H   0  0  0  0  0  0  0  0  0  0  0  0
    1.0682   -3.3544    5.5557 H   0  0  0  0  0  0  0  0  0  0  0  0
    0.8387   -5.0595    5.2713 H   0  0  0  0  0  0  0  0  0  0  0  0
    4.5648   -4.4342    4.5764 H   0  0  0  0  0  0  0  0  0  0  0  0
    3.4654   -5.3701    5.5640 H   0  0  0  0  0  0  0  0  0  0  0  0
    3.6072   -3.6394    5.8130 H   0  0  0  0  0  0  0  0  0  0  0  0
    1.5302   -1.7426    4.2550 H   0  0  0  0  0  0  0  0  0  0  0  0
    1.6502    2.8006    2.7158 H   0  0  0  0  0  0  0  0  0  0  0  0
    2.0043    1.8733    1.2874 H   0  0  0  0  0  0  0  0  0  0  0  0
    3.2091    1.9909    2.5839 H   0  0  0  0  0  0  0  0  0  0  0  0
    2.7623    0.8568    4.8648 H   0  0  0  0  0  0  0  0  0  0  0  0
    1.2109    0.0926    5.1802 H   0  0  0  0  0  0  0  0  0  0  0  0
    1.2721    1.7980    4.8993 H   0  0  0  0  0  0  0  0  0  0  0  0
   -0.4583    1.4917    2.9878 H   0  0  0  0  0  0  0  0  0  0  0  0
   -0.4415   -0.2504    3.2163 H   0  0  0  0  0  0  0  0  0  0  0  0
   -0.0975    0.4417    1.6328 H   0  0  0  0  0  0  0  0  0  0  0  0
    3.1437    0.1120    0.7792 H   0  0  0  0  0  0  0  0  0  0  0  0
    4.9326   -1.0004   -0.2627 H   0  0  0  0  0  0  0  0  0  0  0  0
    4.7339   -1.2083   -3.0156 H   0  0  0  0  0  0  0  0  0  0  0  0
    3.9967    0.1237   -2.1528 H   0  0  0  0  0  0  0  0  0  0  0  0
    3.0278   -0.8331   -3.2805 H   0  0  0  0  0  0  0  0  0  0  0  0
    2.5474   -3.7401   -1.3323 H   0  0  0  0  0  0  0  0  0  0  0  0
    2.9105   -3.2569   -2.9853 H   0  0  0  0  0  0  0  0  0  0  0  0
    4.6150   -4.9122   -1.6621 H   0  0  0  0  0  0  0  0  0  0  0  0
    5.2398   -3.6730   -2.7148 H   0  0  0  0  0  0  0  0  0  0  0  0
    7.3476   -3.3281   -1.4666 H   0  0  0  0  0  0  0  0  0  0  0  0
    7.2484   -2.0942   -0.2165 H   0  0  0  0  0  0  0  0  0  0  0  0
    6.6034   -1.8029   -1.8322 H   0  0  0  0  0  0  0  0  0  0  0  0
    6.0039   -3.3896    1.4116 H   0  0  0  0  0  0  0  0  0  0  0  0
    6.1396   -5.8548   -0.2965 H   0  0  0  0  0  0  0  0  0  0  0  0
    7.4994   -4.8410    0.1493 H   0  0  0  0  0  0  0  0  0  0  0  0
    7.1800   -5.3606    2.5502 H   0  0  0  0  0  0  0  0  0  0  0  0
    7.3377   -6.8376    1.5999 H   0  0  0  0  0  0  0  0  0  0  0  0
    2.4997   -1.5317   -1.1076 H   0  0  0  0  0  0  0  0  0  0  0  0
  1  2  1  0
  1 28  1  0
  1 29  1  0
  1 30  1  0
  2 27  1  0
  2  3  2  0
  3  4  1  0
  3 31  1  0
  4 25  1  0
  4  5  1  0
  4 32  1  6
  5 17  2  0
  5  6  1  0
  6  7  1  0
  6 10  2  0
  7  8  1  0
  7  9  1  0
  7 33  1  0
  8 34  1  0
  8 35  1  0
  8 36  1  0
  9 37  1  0
  9 38  1  0
  9 39  1  0
 10 11  1  0
 10 40  1  0
 11 12  1  0
 11 16  2  0
 12 13  1  0
 12 14  1  0
 12 15  1  0
 13 41  1  0
 13 42  1  0
 13 43  1  0
 14 44  1  0
 14 45  1  0
 14 46  1  0
 15 47  1  0
 15 48  1  0
 15 49  1  0
 16 17  1  0
 16 50  1  0
 17 18  1  0
 18 23  1  0
 18 19  1  0
 18 51  1  1
 19 20  1  0
 19 21  1  0
 19 67  1  1
 20 52  1  0
 20 53  1  0
 20 54  1  0
 21 22  1  0
 21 55  1  0
 21 56  1  0
 22 23  1  0
 22 57  1  0
 22 58  1  0
 23 24  1  6
 23 25  1  0
 24 59  1  0
 24 60  1  0
 24 61  1  0
 25 26  1  0
 25 62  1  1
 26 27  1  0
 26 63  1  0
 26 64  1  0
 27 65  1  0
 27 66  1  0
M  CHG  1  19   1
M  END
>  <i_m_ct_stereo_status>  (103) 
1

>  <s_m_source_file>  (103) 
/var/tmp/pbs.5076255.sched01/tmp1pt1fpgk/39zsbf0m6x.sdf

>  <i_m_source_file_index>  (103) 
3

>  <i_lp_mmshare_version>  (103) 
48012

>  <i_f3d_flags>  (103) 
0

>  <s_epik_input>  (103) 
W0NIM11DKD1bQ0hdMSlbQ0gyXVtDSDJdW0NAQEhdMltDQEBIXTFjKGMoW0NIXShbQ0gzXSlbQ0gzXSlbY0hdYyhbY0hdMylDKFtDSDNdKShbQ0gzXSlbQ0gzXSljM1tDQEBIXShbQ0BAXTI0W0NIM10pTihbQ0gzXSlbQ0gyXVtDSDJdNA==

>  <s_epik_cmdline>  (103) 
J2VwaWtfcHl0aG9uJywgJy1waHQnLCAnMi4wJywgJy1waCcsICc3LjAnLCAnLXRuJywgJzgnLCAnLW1hJywgJzIwMCcsICctaW1hZScsICc8aW5maWxlLm1hZT4nLCAnLW9tYWUnLCAnPG91dGZpbGUubWFlPic=

>  <r_epik_Ionization_Penalty>  (103) 
0.00941179

>  <r_epik_Ionization_Penalty_Charging>  (103) 
0.00941179

>  <r_epik_Ionization_Penalty_Neutral>  (103) 
0

>  <r_epik_State_Penalty>  (103) 
0.00714592

>  <r_epik_Charging_Adjusted_Penalty>  (103) 
0.0165577

>  <i_epik_Tot_Q>  (103) 
1

>  <i_epik_Tot_abs_Q>  (103) 
1

>  <s_lp_Force_Field>  (103) 
OPLS3e

>  <r_lp_Energy>  (103) 
59.6976

>  <b_lp_Chiralities_Consistent>  (103) 
1

>  <s_lp_Variant>  (103) 
36:0-1

>  <s_i_glide_gridfile>  (103) 
pfpi4k_grid

>  <i_i_glide_lignum>  (103) 
3

>  <i_i_glide_rotatable_bonds>  (103) 
2

>  <r_i_docking_score>  (103) 
-3.31469

>  <r_i_glide_ligand_efficiency>  (103) 
-0.122766

>  <r_i_glide_ligand_efficiency_sa>  (103) 
-0.368299

>  <r_i_glide_ligand_efficiency_ln>  (103) 
-0.771605

>  <r_i_glide_gscore>  (103) 
-3.31469

>  <r_i_glide_lipo>  (103) 
-0.361226

>  <r_i_glide_hbond>  (103) 
-0.2

>  <r_i_glide_metal>  (103) 
-0

>  <r_i_glide_rewards>  (103) 
-0.909528

>  <r_i_glide_evdw>  (103) 
-22.2374

>  <r_i_glide_ecoul>  (103) 
-4.32291

>  <r_i_glide_erotb>  (103) 
0

>  <r_i_glide_esite>  (103) 
-0.0836308

>  <r_i_glide_emodel>  (103) 
-31.941

>  <r_i_glide_energy>  (103) 
-26.5603

>  <r_i_glide_einternal>  (103) 
2.93551

>  <r_i_glide_intrahb_reward>  (103) 
-0

>  <i_i_glide_confnum>  (103) 
2

>  <i_i_glide_posenum>  (103) 
2

>  <r_i_glide_eff_state_penalty>  (103) 
0

>  <ligand_id>  (103) 
36

>  <original_smiles>  (103) 
CC1=CC2c3c(C(C)C)cc(C(C)(C)C)cc3C3N(C)CCC3(C)C2CC1

>  <smiles>  (103) 
[H]C1=C(C([H])([H])[H])C([H])([H])C([H])([H])C2([H])C1([H])c1c(C([H])(C([H])([H])[H])C([H])([H])[H])c([H])c(C(C([H])([H])[H])(C([H])([H])[H])C([H])([H])[H])c([H])c1C1([H])C2(C([H])([H])[H])C([H])([H])C([H])([H])[N+]1([H])C([H])([H])[H]

$$$$
36:0:1
     RDKit          3D

 67 70  0  0  1  0  0  0  0  0999 V2000
    5.4172   -7.5596    3.1570 C   0  0  0  0  0  0  0  0  0  0  0  0
    5.3964   -6.3063    2.3007 C   0  0  0  0  0  0  0  0  0  0  0  0
    4.2641   -5.6355    2.0231 C   0  0  0  0  0  0  0  0  0  0  0  0
    4.1555   -4.3637    1.1827 C   0  0  1  0  0  0  0  0  0  0  0  0
    3.4299   -3.0990    1.7200 C   0  0  0  0  0  0  0  0  0  0  0  0
    2.6818   -3.0074    2.9432 C   0  0  0  0  0  0  0  0  0  0  0  0
    2.4893   -4.1411    3.9759 C   0  0  0  0  0  0  0  0  0  0  0  0
    1.3098   -5.0392    3.5666 C   0  0  0  0  0  0  0  0  0  0  0  0
    2.2975   -3.6800    5.4416 C   0  0  0  0  0  0  0  0  0  0  0  0
    2.0456   -1.7916    3.2552 C   0  0  0  0  0  0  0  0  0  0  0  0
    2.1352   -0.6256    2.4702 C   0  0  0  0  0  0  0  0  0  0  0  0
    1.4433    0.6954    2.8876 C   0  0  0  0  0  0  0  0  0  0  0  0
    0.3884    1.1240    1.8578 C   0  0  0  0  0  0  0  0  0  0  0  0
    2.4869    1.8220    3.0191 C   0  0  0  0  0  0  0  0  0  0  0  0
    0.7103    0.5678    4.2465 C   0  0  0  0  0  0  0  0  0  0  0  0
    2.9052   -0.7163    1.2935 C   0  0  0  0  0  0  0  0  0  0  0  0
    3.5324   -1.9245    0.9036 C   0  0  0  0  0  0  0  0  0  0  0  0
    4.3043   -1.8879   -0.4259 C   0  0  2  0  0  0  0  0  0  0  0  0
    3.3486   -1.8631   -1.5605 N   0  0  1  0  0  0  0  0  0  0  0  0
    3.7175   -0.9315   -2.6623 C   0  0  0  0  0  0  0  0  0  0  0  0
    3.2422   -3.2551   -2.0284 C   0  0  0  0  0  0  0  0  0  0  0  0
    4.6508   -3.8434   -1.8551 C   0  0  0  0  0  0  0  0  0  0  0  0
    5.3056   -3.0625   -0.6835 C   0  0  1  0  0  0  0  0  0  0  0  0
    6.6647   -2.4925   -1.1527 C   0  0  0  0  0  0  0  0  0  0  0  0
    5.5187   -3.9303    0.5917 C   0  0  2  0  0  0  0  0  0  0  0  0
    6.5271   -5.0979    0.4382 C   0  0  0  0  0  0  0  0  0  0  0  0
    6.7265   -5.8407    1.7630 C   0  0  0  0  0  0  0  0  0  0  0  0
    5.7649   -8.4141    2.5725 H   0  0  0  0  0  0  0  0  0  0  0  0
    4.4221   -7.7981    3.5346 H   0  0  0  0  0  0  0  0  0  0  0  0
    6.0820   -7.4381    4.0148 H   0  0  0  0  0  0  0  0  0  0  0  0
    3.3485   -6.0703    2.3704 H   0  0  0  0  0  0  0  0  0  0  0  0
    3.5215   -4.7260    0.3773 H   0  0  0  0  0  0  0  0  0  0  0  0
    3.4148   -4.6995    4.0526 H   0  0  0  0  0  0  0  0  0  0  0  0
    1.3583   -5.3219    2.5171 H   0  0  0  0  0  0  0  0  0  0  0  0
    0.3585   -4.5283    3.7071 H   0  0  0  0  0  0  0  0  0  0  0  0
    1.2894   -5.9500    4.1625 H   0  0  0  0  0  0  0  0  0  0  0  0
    3.0481   -2.9490    5.7373 H   0  0  0  0  0  0  0  0  0  0  0  0
    2.3819   -4.5216    6.1267 H   0  0  0  0  0  0  0  0  0  0  0  0
    1.3158   -3.2487    5.6304 H   0  0  0  0  0  0  0  0  0  0  0  0
    1.4638   -1.7646    4.1522 H   0  0  0  0  0  0  0  0  0  0  0  0
   -0.0861    2.0557    2.1582 H   0  0  0  0  0  0  0  0  0  0  0  0
   -0.3950    0.3827    1.7366 H   0  0  0  0  0  0  0  0  0  0  0  0
    0.8287    1.3034    0.8780 H   0  0  0  0  0  0  0  0  0  0  0  0
    3.0123    2.0015    2.0825 H   0  0  0  0  0  0  0  0  0  0  0  0
    3.2327    1.5957    3.7813 H   0  0  0  0  0  0  0  0  0  0  0  0
    2.0113    2.7640    3.2918 H   0  0  0  0  0  0  0  0  0  0  0  0
    0.2087    1.4859    4.5470 H   0  0  0  0  0  0  0  0  0  0  0  0
    1.4062    0.3069    5.0473 H   0  0  0  0  0  0  0  0  0  0  0  0
   -0.0627   -0.2019    4.2020 H   0  0  0  0  0  0  0  0  0  0  0  0
    3.0002    0.1557    0.6682 H   0  0  0  0  0  0  0  0  0  0  0  0
    4.8595   -0.9510   -0.4022 H   0  0  0  0  0  0  0  0  0  0  0  0
    4.6479   -1.2296   -3.1502 H   0  0  0  0  0  0  0  0  0  0  0  0
    3.8387    0.0977   -2.3158 H   0  0  0  0  0  0  0  0  0  0  0  0
    2.9281   -0.9336   -3.4202 H   0  0  0  0  0  0  0  0  0  0  0  0
    2.5292   -3.7780   -1.3843 H   0  0  0  0  0  0  0  0  0  0  0  0
    2.8735   -3.3381   -3.0536 H   0  0  0  0  0  0  0  0  0  0  0  0
    4.6178   -4.9228   -1.6893 H   0  0  0  0  0  0  0  0  0  0  0  0
    5.2127   -3.6955   -2.7839 H   0  0  0  0  0  0  0  0  0  0  0  0
    7.3139   -3.2691   -1.5571 H   0  0  0  0  0  0  0  0  0  0  0  0
    7.1938   -2.0048   -0.3351 H   0  0  0  0  0  0  0  0  0  0  0  0
    6.5314   -1.7678   -1.9502 H   0  0  0  0  0  0  0  0  0  0  0  0
    5.9848   -3.2787    1.3316 H   0  0  0  0  0  0  0  0  0  0  0  0
    6.1668   -5.8048   -0.3090 H   0  0  0  0  0  0  0  0  0  0  0  0
    7.4988   -4.7372    0.1035 H   0  0  0  0  0  0  0  0  0  0  0  0
    7.1945   -5.1936    2.5064 H   0  0  0  0  0  0  0  0  0  0  0  0
    7.3859   -6.6946    1.6067 H   0  0  0  0  0  0  0  0  0  0  0  0
    2.4387   -1.5623   -1.2001 H   0  0  0  0  0  0  0  0  0  0  0  0
  1  2  1  0
  1 28  1  0
  1 29  1  0
  1 30  1  0
  2 27  1  0
  2  3  2  0
  3  4  1  0
  3 31  1  0
  4 25  1  0
  4  5  1  0
  4 32  1  6
  5 17  2  0
  5  6  1  0
  6  7  1  0
  6 10  2  0
  7  8  1  0
  7  9  1  0
  7 33  1  0
  8 34  1  0
  8 35  1  0
  8 36  1  0
  9 37  1  0
  9 38  1  0
  9 39  1  0
 10 11  1  0
 10 40  1  0
 11 12  1  0
 11 16  2  0
 12 13  1  0
 12 14  1  0
 12 15  1  0
 13 41  1  0
 13 42  1  0
 13 43  1  0
 14 44  1  0
 14 45  1  0
 14 46  1  0
 15 47  1  0
 15 48  1  0
 15 49  1  0
 16 17  1  0
 16 50  1  0
 17 18  1  0
 18 23  1  0
 18 19  1  0
 18 51  1  1
 19 20  1  0
 19 21  1  0
 19 67  1  1
 20 52  1  0
 20 53  1  0
 20 54  1  0
 21 22  1  0
 21 55  1  0
 21 56  1  0
 22 23  1  0
 22 57  1  0
 22 58  1  0
 23 24  1  6
 23 25  1  0
 24 59  1  0
 24 60  1  0
 24 61  1  0
 25 26  1  0
 25 62  1  1
 26 27  1  0
 26 63  1  0
 26 64  1  0
 27 65  1  0
 27 66  1  0
M  CHG  1  19   1
M  END
>  <i_m_ct_stereo_status>  (104) 
1

>  <s_m_source_file>  (104) 
/var/tmp/pbs.5076255.sched01/tmp1pt1fpgk/39zsbf0m6x.sdf

>  <i_m_source_file_index>  (104) 
3

>  <i_lp_mmshare_version>  (104) 
48012

>  <i_f3d_flags>  (104) 
0

>  <s_epik_input>  (104) 
W0NIM11DKD1bQ0hdMSlbQ0gyXVtDSDJdW0NAQEhdMltDQEBIXTFjKGMoW0NIXShbQ0gzXSlbQ0gzXSlbY0hdYyhbY0hdMylDKFtDSDNdKShbQ0gzXSlbQ0gzXSljM1tDQEBIXShbQ0BAXTI0W0NIM10pTihbQ0gzXSlbQ0gyXVtDSDJdNA==

>  <s_epik_cmdline>  (104) 
J2VwaWtfcHl0aG9uJywgJy1waHQnLCAnMi4wJywgJy1waCcsICc3LjAnLCAnLXRuJywgJzgnLCAnLW1hJywgJzIwMCcsICctaW1hZScsICc8aW5maWxlLm1hZT4nLCAnLW9tYWUnLCAnPG91dGZpbGUubWFlPic=

>  <r_epik_Ionization_Penalty>  (104) 
0.00941179

>  <r_epik_Ionization_Penalty_Charging>  (104) 
0.00941179

>  <r_epik_Ionization_Penalty_Neutral>  (104) 
0

>  <r_epik_State_Penalty>  (104) 
0.00714592

>  <r_epik_Charging_Adjusted_Penalty>  (104) 
0.0165577

>  <i_epik_Tot_Q>  (104) 
1

>  <i_epik_Tot_abs_Q>  (104) 
1

>  <s_lp_Force_Field>  (104) 
OPLS3e

>  <r_lp_Energy>  (104) 
59.6976

>  <b_lp_Chiralities_Consistent>  (104) 
1

>  <s_lp_Variant>  (104) 
36:0-1

>  <s_i_glide_gridfile>  (104) 
pfpi4k_grid

>  <i_i_glide_lignum>  (104) 
3

>  <i_i_glide_rotatable_bonds>  (104) 
2

>  <r_i_docking_score>  (104) 
-3.27835

>  <r_i_glide_ligand_efficiency>  (104) 
-0.12142

>  <r_i_glide_ligand_efficiency_sa>  (104) 
-0.364261

>  <r_i_glide_ligand_efficiency_ln>  (104) 
-0.763146

>  <r_i_glide_gscore>  (104) 
-3.27835

>  <r_i_glide_lipo>  (104) 
-0.32479

>  <r_i_glide_hbond>  (104) 
-0.2

>  <r_i_glide_metal>  (104) 
-0

>  <r_i_glide_rewards>  (104) 
-0.909528

>  <r_i_glide_evdw>  (104) 
-23.1232

>  <r_i_glide_ecoul>  (104) 
-4.01725

>  <r_i_glide_erotb>  (104) 
0

>  <r_i_glide_esite>  (104) 
-0.085286

>  <r_i_glide_emodel>  (104) 
-32.648

>  <r_i_glide_energy>  (104) 
-27.1404

>  <r_i_glide_einternal>  (104) 
2.55947

>  <r_i_glide_intrahb_reward>  (104) 
-0

>  <i_i_glide_confnum>  (104) 
2

>  <i_i_glide_posenum>  (104) 
39

>  <r_i_glide_eff_state_penalty>  (104) 
0

>  <ligand_id>  (104) 
36

>  <original_smiles>  (104) 
CC1=CC2c3c(C(C)C)cc(C(C)(C)C)cc3C3N(C)CCC3(C)C2CC1

>  <smiles>  (104) 
[H]C1=C(C([H])([H])[H])C([H])([H])C([H])([H])C2([H])C1([H])c1c(C([H])(C([H])([H])[H])C([H])([H])[H])c([H])c(C(C([H])([H])[H])(C([H])([H])[H])C([H])([H])[H])c([H])c1C1([H])C2(C([H])([H])[H])C([H])([H])C([H])([H])[N+]1([H])C([H])([H])[H]

$$$$
36:0:2
     RDKit          3D

 67 70  0  0  1  0  0  0  0  0999 V2000
    4.1033   -7.6322    3.7704 C   0  0  0  0  0  0  0  0  0  0  0  0
    4.3553   -6.3913    2.9390 C   0  0  0  0  0  0  0  0  0  0  0  0
    3.3526   -5.5947    2.5120 C   0  0  0  0  0  0  0  0  0  0  0  0
    3.5212   -4.3132    1.6922 C   0  0  1  0  0  0  0  0  0  0  0  0
    2.9040   -2.9607    2.1477 C   0  0  0  0  0  0  0  0  0  0  0  0
    2.0181   -2.7417    3.2663 C   0  0  0  0  0  0  0  0  0  0  0  0
    1.5052   -3.8393    4.2329 C   0  0  0  0  0  0  0  0  0  0  0  0
    0.1761   -3.4877    4.9413 C   0  0  0  0  0  0  0  0  0  0  0  0
    2.5544   -4.2323    5.3027 C   0  0  0  0  0  0  0  0  0  0  0  0
    1.5397   -1.4308    3.4947 C   0  0  0  0  0  0  0  0  0  0  0  0
    1.8861   -0.3138    2.7159 C   0  0  0  0  0  0  0  0  0  0  0  0
    1.2756    1.0644    3.0482 C   0  0  0  0  0  0  0  0  0  0  0  0
    2.0402    2.2189    2.3721 C   0  0  0  0  0  0  0  0  0  0  0  0
    1.3130    1.3269    4.5750 C   0  0  0  0  0  0  0  0  0  0  0  0
   -0.1870    1.1179    2.5629 C   0  0  0  0  0  0  0  0  0  0  0  0
    2.7677   -0.5330    1.6447 C   0  0  0  0  0  0  0  0  0  0  0  0
    3.2655   -1.8207    1.3529 C   0  0  0  0  0  0  0  0  0  0  0  0
    4.1953   -1.8993    0.1314 C   0  0  2  0  0  0  0  0  0  0  0  0
    3.4192   -1.7582   -1.1218 N   0  0  1  0  0  0  0  0  0  0  0  0
    4.0318   -0.8793   -2.1468 C   0  0  0  0  0  0  0  0  0  0  0  0
    3.1936   -3.1223   -1.6157 C   0  0  0  0  0  0  0  0  0  0  0  0
    4.4765   -3.8791   -1.2615 C   0  0  0  0  0  0  0  0  0  0  0  0
    5.0682   -3.1831   -0.0037 C   0  0  1  0  0  0  0  0  0  0  0  0
    6.5395   -2.7836   -0.2837 C   0  0  0  0  0  0  0  0  0  0  0  0
    4.9958   -4.0616    1.2804 C   0  0  2  0  0  0  0  0  0  0  0  0
    5.8689   -5.3436    1.2508 C   0  0  0  0  0  0  0  0  0  0  0  0
    5.7956   -6.0904    2.5904 C   0  0  0  0  0  0  0  0  0  0  0  0
    4.4120   -8.5323    3.2326 H   0  0  0  0  0  0  0  0  0  0  0  0
    3.0450   -7.7362    4.0117 H   0  0  0  0  0  0  0  0  0  0  0  0
    4.6521   -7.5865    4.7127 H   0  0  0  0  0  0  0  0  0  0  0  0
    2.3569   -5.9610    2.6741 H   0  0  0  0  0  0  0  0  0  0  0  0
    2.9628   -4.5879    0.7995 H   0  0  0  0  0  0  0  0  0  0  0  0
    1.1936   -4.6848    3.6351 H   0  0  0  0  0  0  0  0  0  0  0  0
   -0.5423   -3.1217    4.2113 H   0  0  0  0  0  0  0  0  0  0  0  0
    0.2989   -2.7234    5.7106 H   0  0  0  0  0  0  0  0  0  0  0  0
   -0.2558   -4.3560    5.4279 H   0  0  0  0  0  0  0  0  0  0  0  0
    3.5430   -4.4133    4.8896 H   0  0  0  0  0  0  0  0  0  0  0  0
    2.2472   -5.1511    5.8051 H   0  0  0  0  0  0  0  0  0  0  0  0
    2.6783   -3.4704    6.0726 H   0  0  0  0  0  0  0  0  0  0  0  0
    0.8399   -1.2425    4.2818 H   0  0  0  0  0  0  0  0  0  0  0  0
    1.6064    3.1857    2.6335 H   0  0  0  0  0  0  0  0  0  0  0  0
    1.9958    2.1520    1.2895 H   0  0  0  0  0  0  0  0  0  0  0  0
    3.0861    2.2345    2.6842 H   0  0  0  0  0  0  0  0  0  0  0  0
    2.3322    1.2522    4.9559 H   0  0  0  0  0  0  0  0  0  0  0  0
    0.6981    0.6388    5.1513 H   0  0  0  0  0  0  0  0  0  0  0  0
    0.9385    2.3205    4.8175 H   0  0  0  0  0  0  0  0  0  0  0  0
   -0.6317    2.0944    2.7570 H   0  0  0  0  0  0  0  0  0  0  0  0
   -0.8118    0.3736    3.0564 H   0  0  0  0  0  0  0  0  0  0  0  0
   -0.2556    0.9473    1.4880 H   0  0  0  0  0  0  0  0  0  0  0  0
    3.0698    0.2906    1.0130 H   0  0  0  0  0  0  0  0  0  0  0  0
    4.8518   -1.0310    0.2351 H   0  0  0  0  0  0  0  0  0  0  0  0
    4.9781   -1.2845   -2.5072 H   0  0  0  0  0  0  0  0  0  0  0  0
    4.2197    0.1261   -1.7609 H   0  0  0  0  0  0  0  0  0  0  0  0
    3.3644   -0.7779   -3.0097 H   0  0  0  0  0  0  0  0  0  0  0  0
    2.3393   -3.5414   -1.0792 H   0  0  0  0  0  0  0  0  0  0  0  0
    2.9542   -3.1651   -2.6796 H   0  0  0  0  0  0  0  0  0  0  0  0
    4.2786   -4.9405   -1.1166 H   0  0  0  0  0  0  0  0  0  0  0  0
    5.1705   -3.8091   -2.1036 H   0  0  0  0  0  0  0  0  0  0  0  0
    7.1355   -3.6371   -0.6007 H   0  0  0  0  0  0  0  0  0  0  0  0
    7.0135   -2.3597    0.6025 H   0  0  0  0  0  0  0  0  0  0  0  0
    6.6174   -2.0464   -1.0808 H   0  0  0  0  0  0  0  0  0  0  0  0
    5.4366   -3.4678    2.0828 H   0  0  0  0  0  0  0  0  0  0  0  0
    5.5358   -6.0086    0.4523 H   0  0  0  0  0  0  0  0  0  0  0  0
    6.9141   -5.1089    1.0500 H   0  0  0  0  0  0  0  0  0  0  0  0
    6.2372   -5.4996    3.3954 H   0  0  0  0  0  0  0  0  0  0  0  0
    6.3629   -7.0203    2.5202 H   0  0  0  0  0  0  0  0  0  0  0  0
    2.4964   -1.3711   -0.9006 H   0  0  0  0  0  0  0  0  0  0  0  0
  1  2  1  0
  1 28  1  0
  1 29  1  0
  1 30  1  0
  2 27  1  0
  2  3  2  0
  3  4  1  0
  3 31  1  0
  4 25  1  0
  4  5  1  0
  4 32  1  6
  5 17  2  0
  5  6  1  0
  6  7  1  0
  6 10  2  0
  7  8  1  0
  7  9  1  0
  7 33  1  0
  8 34  1  0
  8 35  1  0
  8 36  1  0
  9 37  1  0
  9 38  1  0
  9 39  1  0
 10 11  1  0
 10 40  1  0
 11 12  1  0
 11 16  2  0
 12 13  1  0
 12 14  1  0
 12 15  1  0
 13 41  1  0
 13 42  1  0
 13 43  1  0
 14 44  1  0
 14 45  1  0
 14 46  1  0
 15 47  1  0
 15 48  1  0
 15 49  1  0
 16 17  1  0
 16 50  1  0
 17 18  1  0
 18 23  1  0
 18 19  1  0
 18 51  1  1
 19 20  1  0
 19 21  1  0
 19 67  1  1
 20 52  1  0
 20 53  1  0
 20 54  1  0
 21 22  1  0
 21 55  1  0
 21 56  1  0
 22 23  1  0
 22 57  1  0
 22 58  1  0
 23 24  1  6
 23 25  1  0
 24 59  1  0
 24 60  1  0
 24 61  1  0
 25 26  1  0
 25 62  1  1
 26 27  1  0
 26 63  1  0
 26 64  1  0
 27 65  1  0
 27 66  1  0
M  CHG  1  19   1
M  END
>  <i_m_ct_stereo_status>  (105) 
1

>  <s_m_source_file>  (105) 
/var/tmp/pbs.5076255.sched01/tmp1pt1fpgk/39zsbf0m6x.sdf

>  <i_m_source_file_index>  (105) 
3

>  <i_lp_mmshare_version>  (105) 
48012

>  <i_f3d_flags>  (105) 
0

>  <s_epik_input>  (105) 
W0NIM11DKD1bQ0hdMSlbQ0gyXVtDSDJdW0NAQEhdMltDQEBIXTFjKGMoW0NIXShbQ0gzXSlbQ0gzXSlbY0hdYyhbY0hdMylDKFtDSDNdKShbQ0gzXSlbQ0gzXSljM1tDQEBIXShbQ0BAXTI0W0NIM10pTihbQ0gzXSlbQ0gyXVtDSDJdNA==

>  <s_epik_cmdline>  (105) 
J2VwaWtfcHl0aG9uJywgJy1waHQnLCAnMi4wJywgJy1waCcsICc3LjAnLCAnLXRuJywgJzgnLCAnLW1hJywgJzIwMCcsICctaW1hZScsICc8aW5maWxlLm1hZT4nLCAnLW9tYWUnLCAnPG91dGZpbGUubWFlPic=

>  <r_epik_Ionization_Penalty>  (105) 
0.00941179

>  <r_epik_Ionization_Penalty_Charging>  (105) 
0.00941179

>  <r_epik_Ionization_Penalty_Neutral>  (105) 
0

>  <r_epik_State_Penalty>  (105) 
0.00714592

>  <r_epik_Charging_Adjusted_Penalty>  (105) 
0.0165577

>  <i_epik_Tot_Q>  (105) 
1

>  <i_epik_Tot_abs_Q>  (105) 
1

>  <s_lp_Force_Field>  (105) 
OPLS3e

>  <r_lp_Energy>  (105) 
59.6976

>  <b_lp_Chiralities_Consistent>  (105) 
1

>  <s_lp_Variant>  (105) 
36:0-1

>  <s_i_glide_gridfile>  (105) 
pfpi4k_grid

>  <i_i_glide_lignum>  (105) 
3

>  <i_i_glide_rotatable_bonds>  (105) 
2

>  <r_i_docking_score>  (105) 
-3.14036

>  <r_i_glide_ligand_efficiency>  (105) 
-0.11631

>  <r_i_glide_ligand_efficiency_sa>  (105) 
-0.348929

>  <r_i_glide_ligand_efficiency_ln>  (105) 
-0.731024

>  <r_i_glide_gscore>  (105) 
-3.14036

>  <r_i_glide_lipo>  (105) 
-0.235205

>  <r_i_glide_hbond>  (105) 
-0.2

>  <r_i_glide_metal>  (105) 
-0

>  <r_i_glide_rewards>  (105) 
-0.909528

>  <r_i_glide_evdw>  (105) 
-21.5777

>  <r_i_glide_ecoul>  (105) 
-4.15737

>  <r_i_glide_erotb>  (105) 
0

>  <r_i_glide_esite>  (105) 
-0.093138

>  <r_i_glide_emodel>  (105) 
-30.8427

>  <r_i_glide_energy>  (105) 
-25.7351

>  <r_i_glide_einternal>  (105) 
2.99143

>  <r_i_glide_intrahb_reward>  (105) 
-0

>  <i_i_glide_confnum>  (105) 
2

>  <i_i_glide_posenum>  (105) 
15

>  <r_i_glide_eff_state_penalty>  (105) 
0

>  <ligand_id>  (105) 
36

>  <original_smiles>  (105) 
CC1=CC2c3c(C(C)C)cc(C(C)(C)C)cc3C3N(C)CCC3(C)C2CC1

>  <smiles>  (105) 
[H]C1=C(C([H])([H])[H])C([H])([H])C([H])([H])C2([H])C1([H])c1c(C([H])(C([H])([H])[H])C([H])([H])[H])c([H])c(C(C([H])([H])[H])(C([H])([H])[H])C([H])([H])[H])c([H])c1C1([H])C2(C([H])([H])[H])C([H])([H])C([H])([H])[N+]1([H])C([H])([H])[H]

$$$$
37:0:0
     RDKit          3D

 35 37  0  0  1  0  0  0  0  0999 V2000
    4.3800   -9.0853    3.1431 C   0  0  0  0  0  0  0  0  0  0  0  0
    2.9303   -9.1178    3.0390 N   0  0  0  0  0  0  0  0  0  0  0  0
    2.2131   -8.1785    2.2860 C   0  0  0  0  0  0  0  0  0  0  0  0
    2.8932   -7.1678    1.6924 N   0  0  0  0  0  0  0  0  0  0  0  0
    2.1843   -6.2628    1.0197 C   0  0  0  0  0  0  0  0  0  0  0  0
    2.8508   -5.2235    0.4038 N   0  0  0  0  0  0  0  0  0  0  0  0
    4.2275   -4.8878    0.3027 C   0  0  0  0  0  0  0  0  0  0  0  0
    5.3612   -5.3897    1.0353 C   0  0  0  0  0  0  0  0  0  0  0  0
    6.5196   -4.8112    0.7166 N   0  0  0  0  0  0  0  0  0  0  0  0
    6.1314   -3.9430   -0.2280 N   0  0  0  0  0  0  0  0  0  0  0  0
    4.8266   -3.9581   -0.5114 C   0  0  0  0  0  0  0  0  0  0  0  0
    4.6317   -2.9438   -1.5805 C   0  0  1  0  0  0  0  0  0  0  0  0
    3.3962   -2.0590   -1.4222 C   0  0  0  0  0  0  0  0  0  0  0  0
    5.8669   -2.1796   -1.5218 O   0  0  0  0  0  0  0  0  0  0  0  0
    6.8867   -2.9766   -0.9546 C   0  0  0  0  0  0  0  0  0  0  0  0
    0.8588   -6.2553    0.8569 N   0  0  0  0  0  0  0  0  0  0  0  0
    0.1760   -7.2673    1.4311 C   0  0  0  0  0  0  0  0  0  0  0  0
    0.8105   -8.2698    2.1835 C   0  0  0  0  0  0  0  0  0  0  0  0
    0.0037   -9.3807    2.8440 C   0  0  0  0  0  0  0  0  0  0  0  0
   -1.2771   -9.3144    2.4778 F   0  0  0  0  0  0  0  0  0  0  0  0
    0.4818  -10.5767    2.5076 F   0  0  0  0  0  0  0  0  0  0  0  0
    0.0776   -9.2350    4.1653 F   0  0  0  0  0  0  0  0  0  0  0  0
    2.4348   -9.8872    3.4693 H   0  0  0  0  0  0  0  0  0  0  0  0
    2.2257   -4.6615   -0.1497 H   0  0  0  0  0  0  0  0  0  0  0  0
    4.7124   -9.9249    3.7557 H   0  0  0  0  0  0  0  0  0  0  0  0
    4.7101   -8.1640    3.6241 H   0  0  0  0  0  0  0  0  0  0  0  0
    4.8513   -9.1771    2.1635 H   0  0  0  0  0  0  0  0  0  0  0  0
    5.3802   -6.1253    1.8257 H   0  0  0  0  0  0  0  0  0  0  0  0
    4.6051   -3.4477   -2.5468 H   0  0  0  0  0  0  0  0  0  0  0  0
    2.4807   -2.6472   -1.5181 H   0  0  0  0  0  0  0  0  0  0  0  0
    3.3710   -1.2832   -2.1865 H   0  0  0  0  0  0  0  0  0  0  0  0
    3.3768   -1.5711   -0.4477 H   0  0  0  0  0  0  0  0  0  0  0  0
    7.5673   -2.4417   -0.2903 H   0  0  0  0  0  0  0  0  0  0  0  0
    7.4367   -3.4673   -1.7562 H   0  0  0  0  0  0  0  0  0  0  0  0
   -0.8986   -7.2497    1.2929 H   0  0  0  0  0  0  0  0  0  0  0  0
  1 25  1  0
  1 26  1  0
  1 27  1  0
  1  2  1  0
  2  3  1  0
  2 23  1  0
  3  4  2  0
  3 18  1  0
  4  5  1  0
  5  6  1  0
  5 16  2  0
  6  7  1  0
  6 24  1  0
  7 11  2  0
  7  8  1  0
  8  9  2  0
  8 28  1  0
  9 10  1  0
 10 15  1  0
 10 11  1  0
 11 12  1  0
 12 13  1  0
 12 14  1  0
 12 29  1  6
 13 30  1  0
 13 31  1  0
 13 32  1  0
 14 15  1  0
 15 33  1  0
 15 34  1  0
 16 17  1  0
 17 35  1  0
 17 18  2  0
 18 19  1  0
 19 20  1  0
 19 21  1  0
 19 22  1  0
M  END
>  <i_m_ct_stereo_status>  (106) 
1

>  <s_m_source_file>  (106) 
/var/tmp/pbs.5076255.sched01/tmp1pt1fpgk/39zsbf0m6x.sdf

>  <i_m_source_file_index>  (106) 
5

>  <i_lp_mmshare_version>  (106) 
48012

>  <i_f3d_flags>  (106) 
0

>  <s_epik_input>  (106) 
RkMoRikoRiljMVtjSF1bbkhdYyhcW25IXS9jMT1OXFtDSDNdKT1OL2MoW2NIXW4yKWMobjIzKVtDQEBIXShbQ0gzXSlPW0NIMl0z

>  <s_epik_cmdline>  (106) 
J2VwaWtfcHl0aG9uJywgJy1waHQnLCAnMi4wJywgJy1waCcsICc3LjAnLCAnLXRuJywgJzgnLCAnLW1hJywgJzIwMCcsICctaW1hZScsICc8aW5maWxlLm1hZT4nLCAnLW9tYWUnLCAnPG91dGZpbGUubWFlPic=

>  <r_lp_tautomer_probability>  (106) 
1

>  <r_epik_Ionization_Penalty>  (106) 
0.00304495

>  <r_epik_Ionization_Penalty_Charging>  (106) 
0

>  <r_epik_Ionization_Penalty_Neutral>  (106) 
0.00304495

>  <r_epik_State_Penalty>  (106) 
-0

>  <r_epik_Charging_Adjusted_Penalty>  (106) 
0

>  <i_epik_Tot_Q>  (106) 
0

>  <i_epik_Tot_abs_Q>  (106) 
0

>  <s_epik_Chemistry_Notes>  (106) 
This compound contains an acetal/aminal-like group ( X-CH(R)-Y where X, Y are N, S, or O) that may be acid/base labile, releasing an aldehyde.

>  <s_lp_Force_Field>  (106) 
OPLS3e

>  <r_lp_Energy>  (106) 
15.6222

>  <b_lp_Chiralities_Consistent>  (106) 
1

>  <s_lp_Variant>  (106) 
37:0-1

>  <s_i_glide_gridfile>  (106) 
pfpi4k_grid

>  <i_i_glide_lignum>  (106) 
5

>  <i_i_glide_rotatable_bonds>  (106) 
4

>  <r_i_docking_score>  (106) 
-4.05658

>  <r_i_glide_ligand_efficiency>  (106) 
-0.18439

>  <r_i_glide_ligand_efficiency_sa>  (106) 
-0.516668

>  <r_i_glide_ligand_efficiency_ln>  (106) 
-0.991576

>  <r_i_glide_gscore>  (106) 
-4.05658

>  <r_i_glide_lipo>  (106) 
-0.136844

>  <r_i_glide_hbond>  (106) 
-0.16

>  <r_i_glide_metal>  (106) 
-0

>  <r_i_glide_rewards>  (106) 
-1.92335

>  <r_i_glide_evdw>  (106) 
-25.2466

>  <r_i_glide_ecoul>  (106) 
-5.47638

>  <r_i_glide_erotb>  (106) 
0.376373

>  <r_i_glide_esite>  (106) 
-0.128976

>  <r_i_glide_emodel>  (106) 
-38.3455

>  <r_i_glide_energy>  (106) 
-30.7229

>  <r_i_glide_einternal>  (106) 
0.163208

>  <r_i_glide_intrahb_reward>  (106) 
-0

>  <i_i_glide_confnum>  (106) 
4

>  <i_i_glide_posenum>  (106) 
23

>  <r_i_glide_eff_state_penalty>  (106) 
0

>  <ligand_id>  (106) 
37

>  <original_smiles>  (106) 
CN=c1[nH]c(=Nc2cnn3c2C(C)OC3)[nH]cc1C(F)(F)F

>  <smiles>  (106) 
[H]c1nn2c(c1N([H])c1nc([H])c(C(F)(F)F)c(N([H])C([H])([H])[H])n1)C([H])(C([H])([H])[H])OC2([H])[H]

$$$$
37:0:1
     RDKit          3D

 35 37  0  0  1  0  0  0  0  0999 V2000
    3.8779   -5.0401    4.4885 C   0  0  0  0  0  0  0  0  0  0  0  0
    2.7964   -5.9794    4.2398 N   0  0  0  0  0  0  0  0  0  0  0  0
    2.2088   -6.1157    2.9747 C   0  0  0  0  0  0  0  0  0  0  0  0
    2.6683   -5.3418    1.9610 N   0  0  0  0  0  0  0  0  0  0  0  0
    2.0737   -5.4700    0.7781 C   0  0  0  0  0  0  0  0  0  0  0  0
    2.5010   -4.6882   -0.2684 N   0  0  0  0  0  0  0  0  0  0  0  0
    3.2482   -3.4930   -0.3299 C   0  0  0  0  0  0  0  0  0  0  0  0
    3.7291   -2.6382    0.7232 C   0  0  0  0  0  0  0  0  0  0  0  0
    4.3890   -1.5642    0.2934 N   0  0  0  0  0  0  0  0  0  0  0  0
    4.2954   -1.7246   -1.0363 N   0  0  0  0  0  0  0  0  0  0  0  0
    3.6605   -2.8177   -1.4467 C   0  0  0  0  0  0  0  0  0  0  0  0
    3.7125   -2.8010   -2.9281 C   0  0  1  0  0  0  0  0  0  0  0  0
    2.4226   -3.1875   -3.6391 C   0  0  0  0  0  0  0  0  0  0  0  0
    4.1095   -1.4402   -3.2177 O   0  0  0  0  0  0  0  0  0  0  0  0
    4.7579   -0.8936   -2.0879 C   0  0  0  0  0  0  0  0  0  0  0  0
    1.0387   -6.2622    0.4911 N   0  0  0  0  0  0  0  0  0  0  0  0
    0.5956   -7.0607    1.4783 C   0  0  0  0  0  0  0  0  0  0  0  0
    1.1415   -7.0179    2.7752 C   0  0  0  0  0  0  0  0  0  0  0  0
    0.6037   -7.9074    3.8919 C   0  0  0  0  0  0  0  0  0  0  0  0
   -0.3731   -8.6925    3.4383 F   0  0  0  0  0  0  0  0  0  0  0  0
    1.5769   -8.6719    4.3862 F   0  0  0  0  0  0  0  0  0  0  0  0
    0.1110   -7.1477    4.8728 F   0  0  0  0  0  0  0  0  0  0  0  0
    2.4948   -6.5874    4.9901 H   0  0  0  0  0  0  0  0  0  0  0  0
    2.2060   -5.0628   -1.1630 H   0  0  0  0  0  0  0  0  0  0  0  0
    4.1939   -5.1249    5.5277 H   0  0  0  0  0  0  0  0  0  0  0  0
    3.5448   -4.0161    4.3176 H   0  0  0  0  0  0  0  0  0  0  0  0
    4.7420   -5.2512    3.8554 H   0  0  0  0  0  0  0  0  0  0  0  0
    3.5955   -2.7433    1.7898 H   0  0  0  0  0  0  0  0  0  0  0  0
    4.5311   -3.4367   -3.2635 H   0  0  0  0  0  0  0  0  0  0  0  0
    2.1994   -4.2389   -3.4790 H   0  0  0  0  0  0  0  0  0  0  0  0
    2.5283   -3.0467   -4.7119 H   0  0  0  0  0  0  0  0  0  0  0  0
    1.5770   -2.5949   -3.2951 H   0  0  0  0  0  0  0  0  0  0  0  0
    4.4914    0.1401   -1.8836 H   0  0  0  0  0  0  0  0  0  0  0  0
    5.8309   -1.0187   -2.1824 H   0  0  0  0  0  0  0  0  0  0  0  0
   -0.2276   -7.7183    1.2269 H   0  0  0  0  0  0  0  0  0  0  0  0
  1 25  1  0
  1 26  1  0
  1 27  1  0
  1  2  1  0
  2  3  1  0
  2 23  1  0
  3  4  2  0
  3 18  1  0
  4  5  1  0
  5  6  1  0
  5 16  2  0
  6  7  1  0
  6 24  1  0
  7 11  2  0
  7  8  1  0
  8  9  2  0
  8 28  1  0
  9 10  1  0
 10 15  1  0
 10 11  1  0
 11 12  1  0
 12 13  1  0
 12 14  1  0
 12 29  1  6
 13 30  1  0
 13 31  1  0
 13 32  1  0
 14 15  1  0
 15 33  1  0
 15 34  1  0
 16 17  1  0
 17 35  1  0
 17 18  2  0
 18 19  1  0
 19 20  1  0
 19 21  1  0
 19 22  1  0
M  END
>  <i_m_ct_stereo_status>  (107) 
1

>  <s_m_source_file>  (107) 
/var/tmp/pbs.5076255.sched01/tmp1pt1fpgk/39zsbf0m6x.sdf

>  <i_m_source_file_index>  (107) 
5

>  <i_lp_mmshare_version>  (107) 
48012

>  <i_f3d_flags>  (107) 
0

>  <s_epik_input>  (107) 
RkMoRikoRiljMVtjSF1bbkhdYyhcW25IXS9jMT1OXFtDSDNdKT1OL2MoW2NIXW4yKWMobjIzKVtDQEBIXShbQ0gzXSlPW0NIMl0z

>  <s_epik_cmdline>  (107) 
J2VwaWtfcHl0aG9uJywgJy1waHQnLCAnMi4wJywgJy1waCcsICc3LjAnLCAnLXRuJywgJzgnLCAnLW1hJywgJzIwMCcsICctaW1hZScsICc8aW5maWxlLm1hZT4nLCAnLW9tYWUnLCAnPG91dGZpbGUubWFlPic=

>  <r_lp_tautomer_probability>  (107) 
1

>  <r_epik_Ionization_Penalty>  (107) 
0.00304495

>  <r_epik_Ionization_Penalty_Charging>  (107) 
0

>  <r_epik_Ionization_Penalty_Neutral>  (107) 
0.00304495

>  <r_epik_State_Penalty>  (107) 
-0

>  <r_epik_Charging_Adjusted_Penalty>  (107) 
0

>  <i_epik_Tot_Q>  (107) 
0

>  <i_epik_Tot_abs_Q>  (107) 
0

>  <s_epik_Chemistry_Notes>  (107) 
This compound contains an acetal/aminal-like group ( X-CH(R)-Y where X, Y are N, S, or O) that may be acid/base labile, releasing an aldehyde.

>  <s_lp_Force_Field>  (107) 
OPLS3e

>  <r_lp_Energy>  (107) 
15.6222

>  <b_lp_Chiralities_Consistent>  (107) 
1

>  <s_lp_Variant>  (107) 
37:0-1

>  <s_i_glide_gridfile>  (107) 
pfpi4k_grid

>  <i_i_glide_lignum>  (107) 
5

>  <i_i_glide_rotatable_bonds>  (107) 
4

>  <r_i_docking_score>  (107) 
-3.94997

>  <r_i_glide_ligand_efficiency>  (107) 
-0.179544

>  <r_i_glide_ligand_efficiency_sa>  (107) 
-0.50309

>  <r_i_glide_ligand_efficiency_ln>  (107) 
-0.965517

>  <r_i_glide_gscore>  (107) 
-3.94997

>  <r_i_glide_lipo>  (107) 
-0.289031

>  <r_i_glide_hbond>  (107) 
-0.439347

>  <r_i_glide_metal>  (107) 
-0

>  <r_i_glide_rewards>  (107) 
-1.26637

>  <r_i_glide_evdw>  (107) 
-23.3421

>  <r_i_glide_ecoul>  (107) 
-5.88803

>  <r_i_glide_erotb>  (107) 
0.376373

>  <r_i_glide_esite>  (107) 
-0.28129

>  <r_i_glide_emodel>  (107) 
-36.0004

>  <r_i_glide_energy>  (107) 
-29.2301

>  <r_i_glide_einternal>  (107) 
1.2713

>  <r_i_glide_intrahb_reward>  (107) 
-0

>  <i_i_glide_confnum>  (107) 
4

>  <i_i_glide_posenum>  (107) 
39

>  <r_i_glide_eff_state_penalty>  (107) 
0

>  <ligand_id>  (107) 
37

>  <original_smiles>  (107) 
CN=c1[nH]c(=Nc2cnn3c2C(C)OC3)[nH]cc1C(F)(F)F

>  <smiles>  (107) 
[H]c1nn2c(c1N([H])c1nc([H])c(C(F)(F)F)c(N([H])C([H])([H])[H])n1)C([H])(C([H])([H])[H])OC2([H])[H]

$$$$
37:0:2
     RDKit          3D

 35 37  0  0  1  0  0  0  0  0999 V2000
    3.0583    4.2330    3.8876 C   0  0  0  0  0  0  0  0  0  0  0  0
    1.6455    3.8985    3.9405 N   0  0  0  0  0  0  0  0  0  0  0  0
    1.1304    2.7601    3.3027 C   0  0  0  0  0  0  0  0  0  0  0  0
    2.0004    1.8755    2.7545 N   0  0  0  0  0  0  0  0  0  0  0  0
    1.4717    0.8064    2.1511 C   0  0  0  0  0  0  0  0  0  0  0  0
    2.3095   -0.1034    1.5471 N   0  0  0  0  0  0  0  0  0  0  0  0
    3.6690   -0.4340    1.7751 C   0  0  0  0  0  0  0  0  0  0  0  0
    4.4882   -0.2047    2.9356 C   0  0  0  0  0  0  0  0  0  0  0  0
    5.7399   -0.6530    2.8204 N   0  0  0  0  0  0  0  0  0  0  0  0
    5.7243   -1.1554    1.5783 N   0  0  0  0  0  0  0  0  0  0  0  0
    4.5518   -1.0755    0.9468 C   0  0  0  0  0  0  0  0  0  0  0  0
    4.7551   -1.7251   -0.3740 C   0  0  1  0  0  0  0  0  0  0  0  0
    4.1018   -1.0162   -1.5538 C   0  0  0  0  0  0  0  0  0  0  0  0
    6.2010   -1.7482   -0.4853 O   0  0  0  0  0  0  0  0  0  0  0  0
    6.7720   -1.7394    0.8078 C   0  0  0  0  0  0  0  0  0  0  0  0
    0.1832    0.5032    2.0803 N   0  0  0  0  0  0  0  0  0  0  0  0
   -0.6885    1.3669    2.6223 C   0  0  0  0  0  0  0  0  0  0  0  0
   -0.2652    2.5355    3.2806 C   0  0  0  0  0  0  0  0  0  0  0  0
   -1.2766    3.4895    3.9016 C   0  0  0  0  0  0  0  0  0  0  0  0
   -2.5139    2.9977    3.8180 F   0  0  0  0  0  0  0  0  0  0  0  0
   -0.9979    3.6746    5.1923 F   0  0  0  0  0  0  0  0  0  0  0  0
   -1.2614    4.6778    3.2940 F   0  0  0  0  0  0  0  0  0  0  0  0
    1.0011    4.5792    4.3110 H   0  0  0  0  0  0  0  0  0  0  0  0
    1.8140   -0.6131    0.8164 H   0  0  0  0  0  0  0  0  0  0  0  0
    3.2198    5.1787    4.4067 H   0  0  0  0  0  0  0  0  0  0  0  0
    3.4069    4.3452    2.8591 H   0  0  0  0  0  0  0  0  0  0  0  0
    3.6452    3.4645    4.3891 H   0  0  0  0  0  0  0  0  0  0  0  0
    4.2286    0.2930    3.8579 H   0  0  0  0  0  0  0  0  0  0  0  0
    4.4024   -2.7555   -0.3215 H   0  0  0  0  0  0  0  0  0  0  0  0
    3.0156   -1.0420   -1.4545 H   0  0  0  0  0  0  0  0  0  0  0  0
    4.3611   -1.4949   -2.4952 H   0  0  0  0  0  0  0  0  0  0  0  0
    4.4133    0.0247   -1.6044 H   0  0  0  0  0  0  0  0  0  0  0  0
    7.6884   -1.1525    0.8858 H   0  0  0  0  0  0  0  0  0  0  0  0
    6.9350   -2.7642    1.1391 H   0  0  0  0  0  0  0  0  0  0  0  0
   -1.7291    1.0835    2.5584 H   0  0  0  0  0  0  0  0  0  0  0  0
  1 25  1  0
  1 26  1  0
  1 27  1  0
  1  2  1  0
  2  3  1  0
  2 23  1  0
  3  4  2  0
  3 18  1  0
  4  5  1  0
  5  6  1  0
  5 16  2  0
  6  7  1  0
  6 24  1  0
  7 11  2  0
  7  8  1  0
  8  9  2  0
  8 28  1  0
  9 10  1  0
 10 15  1  0
 10 11  1  0
 11 12  1  0
 12 13  1  0
 12 14  1  0
 12 29  1  1
 13 30  1  0
 13 31  1  0
 13 32  1  0
 14 15  1  0
 15 33  1  0
 15 34  1  0
 16 17  1  0
 17 35  1  0
 17 18  2  0
 18 19  1  0
 19 20  1  0
 19 21  1  0
 19 22  1  0
M  END
>  <i_m_ct_stereo_status>  (108) 
1

>  <s_m_source_file>  (108) 
/var/tmp/pbs.5076255.sched01/tmp1pt1fpgk/39zsbf0m6x.sdf

>  <i_m_source_file_index>  (108) 
5

>  <i_lp_mmshare_version>  (108) 
48012

>  <i_f3d_flags>  (108) 
0

>  <s_epik_input>  (108) 
RkMoRikoRiljMVtjSF1bbkhdYyhcW25IXS9jMT1OXFtDSDNdKT1OL2MoW2NIXW4yKWMobjIzKVtDQEBIXShbQ0gzXSlPW0NIMl0z

>  <s_epik_cmdline>  (108) 
J2VwaWtfcHl0aG9uJywgJy1waHQnLCAnMi4wJywgJy1waCcsICc3LjAnLCAnLXRuJywgJzgnLCAnLW1hJywgJzIwMCcsICctaW1hZScsICc8aW5maWxlLm1hZT4nLCAnLW9tYWUnLCAnPG91dGZpbGUubWFlPic=

>  <r_lp_tautomer_probability>  (108) 
1

>  <r_epik_Ionization_Penalty>  (108) 
0.00304495

>  <r_epik_Ionization_Penalty_Charging>  (108) 
0

>  <r_epik_Ionization_Penalty_Neutral>  (108) 
0.00304495

>  <r_epik_State_Penalty>  (108) 
-0

>  <r_epik_Charging_Adjusted_Penalty>  (108) 
0

>  <i_epik_Tot_Q>  (108) 
0

>  <i_epik_Tot_abs_Q>  (108) 
0

>  <s_epik_Chemistry_Notes>  (108) 
This compound contains an acetal/aminal-like group ( X-CH(R)-Y where X, Y are N, S, or O) that may be acid/base labile, releasing an aldehyde.

>  <s_lp_Force_Field>  (108) 
OPLS3e

>  <r_lp_Energy>  (108) 
15.6222

>  <b_lp_Chiralities_Consistent>  (108) 
1

>  <s_lp_Variant>  (108) 
37:0-1

>  <s_i_glide_gridfile>  (108) 
pfpi4k_grid

>  <i_i_glide_lignum>  (108) 
5

>  <i_i_glide_rotatable_bonds>  (108) 
4

>  <r_i_docking_score>  (108) 
-3.61088

>  <r_i_glide_ligand_efficiency>  (108) 
-0.164131

>  <r_i_glide_ligand_efficiency_sa>  (108) 
-0.459902

>  <r_i_glide_ligand_efficiency_ln>  (108) 
-0.882632

>  <r_i_glide_gscore>  (108) 
-3.61088

>  <r_i_glide_lipo>  (108) 
-0.120333

>  <r_i_glide_hbond>  (108) 
-0.213276

>  <r_i_glide_metal>  (108) 
-0

>  <r_i_glide_rewards>  (108) 
-1.47974

>  <r_i_glide_evdw>  (108) 
-25.9499

>  <r_i_glide_ecoul>  (108) 
-3.79941

>  <r_i_glide_erotb>  (108) 
0.376373

>  <r_i_glide_esite>  (108) 
-0.306501

>  <r_i_glide_emodel>  (108) 
-35.0548

>  <r_i_glide_energy>  (108) 
-29.7493

>  <r_i_glide_einternal>  (108) 
2.45094

>  <r_i_glide_intrahb_reward>  (108) 
-0

>  <i_i_glide_confnum>  (108) 
4

>  <i_i_glide_posenum>  (108) 
2

>  <r_i_glide_eff_state_penalty>  (108) 
0

>  <ligand_id>  (108) 
37

>  <original_smiles>  (108) 
CN=c1[nH]c(=Nc2cnn3c2C(C)OC3)[nH]cc1C(F)(F)F

>  <smiles>  (108) 
[H]c1nn2c(c1N([H])c1nc([H])c(C(F)(F)F)c(N([H])C([H])([H])[H])n1)C([H])(C([H])([H])[H])OC2([H])[H]

$$$$
38:0:0
     RDKit          3D

 52 56  0  0  1  0  0  0  0  0999 V2000
    5.1040   -0.9473   -0.0331 C   0  0  0  0  0  0  0  0  0  0  0  0
    4.6451   -2.1853   -0.8510 C   0  0  1  0  0  0  0  0  0  0  0  0
    3.5250   -1.6943   -1.8373 C   0  0  1  0  0  0  0  0  0  0  0  0
    3.9376   -0.5834   -2.6106 O   0  0  0  0  0  0  0  0  0  0  0  0
    3.0386   -2.7362   -2.8493 C   0  0  0  0  0  0  0  0  0  0  0  0
    4.2167   -3.2303   -3.6873 C   0  0  0  0  0  0  0  0  0  0  0  0
    5.3369   -3.7413   -2.7872 C   0  0  0  0  0  0  0  0  0  0  0  0
    5.8225   -2.7363   -1.7188 C   0  0  2  0  0  0  0  0  0  0  0  0
    6.9617   -3.3686   -0.8862 C   0  0  1  0  0  0  0  0  0  0  0  0
    7.7457   -2.3886   -0.2333 O   0  0  0  0  0  0  0  0  0  0  0  0
    6.4409   -4.4263    0.1082 C   0  0  0  0  0  0  0  0  0  0  0  0
    5.2820   -3.9387    0.9979 C   0  0  1  0  0  0  0  0  0  0  0  0
    4.1456   -3.3271    0.1194 C   0  0  1  0  0  0  0  0  0  0  0  0
    2.9921   -2.8940    1.0464 C   0  0  0  0  0  0  0  0  0  0  0  0
    2.4129   -4.1074    1.7712 C   0  0  0  0  0  0  0  0  0  0  0  0
    3.4265   -4.8507    2.6463 C   0  0  1  0  0  0  0  0  0  0  0  0
    2.8135   -6.1897    3.1082 C   0  0  0  0  0  0  0  0  0  0  0  0
    4.8214   -5.0918    1.9608 C   0  0  2  0  0  0  0  0  0  0  0  0
    5.8052   -5.1263    3.1758 C   0  0  0  0  0  0  0  0  0  0  0  0
    5.1050   -4.2572    4.1496 C   0  0  0  0  0  0  0  0  0  0  0  0
    5.3912   -3.5933    5.2555 N   0  0  0  0  0  0  0  0  0  0  0  0
    4.1515   -3.0129    5.5693 N   0  0  0  0  0  0  0  0  0  0  0  0
    3.2206   -3.3524    4.7041 N   0  0  0  0  0  0  0  0  0  0  0  0
    3.8634   -4.1117    3.7943 N   0  0  0  0  0  0  0  0  0  0  0  0
    4.2560   -0.4050    0.3833 H   0  0  0  0  0  0  0  0  0  0  0  0
    5.6507   -0.2588   -0.6672 H   0  0  0  0  0  0  0  0  0  0  0  0
    5.7618   -1.1878    0.7978 H   0  0  0  0  0  0  0  0  0  0  0  0
    2.6716   -1.3487   -1.2708 H   0  0  0  0  0  0  0  0  0  0  0  0
    3.1602   -0.0842   -2.8213 H   0  0  0  0  0  0  0  0  0  0  0  0
    2.5630   -3.5721   -2.3343 H   0  0  0  0  0  0  0  0  0  0  0  0
    2.2730   -2.3064   -3.4996 H   0  0  0  0  0  0  0  0  0  0  0  0
    3.8815   -4.0245   -4.3534 H   0  0  0  0  0  0  0  0  0  0  0  0
    4.5967   -2.4252   -4.3170 H   0  0  0  0  0  0  0  0  0  0  0  0
    5.0127   -4.6764   -2.3267 H   0  0  0  0  0  0  0  0  0  0  0  0
    6.1821   -3.9715   -3.4275 H   0  0  0  0  0  0  0  0  0  0  0  0
    6.2533   -1.9065   -2.2770 H   0  0  0  0  0  0  0  0  0  0  0  0
    7.6581   -3.8522   -1.5674 H   0  0  0  0  0  0  0  0  0  0  0  0
    8.4938   -2.8162    0.1552 H   0  0  0  0  0  0  0  0  0  0  0  0
    6.0644   -5.2858   -0.4449 H   0  0  0  0  0  0  0  0  0  0  0  0
    7.2671   -4.8130    0.7067 H   0  0  0  0  0  0  0  0  0  0  0  0
    5.6716   -3.1428    1.6279 H   0  0  0  0  0  0  0  0  0  0  0  0
    3.7592   -4.1357   -0.5031 H   0  0  0  0  0  0  0  0  0  0  0  0
    3.3150   -2.1431    1.7682 H   0  0  0  0  0  0  0  0  0  0  0  0
    2.1812   -2.4488    0.4742 H   0  0  0  0  0  0  0  0  0  0  0  0
    1.5597   -3.7993    2.3759 H   0  0  0  0  0  0  0  0  0  0  0  0
    2.0310   -4.8018    1.0202 H   0  0  0  0  0  0  0  0  0  0  0  0
    2.6364   -6.8525    2.2604 H   0  0  0  0  0  0  0  0  0  0  0  0
    1.8621   -6.0386    3.6187 H   0  0  0  0  0  0  0  0  0  0  0  0
    3.4722   -6.7195    3.8002 H   0  0  0  0  0  0  0  0  0  0  0  0
    4.8188   -6.0370    1.4148 H   0  0  0  0  0  0  0  0  0  0  0  0
    5.8715   -6.1302    3.6011 H   0  0  0  0  0  0  0  0  0  0  0  0
    6.8034   -4.7652    2.9424 H   0  0  0  0  0  0  0  0  0  0  0  0
  2  1  1  1
  1 25  1  0
  1 26  1  0
  1 27  1  0
  2  8  1  0
  2 13  1  0
  2  3  1  0
  3  4  1  0
  3  5  1  0
  3 28  1  1
  4 29  1  0
  5  6  1  0
  5 30  1  0
  5 31  1  0
  6  7  1  0
  6 32  1  0
  6 33  1  0
  7  8  1  0
  7 34  1  0
  7 35  1  0
  8  9  1  0
  8 36  1  6
  9 10  1  0
  9 11  1  0
  9 37  1  6
 10 38  1  0
 11 12  1  0
 11 39  1  0
 11 40  1  0
 12 18  1  0
 12 13  1  0
 12 41  1  1
 13 14  1  0
 13 42  1  6
 14 15  1  0
 14 43  1  0
 14 44  1  0
 15 16  1  0
 15 45  1  0
 15 46  1  0
 16 24  1  0
 16 17  1  1
 16 18  1  0
 17 47  1  0
 17 48  1  0
 17 49  1  0
 18 19  1  0
 18 50  1  6
 19 20  1  0
 19 51  1  0
 19 52  1  0
 20 24  1  0
 20 21  2  0
 21 22  1  0
 22 23  2  0
 23 24  1  0
M  END
>  <i_m_ct_stereo_status>  (109) 
1

>  <s_m_source_file>  (109) 
/var/tmp/pbs.5076255.sched01/tmp1pt1fpgk/39zsbf0m6x.sdf

>  <i_m_source_file_index>  (109) 
6

>  <i_lp_mmshare_version>  (109) 
48012

>  <i_f3d_flags>  (109) 
0

>  <s_epik_input>  (109) 
W09IXVtDQEhdMVtDSDJdW0NIMl1bQ0gyXVtDQEBIXShbQ0BAXTEyW0NIM10pW0NAQEhdKFtPSF0pW0NIMl1bQ0BIXTNbQ0BIXTJbQ0gyXVtDSDJdW0NAQF00KFtDSDNdKVtDQEBIXTNbQ0gyXWM1bjRubm41

>  <s_epik_cmdline>  (109) 
J2VwaWtfcHl0aG9uJywgJy1waHQnLCAnMi4wJywgJy1waCcsICc3LjAnLCAnLXRuJywgJzgnLCAnLW1hJywgJzIwMCcsICctaW1hZScsICc8aW5maWxlLm1hZT4nLCAnLW9tYWUnLCAnPG91dGZpbGUubWFlPic=

>  <r_lp_tautomer_probability>  (109) 
1

>  <r_epik_Ionization_Penalty>  (109) 
2.58208e-06

>  <r_epik_Ionization_Penalty_Charging>  (109) 
0

>  <r_epik_Ionization_Penalty_Neutral>  (109) 
2.58208e-06

>  <r_epik_State_Penalty>  (109) 
-0

>  <r_epik_Charging_Adjusted_Penalty>  (109) 
0

>  <i_epik_Tot_Q>  (109) 
0

>  <i_epik_Tot_abs_Q>  (109) 
0

>  <s_lp_Force_Field>  (109) 
OPLS3e

>  <r_lp_Energy>  (109) 
34.6049

>  <b_lp_Chiralities_Consistent>  (109) 
1

>  <s_lp_Variant>  (109) 
38:0-1

>  <s_i_glide_gridfile>  (109) 
pfpi4k_grid

>  <i_i_glide_lignum>  (109) 
6

>  <i_i_glide_rotatable_bonds>  (109) 
2

>  <r_i_docking_score>  (109) 
-3.5524

>  <r_i_glide_ligand_efficiency>  (109) 
-0.148017

>  <r_i_glide_ligand_efficiency_sa>  (109) 
-0.426954

>  <r_i_glide_ligand_efficiency_ln>  (109) 
-0.850253

>  <r_i_glide_gscore>  (109) 
-3.5524

>  <r_i_glide_lipo>  (109) 
-0.644329

>  <r_i_glide_hbond>  (109) 
-0.0594644

>  <r_i_glide_metal>  (109) 
-0

>  <r_i_glide_rewards>  (109) 
-1.1522

>  <r_i_glide_evdw>  (109) 
-23.718

>  <r_i_glide_ecoul>  (109) 
-3.40337

>  <r_i_glide_erotb>  (109) 
0

>  <r_i_glide_esite>  (109) 
0

>  <r_i_glide_emodel>  (109) 
-32.2193

>  <r_i_glide_energy>  (109) 
-27.1214

>  <r_i_glide_einternal>  (109) 
0.936658

>  <r_i_glide_intrahb_reward>  (109) 
-0

>  <i_i_glide_confnum>  (109) 
2

>  <i_i_glide_posenum>  (109) 
34

>  <r_i_glide_eff_state_penalty>  (109) 
0

>  <ligand_id>  (109) 
38

>  <original_smiles>  (109) 
CC12C(O)CCCC1C(O)CC1C2CCC2(C)C1Cc1nnnn12

>  <smiles>  (109) 
[H]OC1([H])C([H])([H])C2([H])C3([H])C([H])([H])c4nnnn4C3(C([H])([H])[H])C([H])([H])C([H])([H])C2([H])C2(C([H])([H])[H])C([H])(O[H])C([H])([H])C([H])([H])C([H])([H])C12[H]

$$$$
38:0:1
     RDKit          3D

 52 56  0  0  1  0  0  0  0  0999 V2000
    3.9736   -1.1047   -0.1663 C   0  0  0  0  0  0  0  0  0  0  0  0
    4.0259   -2.3377   -1.1177 C   0  0  1  0  0  0  0  0  0  0  0  0
    2.8284   -2.2246   -2.1195 C   0  0  1  0  0  0  0  0  0  0  0  0
    2.7490   -0.9467   -2.7182 O   0  0  0  0  0  0  0  0  0  0  0  0
    2.7239   -3.2096   -3.2473 C   0  0  0  0  0  0  0  0  0  0  0  0
    4.0043   -3.1577   -4.0448 C   0  0  0  0  0  0  0  0  0  0  0  0
    5.2338   -3.3339   -3.1515 C   0  0  0  0  0  0  0  0  0  0  0  0
    5.3211   -2.3082   -1.9810 C   0  0  2  0  0  0  0  0  0  0  0  0
    6.6101   -2.5479   -1.1573 C   0  0  1  0  0  0  0  0  0  0  0  0
    6.9584   -1.4615   -0.3158 O   0  0  0  0  0  0  0  0  0  0  0  0
    6.4985   -3.7988   -0.2959 C   0  0  0  0  0  0  0  0  0  0  0  0
    5.2582   -3.8862    0.5949 C   0  0  1  0  0  0  0  0  0  0  0  0
    3.9840   -3.6659   -0.2702 C   0  0  1  0  0  0  0  0  0  0  0  0
    2.7463   -3.8055    0.6396 C   0  0  0  0  0  0  0  0  0  0  0  0
    2.6620   -5.2182    1.2230 C   0  0  0  0  0  0  0  0  0  0  0  0
    3.8914   -5.6110    2.0577 C   0  0  1  0  0  0  0  0  0  0  0  0
    3.8377   -7.1264    2.3642 C   0  0  0  0  0  0  0  0  0  0  0  0
    5.2686   -5.2370    1.3924 C   0  0  2  0  0  0  0  0  0  0  0  0
    6.2104   -5.0493    2.6271 C   0  0  0  0  0  0  0  0  0  0  0  0
    5.2464   -4.6203    3.6644 C   0  0  0  0  0  0  0  0  0  0  0  0
    5.2766   -3.9991    4.8340 N   0  0  0  0  0  0  0  0  0  0  0  0
    3.9211   -3.9535    5.1653 N   0  0  0  0  0  0  0  0  0  0  0  0
    3.1738   -4.5221    4.2498 N   0  0  0  0  0  0  0  0  0  0  0  0
    4.0469   -4.8927    3.2886 N   0  0  0  0  0  0  0  0  0  0  0  0
    2.9859   -0.9749    0.2774 H   0  0  0  0  0  0  0  0  0  0  0  0
    4.2183   -0.1867   -0.6979 H   0  0  0  0  0  0  0  0  0  0  0  0
    4.6676   -1.1562    0.6673 H   0  0  0  0  0  0  0  0  0  0  0  0
    1.9125   -2.4278   -1.6036 H   0  0  0  0  0  0  0  0  0  0  0  0
    2.1139   -0.4780   -2.1874 H   0  0  0  0  0  0  0  0  0  0  0  0
    2.5364   -4.1849   -2.8222 H   0  0  0  0  0  0  0  0  0  0  0  0
    1.8420   -3.0073   -3.8630 H   0  0  0  0  0  0  0  0  0  0  0  0
    3.9716   -3.9586   -4.7723 H   0  0  0  0  0  0  0  0  0  0  0  0
    4.0402   -2.2079   -4.5841 H   0  0  0  0  0  0  0  0  0  0  0  0
    5.2250   -4.3621   -2.7999 H   0  0  0  0  0  0  0  0  0  0  0  0
    6.1158   -3.2560   -3.7787 H   0  0  0  0  0  0  0  0  0  0  0  0
    5.3941   -1.3241   -2.4519 H   0  0  0  0  0  0  0  0  0  0  0  0
    7.4312   -2.6788   -1.8673 H   0  0  0  0  0  0  0  0  0  0  0  0
    6.2874   -1.3687    0.3324 H   0  0  0  0  0  0  0  0  0  0  0  0
    6.3590   -4.6003   -0.9873 H   0  0  0  0  0  0  0  0  0  0  0  0
    7.4291   -3.9547    0.2462 H   0  0  0  0  0  0  0  0  0  0  0  0
    5.3021   -3.0847    1.3288 H   0  0  0  0  0  0  0  0  0  0  0  0
    3.9227   -4.4919   -0.9786 H   0  0  0  0  0  0  0  0  0  0  0  0
    2.7689   -3.0742    1.4488 H   0  0  0  0  0  0  0  0  0  0  0  0
    1.8254   -3.6369    0.0830 H   0  0  0  0  0  0  0  0  0  0  0  0
    1.7600   -5.3226    1.8273 H   0  0  0  0  0  0  0  0  0  0  0  0
    2.5602   -5.9255    0.3971 H   0  0  0  0  0  0  0  0  0  0  0  0
    3.9137   -7.7192    1.4496 H   0  0  0  0  0  0  0  0  0  0  0  0
    2.9061   -7.4027    2.8618 H   0  0  0  0  0  0  0  0  0  0  0  0
    4.6543   -7.4417    3.0182 H   0  0  0  0  0  0  0  0  0  0  0  0
    5.6200   -6.0467    0.7433 H   0  0  0  0  0  0  0  0  0  0  0  0
    6.6529   -5.9925    2.9459 H   0  0  0  0  0  0  0  0  0  0  0  0
    6.9900   -4.3102    2.4791 H   0  0  0  0  0  0  0  0  0  0  0  0
  2  1  1  1
  1 25  1  0
  1 26  1  0
  1 27  1  0
  2  8  1  0
  2 13  1  0
  2  3  1  0
  3  4  1  0
  3  5  1  0
  3 28  1  1
  4 29  1  0
  5  6  1  0
  5 30  1  0
  5 31  1  0
  6  7  1  0
  6 32  1  0
  6 33  1  0
  7  8  1  0
  7 34  1  0
  7 35  1  0
  8  9  1  0
  8 36  1  6
  9 10  1  0
  9 11  1  0
  9 37  1  6
 10 38  1  0
 11 12  1  0
 11 39  1  0
 11 40  1  0
 12 18  1  0
 12 13  1  0
 12 41  1  1
 13 14  1  0
 13 42  1  6
 14 15  1  0
 14 43  1  0
 14 44  1  0
 15 16  1  0
 15 45  1  0
 15 46  1  0
 16 24  1  0
 16 17  1  1
 16 18  1  0
 17 47  1  0
 17 48  1  0
 17 49  1  0
 18 19  1  0
 18 50  1  6
 19 20  1  0
 19 51  1  0
 19 52  1  0
 20 24  1  0
 20 21  2  0
 21 22  1  0
 22 23  2  0
 23 24  1  0
M  END
>  <i_m_ct_stereo_status>  (110) 
1

>  <s_m_source_file>  (110) 
/var/tmp/pbs.5076255.sched01/tmp1pt1fpgk/39zsbf0m6x.sdf

>  <i_m_source_file_index>  (110) 
6

>  <i_lp_mmshare_version>  (110) 
48012

>  <i_f3d_flags>  (110) 
0

>  <s_epik_input>  (110) 
W09IXVtDQEhdMVtDSDJdW0NIMl1bQ0gyXVtDQEBIXShbQ0BAXTEyW0NIM10pW0NAQEhdKFtPSF0pW0NIMl1bQ0BIXTNbQ0BIXTJbQ0gyXVtDSDJdW0NAQF00KFtDSDNdKVtDQEBIXTNbQ0gyXWM1bjRubm41

>  <s_epik_cmdline>  (110) 
J2VwaWtfcHl0aG9uJywgJy1waHQnLCAnMi4wJywgJy1waCcsICc3LjAnLCAnLXRuJywgJzgnLCAnLW1hJywgJzIwMCcsICctaW1hZScsICc8aW5maWxlLm1hZT4nLCAnLW9tYWUnLCAnPG91dGZpbGUubWFlPic=

>  <r_lp_tautomer_probability>  (110) 
1

>  <r_epik_Ionization_Penalty>  (110) 
2.58208e-06

>  <r_epik_Ionization_Penalty_Charging>  (110) 
0

>  <r_epik_Ionization_Penalty_Neutral>  (110) 
2.58208e-06

>  <r_epik_State_Penalty>  (110) 
-0

>  <r_epik_Charging_Adjusted_Penalty>  (110) 
0

>  <i_epik_Tot_Q>  (110) 
0

>  <i_epik_Tot_abs_Q>  (110) 
0

>  <s_lp_Force_Field>  (110) 
OPLS3e

>  <r_lp_Energy>  (110) 
34.6049

>  <b_lp_Chiralities_Consistent>  (110) 
1

>  <s_lp_Variant>  (110) 
38:0-1

>  <s_i_glide_gridfile>  (110) 
pfpi4k_grid

>  <i_i_glide_lignum>  (110) 
6

>  <i_i_glide_rotatable_bonds>  (110) 
2

>  <r_i_docking_score>  (110) 
-3.50102

>  <r_i_glide_ligand_efficiency>  (110) 
-0.145876

>  <r_i_glide_ligand_efficiency_sa>  (110) 
-0.420779

>  <r_i_glide_ligand_efficiency_ln>  (110) 
-0.837955

>  <r_i_glide_gscore>  (110) 
-3.50102

>  <r_i_glide_lipo>  (110) 
-0.614206

>  <r_i_glide_hbond>  (110) 
-0.235803

>  <r_i_glide_metal>  (110) 
-0

>  <r_i_glide_rewards>  (110) 
-1.15062

>  <r_i_glide_evdw>  (110) 
-13.0096

>  <r_i_glide_ecoul>  (110) 
-5.66608

>  <r_i_glide_erotb>  (110) 
0

>  <r_i_glide_esite>  (110) 
0

>  <r_i_glide_emodel>  (110) 
-22.8856

>  <r_i_glide_energy>  (110) 
-18.6757

>  <r_i_glide_einternal>  (110) 
1.20377

>  <r_i_glide_intrahb_reward>  (110) 
-0

>  <i_i_glide_confnum>  (110) 
1

>  <i_i_glide_posenum>  (110) 
4

>  <r_i_glide_eff_state_penalty>  (110) 
0

>  <ligand_id>  (110) 
38

>  <original_smiles>  (110) 
CC12C(O)CCCC1C(O)CC1C2CCC2(C)C1Cc1nnnn12

>  <smiles>  (110) 
[H]OC1([H])C([H])([H])C2([H])C3([H])C([H])([H])c4nnnn4C3(C([H])([H])[H])C([H])([H])C([H])([H])C2([H])C2(C([H])([H])[H])C([H])(O[H])C([H])([H])C([H])([H])C([H])([H])C12[H]

$$$$
38:0:2
     RDKit          3D

 52 56  0  0  1  0  0  0  0  0999 V2000
    5.4198   -0.9262    0.2644 C   0  0  0  0  0  0  0  0  0  0  0  0
    4.9172   -2.0862   -0.6413 C   0  0  1  0  0  0  0  0  0  0  0  0
    3.8198   -1.4705   -1.5810 C   0  0  1  0  0  0  0  0  0  0  0  0
    4.2751   -0.3226   -2.2889 O   0  0  0  0  0  0  0  0  0  0  0  0
    3.2800   -2.4289   -2.6556 C   0  0  0  0  0  0  0  0  0  0  0  0
    4.4277   -2.9137   -3.5388 C   0  0  0  0  0  0  0  0  0  0  0  0
    5.5302   -3.5420   -2.6868 C   0  0  0  0  0  0  0  0  0  0  0  0
    6.0662   -2.6354   -1.5488 C   0  0  2  0  0  0  0  0  0  0  0  0
    7.1773   -3.3704   -0.7629 C   0  0  1  0  0  0  0  0  0  0  0  0
    7.9880   -2.4728   -0.0345 O   0  0  0  0  0  0  0  0  0  0  0  0
    6.6128   -4.4649    0.1608 C   0  0  0  0  0  0  0  0  0  0  0  0
    5.4759   -3.9883    1.0832 C   0  0  1  0  0  0  0  0  0  0  0  0
    4.3653   -3.2676    0.2519 C   0  0  1  0  0  0  0  0  0  0  0  0
    3.2237   -2.8557    1.2026 C   0  0  0  0  0  0  0  0  0  0  0  0
    2.6047   -4.0942    1.8461 C   0  0  0  0  0  0  0  0  0  0  0  0
    3.5863   -4.9369    2.6644 C   0  0  1  0  0  0  0  0  0  0  0  0
    2.9213   -6.2773    3.0372 C   0  0  0  0  0  0  0  0  0  0  0  0
    4.9734   -5.1891    1.9648 C   0  0  2  0  0  0  0  0  0  0  0  0
    5.9579   -5.3536    3.1727 C   0  0  0  0  0  0  0  0  0  0  0  0
    5.2875   -4.5277    4.2043 C   0  0  0  0  0  0  0  0  0  0  0  0
    5.6008   -3.9549    5.3540 N   0  0  0  0  0  0  0  0  0  0  0  0
    4.3862   -3.3457    5.7060 N   0  0  0  0  0  0  0  0  0  0  0  0
    3.4463   -3.5832    4.8205 N   0  0  0  0  0  0  0  0  0  0  0  0
    4.0541   -4.3020    3.8598 N   0  0  0  0  0  0  0  0  0  0  0  0
    4.5879   -0.3845    0.7134 H   0  0  0  0  0  0  0  0  0  0  0  0
    5.9931   -0.2058   -0.3167 H   0  0  0  0  0  0  0  0  0  0  0  0
    6.0610   -1.2413    1.0839 H   0  0  0  0  0  0  0  0  0  0  0  0
    3.0085   -1.1236   -0.9584 H   0  0  0  0  0  0  0  0  0  0  0  0
    4.7664   -0.5982   -3.0377 H   0  0  0  0  0  0  0  0  0  0  0  0
    2.7733   -3.2819   -2.2029 H   0  0  0  0  0  0  0  0  0  0  0  0
    2.5326   -1.9218   -3.2682 H   0  0  0  0  0  0  0  0  0  0  0  0
    4.0591   -3.6440   -4.2621 H   0  0  0  0  0  0  0  0  0  0  0  0
    4.8317   -2.0783   -4.1139 H   0  0  0  0  0  0  0  0  0  0  0  0
    5.1444   -4.4800   -2.2854 H   0  0  0  0  0  0  0  0  0  0  0  0
    6.3541   -3.8096   -3.3445 H   0  0  0  0  0  0  0  0  0  0  0  0
    6.5421   -1.7939   -2.0475 H   0  0  0  0  0  0  0  0  0  0  0  0
    7.8530   -3.8352   -1.4795 H   0  0  0  0  0  0  0  0  0  0  0  0
    7.4842   -2.1502    0.6969 H   0  0  0  0  0  0  0  0  0  0  0  0
    6.1943   -5.2679   -0.4443 H   0  0  0  0  0  0  0  0  0  0  0  0
    7.4260   -4.9201    0.7282 H   0  0  0  0  0  0  0  0  0  0  0  0
    5.8935   -3.2569    1.7744 H   0  0  0  0  0  0  0  0  0  0  0  0
    3.9459   -4.0144   -0.4246 H   0  0  0  0  0  0  0  0  0  0  0  0
    3.5758   -2.1709    1.9773 H   0  0  0  0  0  0  0  0  0  0  0  0
    2.4261   -2.3438    0.6650 H   0  0  0  0  0  0  0  0  0  0  0  0
    1.7602   -3.7941    2.4701 H   0  0  0  0  0  0  0  0  0  0  0  0
    2.1949   -4.7196    1.0495 H   0  0  0  0  0  0  0  0  0  0  0  0
    2.7129   -6.8734    2.1451 H   0  0  0  0  0  0  0  0  0  0  0  0
    1.9768   -6.1242    3.5631 H   0  0  0  0  0  0  0  0  0  0  0  0
    3.5570   -6.8815    3.6871 H   0  0  0  0  0  0  0  0  0  0  0  0
    4.9270   -6.0932    1.3512 H   0  0  0  0  0  0  0  0  0  0  0  0
    5.9790   -6.3830    3.5264 H   0  0  0  0  0  0  0  0  0  0  0  0
    6.9820   -5.0368    2.9916 H   0  0  0  0  0  0  0  0  0  0  0  0
  2  1  1  1
  1 25  1  0
  1 26  1  0
  1 27  1  0
  2  8  1  0
  2 13  1  0
  2  3  1  0
  3  4  1  0
  3  5  1  0
  3 28  1  1
  4 29  1  0
  5  6  1  0
  5 30  1  0
  5 31  1  0
  6  7  1  0
  6 32  1  0
  6 33  1  0
  7  8  1  0
  7 34  1  0
  7 35  1  0
  8  9  1  0
  8 36  1  6
  9 10  1  0
  9 11  1  0
  9 37  1  6
 10 38  1  0
 11 12  1  0
 11 39  1  0
 11 40  1  0
 12 18  1  0
 12 13  1  0
 12 41  1  1
 13 14  1  0
 13 42  1  6
 14 15  1  0
 14 43  1  0
 14 44  1  0
 15 16  1  0
 15 45  1  0
 15 46  1  0
 16 24  1  0
 16 17  1  1
 16 18  1  0
 17 47  1  0
 17 48  1  0
 17 49  1  0
 18 19  1  0
 18 50  1  6
 19 20  1  0
 19 51  1  0
 19 52  1  0
 20 24  1  0
 20 21  2  0
 21 22  1  0
 22 23  2  0
 23 24  1  0
M  END
>  <i_m_ct_stereo_status>  (111) 
1

>  <s_m_source_file>  (111) 
/var/tmp/pbs.5076255.sched01/tmp1pt1fpgk/39zsbf0m6x.sdf

>  <i_m_source_file_index>  (111) 
6

>  <i_lp_mmshare_version>  (111) 
48012

>  <i_f3d_flags>  (111) 
0

>  <s_epik_input>  (111) 
W09IXVtDQEhdMVtDSDJdW0NIMl1bQ0gyXVtDQEBIXShbQ0BAXTEyW0NIM10pW0NAQEhdKFtPSF0pW0NIMl1bQ0BIXTNbQ0BIXTJbQ0gyXVtDSDJdW0NAQF00KFtDSDNdKVtDQEBIXTNbQ0gyXWM1bjRubm41

>  <s_epik_cmdline>  (111) 
J2VwaWtfcHl0aG9uJywgJy1waHQnLCAnMi4wJywgJy1waCcsICc3LjAnLCAnLXRuJywgJzgnLCAnLW1hJywgJzIwMCcsICctaW1hZScsICc8aW5maWxlLm1hZT4nLCAnLW9tYWUnLCAnPG91dGZpbGUubWFlPic=

>  <r_lp_tautomer_probability>  (111) 
1

>  <r_epik_Ionization_Penalty>  (111) 
2.58208e-06

>  <r_epik_Ionization_Penalty_Charging>  (111) 
0

>  <r_epik_Ionization_Penalty_Neutral>  (111) 
2.58208e-06

>  <r_epik_State_Penalty>  (111) 
-0

>  <r_epik_Charging_Adjusted_Penalty>  (111) 
0

>  <i_epik_Tot_Q>  (111) 
0

>  <i_epik_Tot_abs_Q>  (111) 
0

>  <s_lp_Force_Field>  (111) 
OPLS3e

>  <r_lp_Energy>  (111) 
34.6049

>  <b_lp_Chiralities_Consistent>  (111) 
1

>  <s_lp_Variant>  (111) 
38:0-1

>  <s_i_glide_gridfile>  (111) 
pfpi4k_grid

>  <i_i_glide_lignum>  (111) 
6

>  <i_i_glide_rotatable_bonds>  (111) 
2

>  <r_i_docking_score>  (111) 
-3.27213

>  <r_i_glide_ligand_efficiency>  (111) 
-0.136339

>  <r_i_glide_ligand_efficiency_sa>  (111) 
-0.393269

>  <r_i_glide_ligand_efficiency_ln>  (111) 
-0.783171

>  <r_i_glide_gscore>  (111) 
-3.27213

>  <r_i_glide_lipo>  (111) 
-0.829046

>  <r_i_glide_hbond>  (111) 
0

>  <r_i_glide_metal>  (111) 
-0

>  <r_i_glide_rewards>  (111) 
-1.14519

>  <r_i_glide_evdw>  (111) 
-24.9172

>  <r_i_glide_ecoul>  (111) 
-0.346873

>  <r_i_glide_erotb>  (111) 
0

>  <r_i_glide_esite>  (111) 
0

>  <r_i_glide_emodel>  (111) 
-30.2399

>  <r_i_glide_energy>  (111) 
-25.2641

>  <r_i_glide_einternal>  (111) 
0.399396

>  <r_i_glide_intrahb_reward>  (111) 
-0

>  <i_i_glide_confnum>  (111) 
1

>  <i_i_glide_posenum>  (111) 
7

>  <r_i_glide_eff_state_penalty>  (111) 
0

>  <ligand_id>  (111) 
38

>  <original_smiles>  (111) 
CC12C(O)CCCC1C(O)CC1C2CCC2(C)C1Cc1nnnn12

>  <smiles>  (111) 
[H]OC1([H])C([H])([H])C2([H])C3([H])C([H])([H])c4nnnn4C3(C([H])([H])[H])C([H])([H])C([H])([H])C2([H])C2(C([H])([H])[H])C([H])(O[H])C([H])([H])C([H])([H])C([H])([H])C12[H]

$$$$
39:0:0
     RDKit          3D

 40 43  0  0  1  0  0  0  0  0999 V2000
    3.2115   -9.7518    2.4006 C   0  0  0  0  0  0  0  0  0  0  0  0
    2.0475   -8.8604    2.8187 C   0  0  0  0  0  0  0  0  0  0  0  0
    1.0447   -9.5923    3.4288 N   0  0  0  0  0  0  0  0  0  0  0  0
   -0.1908   -8.9975    3.8686 C   0  0  2  0  0  0  0  0  0  0  0  0
   -1.2497   -8.8858    2.7713 C   0  0  0  0  0  0  0  0  0  0  0  0
   -1.5458   -7.4812    3.3017 C   0  0  0  0  0  0  0  0  0  0  0  0
   -0.1407   -7.4675    3.9201 C   0  0  2  0  0  0  0  0  0  0  0  0
    0.7819   -6.8261    3.0385 O   0  0  0  0  0  0  0  0  0  0  0  0
    1.9129   -7.5149    2.6192 C   0  0  0  0  0  0  0  0  0  0  0  0
    2.9198   -6.6511    1.9441 C   0  0  0  0  0  0  0  0  0  0  0  0
    3.9462   -7.0286    1.3825 O   0  0  0  0  0  0  0  0  0  0  0  0
    2.5626   -5.3455    1.9807 O   0  0  0  0  0  0  0  0  0  0  0  0
    3.3506   -4.3955    1.2801 C   0  0  2  0  0  0  0  0  0  0  0  0
    3.1944   -2.9926    1.8801 C   0  0  0  0  0  0  0  0  0  0  0  0
    3.9279   -2.0265    1.1481 O   0  0  0  0  0  0  0  0  0  0  0  0
    3.7844   -2.0571   -0.2029 C   0  0  0  0  0  0  0  0  0  0  0  0
    4.1495   -1.0839   -1.0329 N   0  0  0  0  0  0  0  0  0  0  0  0
    3.7875   -1.5876   -2.2949 C   0  0  0  0  0  0  0  0  0  0  0  0
    3.9288   -0.8543   -3.5240 N   0  0  0  0  0  0  0  0  0  0  0  0
    3.8120   -1.4867   -4.5713 O   0  0  0  0  0  0  0  0  0  0  0  0
    4.1783    0.3346   -3.4829 O   0  0  0  0  0  0  0  0  0  0  0  0
    3.2978   -2.8638   -2.1725 C   0  0  0  0  0  0  0  0  0  0  0  0
    3.3151   -3.1514   -0.8115 N   0  0  0  0  0  0  0  0  0  0  0  0
    2.8833   -4.3628   -0.1773 C   0  0  0  0  0  0  0  0  0  0  0  0
    3.7329   -9.4157    1.5103 H   0  0  0  0  0  0  0  0  0  0  0  0
    2.8341  -10.7396    2.1325 H   0  0  0  0  0  0  0  0  0  0  0  0
    3.9335   -9.8775    3.2102 H   0  0  0  0  0  0  0  0  0  0  0  0
   -0.5947   -9.4158    4.7935 H   0  0  0  0  0  0  0  0  0  0  0  0
   -0.8196   -8.8762    1.7680 H   0  0  0  0  0  0  0  0  0  0  0  0
   -2.0706   -9.5926    2.8673 H   0  0  0  0  0  0  0  0  0  0  0  0
   -1.7038   -6.7513    2.5104 H   0  0  0  0  0  0  0  0  0  0  0  0
   -2.3399   -7.4748    4.0477 H   0  0  0  0  0  0  0  0  0  0  0  0
   -0.1251   -7.0643    4.9361 H   0  0  0  0  0  0  0  0  0  0  0  0
    1.1660  -10.5856    3.5829 H   0  0  0  0  0  0  0  0  0  0  0  0
    4.4138   -4.6436    1.3273 H   0  0  0  0  0  0  0  0  0  0  0  0
    2.1464   -2.6802    1.9323 H   0  0  0  0  0  0  0  0  0  0  0  0
    3.5923   -2.9751    2.8888 H   0  0  0  0  0  0  0  0  0  0  0  0
    2.9409   -3.5583   -2.9046 H   0  0  0  0  0  0  0  0  0  0  0  0
    3.2935   -5.2120   -0.7061 H   0  0  0  0  0  0  0  0  0  0  0  0
    1.8046   -4.3839   -0.2429 H   0  0  0  0  0  0  0  0  0  0  0  0
  1 25  1  0
  1 26  1  0
  1 27  1  0
  1  2  1  0
  2  9  2  0
  2  3  1  0
  3  4  1  0
  3 34  1  0
  4  7  1  0
  4  5  1  0
  4 28  1  1
  5  6  1  0
  5 29  1  0
  5 30  1  0
  6  7  1  0
  6 31  1  0
  6 32  1  0
  7  8  1  0
  7 33  1  1
  8  9  1  0
  9 10  1  0
 10 11  2  0
 10 12  1  0
 12 13  1  0
 13 24  1  0
 13 14  1  0
 13 35  1  6
 14 15  1  0
 14 36  1  0
 14 37  1  0
 15 16  1  0
 16 23  1  0
 16 17  2  0
 17 18  1  0
 18 19  1  0
 18 22  2  0
 19 20  2  0
 19 21  1  0
 22 23  1  0
 22 38  1  0
 23 24  1  0
 24 39  1  0
 24 40  1  0
M  CHG  2  19   1  21  -1
M  END
>  <i_m_ct_stereo_status>  (112) 
1

>  <s_m_source_file>  (112) 
/var/tmp/pbs.5076255.sched01/tmp1pt1fpgk/39zsbf0m6x.sdf

>  <i_m_source_file_index>  (112) 
7

>  <i_lp_mmshare_version>  (112) 
48012

>  <i_f3d_flags>  (112) 
0

>  <s_epik_input>  (112) 
W0NIMl0xW0NIMl1bQ0BASF0oW0NAQEhdMTIpT1tDQEhdKEMoPU4yKVtDSDNdKUMoPU8pT1tDQEhdKFtDSDJdTzMpW0NIMl1uKGMzNClbY0hdYyhuNClbTitdKD1PKVtPLV0=

>  <s_epik_cmdline>  (112) 
J2VwaWtfcHl0aG9uJywgJy1waHQnLCAnMi4wJywgJy1waCcsICc3LjAnLCAnLXRuJywgJzgnLCAnLW1hJywgJzIwMCcsICctaW1hZScsICc8aW5maWxlLm1hZT4nLCAnLW9tYWUnLCAnPG91dGZpbGUubWFlPic=

>  <r_lp_tautomer_probability>  (112) 
1

>  <r_epik_Ionization_Penalty>  (112) 
8.47748e-06

>  <r_epik_Ionization_Penalty_Charging>  (112) 
8.47143e-06

>  <r_epik_Ionization_Penalty_Neutral>  (112) 
6.05656e-09

>  <r_epik_State_Penalty>  (112) 
-0

>  <r_epik_Charging_Adjusted_Penalty>  (112) 
8.47143e-06

>  <i_epik_Tot_Q>  (112) 
0

>  <i_epik_Tot_abs_Q>  (112) 
2

>  <s_epik_Chemistry_Notes>  (112) 
This compound has an ester and may undergo hydrolysis at high or low pH.

>  <s_lp_Force_Field>  (112) 
OPLS3e

>  <r_lp_Energy>  (112) 
45.4998

>  <b_lp_Chiralities_Consistent>  (112) 
1

>  <s_lp_Variant>  (112) 
39:0-1

>  <s_i_glide_gridfile>  (112) 
pfpi4k_grid

>  <i_i_glide_lignum>  (112) 
7

>  <i_i_glide_rotatable_bonds>  (112) 
4

>  <r_i_docking_score>  (112) 
-3.28042

>  <r_i_glide_ligand_efficiency>  (112) 
-0.136684

>  <r_i_glide_ligand_efficiency_sa>  (112) 
-0.394266

>  <r_i_glide_ligand_efficiency_ln>  (112) 
-0.785156

>  <r_i_glide_gscore>  (112) 
-3.28042

>  <r_i_glide_lipo>  (112) 
-0.00151836

>  <r_i_glide_hbond>  (112) 
0

>  <r_i_glide_metal>  (112) 
-0

>  <r_i_glide_rewards>  (112) 
-1.45949

>  <r_i_glide_evdw>  (112) 
-32.958

>  <r_i_glide_ecoul>  (112) 
-3.53752

>  <r_i_glide_erotb>  (112) 
0.500928

>  <r_i_glide_esite>  (112) 
-0.141811

>  <r_i_glide_emodel>  (112) 
-43.1973

>  <r_i_glide_energy>  (112) 
-36.4956

>  <r_i_glide_einternal>  (112) 
0.319471

>  <r_i_glide_intrahb_reward>  (112) 
-0

>  <i_i_glide_confnum>  (112) 
2

>  <i_i_glide_posenum>  (112) 
22

>  <r_i_glide_eff_state_penalty>  (112) 
0

>  <ligand_id>  (112) 
39

>  <original_smiles>  (112) 
CC1=NC2CCC2OC1C(=O)OC1COc2nc([N+](=O)[O-])cn2C1

>  <smiles>  (112) 
[H]c1c([N+](=O)[O-])nc2n1C([H])([H])C([H])(OC(=O)C1=C(C([H])([H])[H])N([H])C3([H])C([H])([H])C([H])([H])C3([H])O1)C([H])([H])O2

$$$$
39:0:1
     RDKit          3D

 40 43  0  0  1  0  0  0  0  0999 V2000
    3.1062   -8.7261    1.5083 C   0  0  0  0  0  0  0  0  0  0  0  0
    1.8711   -8.2601    2.2700 C   0  0  0  0  0  0  0  0  0  0  0  0
    1.0176   -9.3116    2.5409 N   0  0  0  0  0  0  0  0  0  0  0  0
   -0.2529   -9.1308    3.2014 C   0  0  2  0  0  0  0  0  0  0  0  0
   -1.3855   -8.7163    2.2617 C   0  0  0  0  0  0  0  0  0  0  0  0
   -1.8093   -7.7168    3.3402 C   0  0  0  0  0  0  0  0  0  0  0  0
   -0.3816   -7.7736    3.8903 C   0  0  2  0  0  0  0  0  0  0  0  0
    0.3864   -6.7036    3.3348 O   0  0  0  0  0  0  0  0  0  0  0  0
    1.5502   -6.9905    2.6441 C   0  0  0  0  0  0  0  0  0  0  0  0
    2.4097   -5.7981    2.4103 C   0  0  0  0  0  0  0  0  0  0  0  0
    3.4356   -5.7563    1.7306 O   0  0  0  0  0  0  0  0  0  0  0  0
    1.9294   -4.7308    3.0727 O   0  0  0  0  0  0  0  0  0  0  0  0
    2.7863   -3.6320    3.3786 C   0  0  2  0  0  0  0  0  0  0  0  0
    2.9611   -3.6219    4.9058 C   0  0  0  0  0  0  0  0  0  0  0  0
    1.7420   -3.3211    5.5761 O   0  0  0  0  0  0  0  0  0  0  0  0
    1.0073   -2.3181    5.1006 C   0  0  0  0  0  0  0  0  0  0  0  0
    0.0111   -1.7235    5.7448 N   0  0  0  0  0  0  0  0  0  0  0  0
   -0.4156   -0.7413    4.8425 C   0  0  0  0  0  0  0  0  0  0  0  0
   -1.4706    0.1967    5.1133 N   0  0  0  0  0  0  0  0  0  0  0  0
   -1.6038    1.1561    4.3673 O   0  0  0  0  0  0  0  0  0  0  0  0
   -2.1810   -0.0300    6.0874 O   0  0  0  0  0  0  0  0  0  0  0  0
    0.3175   -0.8101    3.6807 C   0  0  0  0  0  0  0  0  0  0  0  0
    1.2026   -1.8425    3.8562 N   0  0  0  0  0  0  0  0  0  0  0  0
    2.1871   -2.3048    2.9108 C   0  0  0  0  0  0  0  0  0  0  0  0
    3.5271   -7.9691    0.8538 H   0  0  0  0  0  0  0  0  0  0  0  0
    2.8339   -9.5503    0.8463 H   0  0  0  0  0  0  0  0  0  0  0  0
    3.8913   -9.0791    2.1801 H   0  0  0  0  0  0  0  0  0  0  0  0
   -0.5404   -9.9557    3.8541 H   0  0  0  0  0  0  0  0  0  0  0  0
   -1.0291   -8.2334    1.3476 H   0  0  0  0  0  0  0  0  0  0  0  0
   -2.1162   -9.5000    2.0548 H   0  0  0  0  0  0  0  0  0  0  0  0
   -2.1130   -6.7478    2.9488 H   0  0  0  0  0  0  0  0  0  0  0  0
   -2.5484   -8.1359    4.0231 H   0  0  0  0  0  0  0  0  0  0  0  0
   -0.3380   -7.8210    4.9783 H   0  0  0  0  0  0  0  0  0  0  0  0
    1.2598  -10.2447    2.2345 H   0  0  0  0  0  0  0  0  0  0  0  0
    3.7682   -3.7458    2.9117 H   0  0  0  0  0  0  0  0  0  0  0  0
    3.3281   -4.5902    5.2469 H   0  0  0  0  0  0  0  0  0  0  0  0
    3.7104   -2.8855    5.1924 H   0  0  0  0  0  0  0  0  0  0  0  0
    0.2528   -0.2254    2.7655 H   0  0  0  0  0  0  0  0  0  0  0  0
    2.9750   -1.5467    2.8741 H   0  0  0  0  0  0  0  0  0  0  0  0
    1.7444   -2.3846    1.9111 H   0  0  0  0  0  0  0  0  0  0  0  0
  1 25  1  0
  1 26  1  0
  1 27  1  0
  1  2  1  0
  2  9  2  0
  2  3  1  0
  3  4  1  0
  3 34  1  0
  4  7  1  0
  4  5  1  0
  4 28  1  1
  5  6  1  0
  5 29  1  0
  5 30  1  0
  6  7  1  0
  6 31  1  0
  6 32  1  0
  7  8  1  0
  7 33  1  1
  8  9  1  0
  9 10  1  0
 10 11  2  0
 10 12  1  0
 12 13  1  0
 13 24  1  0
 13 14  1  0
 13 35  1  6
 14 15  1  0
 14 36  1  0
 14 37  1  0
 15 16  1  0
 16 23  1  0
 16 17  2  0
 17 18  1  0
 18 19  1  0
 18 22  2  0
 19 20  2  0
 19 21  1  0
 22 23  1  0
 22 38  1  0
 23 24  1  0
 24 39  1  0
 24 40  1  0
M  CHG  2  19   1  21  -1
M  END
>  <i_m_ct_stereo_status>  (113) 
1

>  <s_m_source_file>  (113) 
/var/tmp/pbs.5076255.sched01/tmp1pt1fpgk/39zsbf0m6x.sdf

>  <i_m_source_file_index>  (113) 
7

>  <i_lp_mmshare_version>  (113) 
48012

>  <i_f3d_flags>  (113) 
0

>  <s_epik_input>  (113) 
W0NIMl0xW0NIMl1bQ0BASF0oW0NAQEhdMTIpT1tDQEhdKEMoPU4yKVtDSDNdKUMoPU8pT1tDQEhdKFtDSDJdTzMpW0NIMl1uKGMzNClbY0hdYyhuNClbTitdKD1PKVtPLV0=

>  <s_epik_cmdline>  (113) 
J2VwaWtfcHl0aG9uJywgJy1waHQnLCAnMi4wJywgJy1waCcsICc3LjAnLCAnLXRuJywgJzgnLCAnLW1hJywgJzIwMCcsICctaW1hZScsICc8aW5maWxlLm1hZT4nLCAnLW9tYWUnLCAnPG91dGZpbGUubWFlPic=

>  <r_lp_tautomer_probability>  (113) 
1

>  <r_epik_Ionization_Penalty>  (113) 
8.47748e-06

>  <r_epik_Ionization_Penalty_Charging>  (113) 
8.47143e-06

>  <r_epik_Ionization_Penalty_Neutral>  (113) 
6.05656e-09

>  <r_epik_State_Penalty>  (113) 
-0

>  <r_epik_Charging_Adjusted_Penalty>  (113) 
8.47143e-06

>  <i_epik_Tot_Q>  (113) 
0

>  <i_epik_Tot_abs_Q>  (113) 
2

>  <s_epik_Chemistry_Notes>  (113) 
This compound has an ester and may undergo hydrolysis at high or low pH.

>  <s_lp_Force_Field>  (113) 
OPLS3e

>  <r_lp_Energy>  (113) 
45.4998

>  <b_lp_Chiralities_Consistent>  (113) 
1

>  <s_lp_Variant>  (113) 
39:0-1

>  <s_i_glide_gridfile>  (113) 
pfpi4k_grid

>  <i_i_glide_lignum>  (113) 
7

>  <i_i_glide_rotatable_bonds>  (113) 
4

>  <r_i_docking_score>  (113) 
-2.82559

>  <r_i_glide_ligand_efficiency>  (113) 
-0.117733

>  <r_i_glide_ligand_efficiency_sa>  (113) 
-0.3396

>  <r_i_glide_ligand_efficiency_ln>  (113) 
-0.676293

>  <r_i_glide_gscore>  (113) 
-2.82559

>  <r_i_glide_lipo>  (113) 
-0.105214

>  <r_i_glide_hbond>  (113) 
0

>  <r_i_glide_metal>  (113) 
-0

>  <r_i_glide_rewards>  (113) 
-1.13007

>  <r_i_glide_evdw>  (113) 
-26.8674

>  <r_i_glide_ecoul>  (113) 
-3.78345

>  <r_i_glide_erotb>  (113) 
0.500928

>  <r_i_glide_esite>  (113) 
-0.180347

>  <r_i_glide_emodel>  (113) 
-35.0423

>  <r_i_glide_energy>  (113) 
-30.6509

>  <r_i_glide_einternal>  (113) 
2.58058

>  <r_i_glide_intrahb_reward>  (113) 
-0

>  <i_i_glide_confnum>  (113) 
1

>  <i_i_glide_posenum>  (113) 
2

>  <r_i_glide_eff_state_penalty>  (113) 
0

>  <ligand_id>  (113) 
39

>  <original_smiles>  (113) 
CC1=NC2CCC2OC1C(=O)OC1COc2nc([N+](=O)[O-])cn2C1

>  <smiles>  (113) 
[H]c1c([N+](=O)[O-])nc2n1C([H])([H])C([H])(OC(=O)C1=C(C([H])([H])[H])N([H])C3([H])C([H])([H])C([H])([H])C3([H])O1)C([H])([H])O2

$$$$
39:0:2
     RDKit          3D

 40 43  0  0  1  0  0  0  0  0999 V2000
    3.2366   -8.7234    1.8398 C   0  0  0  0  0  0  0  0  0  0  0  0
    1.9785   -8.5304    2.6802 C   0  0  0  0  0  0  0  0  0  0  0  0
    1.0520   -9.5242    2.4468 N   0  0  0  0  0  0  0  0  0  0  0  0
   -0.2655   -9.5181    3.0314 C   0  0  2  0  0  0  0  0  0  0  0  0
   -1.2933   -8.6563    2.2895 C   0  0  0  0  0  0  0  0  0  0  0  0
   -1.7597   -8.1664    3.6645 C   0  0  0  0  0  0  0  0  0  0  0  0
   -0.3867   -8.5720    4.2200 C   0  0  2  0  0  0  0  0  0  0  0  0
    0.4954   -7.4477    4.2252 O   0  0  0  0  0  0  0  0  0  0  0  0
    1.6983   -7.5174    3.5456 C   0  0  0  0  0  0  0  0  0  0  0  0
    2.6317   -6.4066    3.8697 C   0  0  0  0  0  0  0  0  0  0  0  0
    3.7016   -6.1604    3.3111 O   0  0  0  0  0  0  0  0  0  0  0  0
    2.1505   -5.6527    4.8731 O   0  0  0  0  0  0  0  0  0  0  0  0
    2.9188   -4.5566    5.3640 C   0  0  2  0  0  0  0  0  0  0  0  0
    2.5778   -4.3585    6.8470 C   0  0  0  0  0  0  0  0  0  0  0  0
    1.2404   -3.9229    7.0325 O   0  0  0  0  0  0  0  0  0  0  0  0
    0.7834   -2.9729    6.2337 C   0  0  0  0  0  0  0  0  0  0  0  0
   -0.3187   -2.2623    6.4468 N   0  0  0  0  0  0  0  0  0  0  0  0
   -0.3657   -1.4103    5.3341 C   0  0  0  0  0  0  0  0  0  0  0  0
   -1.3762   -0.3978    5.1395 N   0  0  0  0  0  0  0  0  0  0  0  0
   -1.3635    0.2291    4.0852 O   0  0  0  0  0  0  0  0  0  0  0  0
   -2.1805   -0.2239    6.0603 O   0  0  0  0  0  0  0  0  0  0  0  0
    0.6919   -1.6616    4.4896 C   0  0  0  0  0  0  0  0  0  0  0  0
    1.4045   -2.6728    5.0783 N   0  0  0  0  0  0  0  0  0  0  0  0
    2.6139   -3.2751    4.5823 C   0  0  0  0  0  0  0  0  0  0  0  0
    3.7481   -7.8004    1.5789 H   0  0  0  0  0  0  0  0  0  0  0  0
    2.9734   -9.1748    0.8818 H   0  0  0  0  0  0  0  0  0  0  0  0
    3.9464   -9.3887    2.3357 H   0  0  0  0  0  0  0  0  0  0  0  0
   -0.6402  -10.5154    3.2568 H   0  0  0  0  0  0  0  0  0  0  0  0
   -0.8371   -7.8656    1.6876 H   0  0  0  0  0  0  0  0  0  0  0  0
   -2.0406   -9.2179    1.7268 H   0  0  0  0  0  0  0  0  0  0  0  0
   -1.9752   -7.0988    3.7126 H   0  0  0  0  0  0  0  0  0  0  0  0
   -2.5705   -8.7740    4.0704 H   0  0  0  0  0  0  0  0  0  0  0  0
   -0.4385   -9.0855    5.1797 H   0  0  0  0  0  0  0  0  0  0  0  0
    1.2513  -10.2439    1.7635 H   0  0  0  0  0  0  0  0  0  0  0  0
    3.9854   -4.7875    5.2881 H   0  0  0  0  0  0  0  0  0  0  0  0
    2.7424   -5.2865    7.3944 H   0  0  0  0  0  0  0  0  0  0  0  0
    3.2462   -3.6200    7.2864 H   0  0  0  0  0  0  0  0  0  0  0  0
    0.9743   -1.1922    3.5488 H   0  0  0  0  0  0  0  0  0  0  0  0
    3.4216   -2.5531    4.7301 H   0  0  0  0  0  0  0  0  0  0  0  0
    2.5185   -3.4622    3.5065 H   0  0  0  0  0  0  0  0  0  0  0  0
  1 25  1  0
  1 26  1  0
  1 27  1  0
  1  2  1  0
  2  9  2  0
  2  3  1  0
  3  4  1  0
  3 34  1  0
  4  7  1  0
  4  5  1  0
  4 28  1  1
  5  6  1  0
  5 29  1  0
  5 30  1  0
  6  7  1  0
  6 31  1  0
  6 32  1  0
  7  8  1  0
  7 33  1  1
  8  9  1  0
  9 10  1  0
 10 11  2  0
 10 12  1  0
 12 13  1  0
 13 24  1  0
 13 14  1  0
 13 35  1  1
 14 15  1  0
 14 36  1  0
 14 37  1  0
 15 16  1  0
 16 23  1  0
 16 17  2  0
 17 18  1  0
 18 19  1  0
 18 22  2  0
 19 20  2  0
 19 21  1  0
 22 23  1  0
 22 38  1  0
 23 24  1  0
 24 39  1  0
 24 40  1  0
M  CHG  2  19   1  21  -1
M  END
>  <i_m_ct_stereo_status>  (114) 
1

>  <s_m_source_file>  (114) 
/var/tmp/pbs.5076255.sched01/tmp1pt1fpgk/39zsbf0m6x.sdf

>  <i_m_source_file_index>  (114) 
7

>  <i_lp_mmshare_version>  (114) 
48012

>  <i_f3d_flags>  (114) 
0

>  <s_epik_input>  (114) 
W0NIMl0xW0NIMl1bQ0BASF0oW0NAQEhdMTIpT1tDQEhdKEMoPU4yKVtDSDNdKUMoPU8pT1tDQEhdKFtDSDJdTzMpW0NIMl1uKGMzNClbY0hdYyhuNClbTitdKD1PKVtPLV0=

>  <s_epik_cmdline>  (114) 
J2VwaWtfcHl0aG9uJywgJy1waHQnLCAnMi4wJywgJy1waCcsICc3LjAnLCAnLXRuJywgJzgnLCAnLW1hJywgJzIwMCcsICctaW1hZScsICc8aW5maWxlLm1hZT4nLCAnLW9tYWUnLCAnPG91dGZpbGUubWFlPic=

>  <r_lp_tautomer_probability>  (114) 
1

>  <r_epik_Ionization_Penalty>  (114) 
8.47748e-06

>  <r_epik_Ionization_Penalty_Charging>  (114) 
8.47143e-06

>  <r_epik_Ionization_Penalty_Neutral>  (114) 
6.05656e-09

>  <r_epik_State_Penalty>  (114) 
-0

>  <r_epik_Charging_Adjusted_Penalty>  (114) 
8.47143e-06

>  <i_epik_Tot_Q>  (114) 
0

>  <i_epik_Tot_abs_Q>  (114) 
2

>  <s_epik_Chemistry_Notes>  (114) 
This compound has an ester and may undergo hydrolysis at high or low pH.

>  <s_lp_Force_Field>  (114) 
OPLS3e

>  <r_lp_Energy>  (114) 
45.4998

>  <b_lp_Chiralities_Consistent>  (114) 
1

>  <s_lp_Variant>  (114) 
39:0-1

>  <s_i_glide_gridfile>  (114) 
pfpi4k_grid

>  <i_i_glide_lignum>  (114) 
7

>  <i_i_glide_rotatable_bonds>  (114) 
4

>  <r_i_docking_score>  (114) 
-2.73188

>  <r_i_glide_ligand_efficiency>  (114) 
-0.113828

>  <r_i_glide_ligand_efficiency_sa>  (114) 
-0.328337

>  <r_i_glide_ligand_efficiency_ln>  (114) 
-0.653864

>  <r_i_glide_gscore>  (114) 
-2.73188

>  <r_i_glide_lipo>  (114) 
-0.0675139

>  <r_i_glide_hbond>  (114) 
0

>  <r_i_glide_metal>  (114) 
-0

>  <r_i_glide_rewards>  (114) 
-1.11849

>  <r_i_glide_evdw>  (114) 
-24.2647

>  <r_i_glide_ecoul>  (114) 
-4.32132

>  <r_i_glide_erotb>  (114) 
0.500928

>  <r_i_glide_esite>  (114) 
-0.185373

>  <r_i_glide_emodel>  (114) 
-34.0649

>  <r_i_glide_energy>  (114) 
-28.586

>  <r_i_glide_einternal>  (114) 
0.296486

>  <r_i_glide_intrahb_reward>  (114) 
-0

>  <i_i_glide_confnum>  (114) 
3

>  <i_i_glide_posenum>  (114) 
18

>  <r_i_glide_eff_state_penalty>  (114) 
0

>  <ligand_id>  (114) 
39

>  <original_smiles>  (114) 
CC1=NC2CCC2OC1C(=O)OC1COc2nc([N+](=O)[O-])cn2C1

>  <smiles>  (114) 
[H]c1c([N+](=O)[O-])nc2n1C([H])([H])C([H])(OC(=O)C1=C(C([H])([H])[H])N([H])C3([H])C([H])([H])C([H])([H])C3([H])O1)C([H])([H])O2

$$$$
41:0:0
     RDKit          3D

 53 56  0  0  1  0  0  0  0  0999 V2000
    1.1459    1.2751    1.4486 C   0  0  0  0  0  0  0  0  0  0  0  0
    0.2973    1.8973    2.4923 N   0  0  1  0  0  0  0  0  0  0  0  0
   -0.8330    1.0052    2.8429 C   0  0  0  0  0  0  0  0  0  0  0  0
   -1.7875    1.6453    3.8780 C   0  0  0  0  0  0  0  0  0  0  0  0
   -1.0475    2.1926    5.0287 N   0  0  0  0  0  0  0  0  0  0  0  0
   -1.3811    1.8652    6.3406 C   0  0  0  0  0  0  0  0  0  0  0  0
   -2.1787    0.9793    6.6968 O   0  0  0  0  0  0  0  0  0  0  0  0
   -0.7355    2.6689    7.2140 O   0  0  0  0  0  0  0  0  0  0  0  0
   -0.9372    2.5814    8.6232 C   0  0  2  0  0  0  0  0  0  0  0  0
   -2.2626    3.2533    9.0630 C   0  0  1  0  0  0  0  0  0  0  0  0
   -2.4369    3.0489   10.5835 C   0  0  0  0  0  0  0  0  0  0  0  0
   -1.2571    3.7085   11.3357 C   0  0  2  0  0  0  0  0  0  0  0  0
   -1.2356    5.2217   11.0256 C   0  0  0  0  0  0  0  0  0  0  0  0
   -1.0457    5.4299    9.5051 C   0  0  2  0  0  0  0  0  0  0  0  0
   -2.2245    4.7709    8.7546 C   0  0  0  0  0  0  0  0  0  0  0  0
    0.2692    4.7802    9.0422 C   0  0  0  0  0  0  0  0  0  0  0  0
    0.2514    3.2592    9.3537 C   0  0  1  0  0  0  0  0  0  0  0  0
    0.0695    3.0697   10.8839 C   0  0  0  0  0  0  0  0  0  0  0  0
    0.0572    3.0975    4.6467 C   0  0  0  0  0  0  0  0  0  0  0  0
    1.0538    2.3982    3.6905 C   0  0  0  0  0  0  0  0  0  0  0  0
    1.7720    1.2476    4.4331 C   0  0  0  0  0  0  0  0  0  0  0  0
    2.1212    3.4494    3.3001 C   0  0  0  0  0  0  0  0  0  0  0  0
    1.5730    0.3282    1.7588 H   0  0  0  0  0  0  0  0  0  0  0  0
    1.9661    1.9429    1.2166 H   0  0  0  0  0  0  0  0  0  0  0  0
    0.5636    1.0824    0.5374 H   0  0  0  0  0  0  0  0  0  0  0  0
   -1.4045    0.7412    1.9402 H   0  0  0  0  0  0  0  0  0  0  0  0
   -0.4511    0.0634    3.2467 H   0  0  0  0  0  0  0  0  0  0  0  0
   -2.3544    2.4401    3.4035 H   0  0  0  0  0  0  0  0  0  0  0  0
   -2.5183    0.9090    4.1985 H   0  0  0  0  0  0  0  0  0  0  0  0
   -0.9519    1.5229    8.9083 H   0  0  0  0  0  0  0  0  0  0  0  0
   -3.1082    2.8006    8.5491 H   0  0  0  0  0  0  0  0  0  0  0  0
   -3.3836    3.4759   10.9201 H   0  0  0  0  0  0  0  0  0  0  0  0
   -2.4744    1.9882   10.8267 H   0  0  0  0  0  0  0  0  0  0  0  0
   -1.3846    3.5601   12.4113 H   0  0  0  0  0  0  0  0  0  0  0  0
   -2.1686    5.6814   11.3542 H   0  0  0  0  0  0  0  0  0  0  0  0
   -0.4322    5.7107   11.5835 H   0  0  0  0  0  0  0  0  0  0  0  0
   -1.0245    6.4988    9.2896 H   0  0  0  0  0  0  0  0  0  0  0  0
   -2.1202    4.9389    7.6854 H   0  0  0  0  0  0  0  0  0  0  0  0
   -3.1651    5.2365    9.0559 H   0  0  0  0  0  0  0  0  0  0  0  0
    0.4121    4.9400    7.9727 H   0  0  0  0  0  0  0  0  0  0  0  0
    1.1200    5.2541    9.5326 H   0  0  0  0  0  0  0  0  0  0  0  0
    1.1813    2.8159    9.0412 H   0  0  0  0  0  0  0  0  0  0  0  0
    0.9077    3.5153   11.4206 H   0  0  0  0  0  0  0  0  0  0  0  0
    0.0761    2.0072   11.1302 H   0  0  0  0  0  0  0  0  0  0  0  0
   -0.3746    3.9941    4.1998 H   0  0  0  0  0  0  0  0  0  0  0  0
    0.6146    3.4655    5.5069 H   0  0  0  0  0  0  0  0  0  0  0  0
    2.2952    1.6029    5.3270 H   0  0  0  0  0  0  0  0  0  0  0  0
    2.5270    0.7744    3.8095 H   0  0  0  0  0  0  0  0  0  0  0  0
    1.0912    0.4588    4.7608 H   0  0  0  0  0  0  0  0  0  0  0  0
    2.5514    3.9351    4.1827 H   0  0  0  0  0  0  0  0  0  0  0  0
    1.7165    4.2513    2.6820 H   0  0  0  0  0  0  0  0  0  0  0  0
    2.9599    3.0143    2.7589 H   0  0  0  0  0  0  0  0  0  0  0  0
   -0.0896    2.7166    2.0516 H   0  0  0  0  0  0  0  0  0  0  0  0
  1  2  1  0
  1 23  1  0
  1 24  1  0
  1 25  1  0
  2 20  1  0
  2  3  1  0
  2 53  1  6
  3  4  1  0
  3 26  1  0
  3 27  1  0
  4  5  1  0
  4 28  1  0
  4 29  1  0
  5  6  1  0
  5 19  1  0
  6  7  2  0
  6  8  1  0
  8  9  1  0
  9 17  1  0
  9 10  1  0
  9 30  1  1
 10 15  1  0
 10 11  1  0
 10 31  1  6
 11 12  1  0
 11 32  1  0
 11 33  1  0
 12 18  1  0
 12 13  1  0
 12 34  1  1
 13 14  1  0
 13 35  1  0
 13 36  1  0
 14 15  1  0
 14 16  1  0
 14 37  1  1
 15 38  1  0
 15 39  1  0
 16 17  1  0
 16 40  1  0
 16 41  1  0
 17 18  1  0
 17 42  1  6
 18 43  1  0
 18 44  1  0
 19 20  1  0
 19 45  1  0
 19 46  1  0
 20 21  1  0
 20 22  1  0
 21 47  1  0
 21 48  1  0
 21 49  1  0
 22 50  1  0
 22 51  1  0
 22 52  1  0
M  CHG  1   2   1
M  END
>  <i_m_ct_stereo_status>  (115) 
1

>  <s_m_source_file>  (115) 
/var/tmp/pbs.5076255.sched01/tmp1pt1fpgk/39zsbf0m6x.sdf

>  <i_m_source_file_index>  (115) 
9

>  <i_lp_mmshare_version>  (115) 
48012

>  <i_f3d_flags>  (115) 
0

>  <s_epik_input>  (115) 
W0NIM11DMShbQ0gzXSlOKFtDSDNdKVtDSDJdW0NIMl1OKFtDSDJdMSlDKD1PKU9bQ0BIXShbQ0BASF0yMylbQ0BIXTRbQ0gyXVtDQEBIXShbQ0gyXTMpW0NIMl1bQ0BASF0oW0NIMl0yKVtDSDJdNA==

>  <s_epik_cmdline>  (115) 
J2VwaWtfcHl0aG9uJywgJy1waHQnLCAnMi4wJywgJy1waCcsICc3LjAnLCAnLXRuJywgJzgnLCAnLW1hJywgJzIwMCcsICctaW1hZScsICc8aW5maWxlLm1hZT4nLCAnLW9tYWUnLCAnPG91dGZpbGUubWFlPic=

>  <r_epik_Ionization_Penalty>  (115) 
0.330478

>  <r_epik_Ionization_Penalty_Charging>  (115) 
0.330478

>  <r_epik_Ionization_Penalty_Neutral>  (115) 
1.25331e-08

>  <r_epik_State_Penalty>  (115) 
0.325545

>  <r_epik_Charging_Adjusted_Penalty>  (115) 
0.656023

>  <i_epik_Tot_Q>  (115) 
1

>  <i_epik_Tot_abs_Q>  (115) 
1

>  <s_epik_Chemistry_Notes>  (115) 
This compound has an ester and may undergo hydrolysis at high or low pH.

>  <s_lp_Force_Field>  (115) 
OPLS3e

>  <r_lp_Energy>  (115) 
25.1776

>  <b_lp_Chiralities_Consistent>  (115) 
1

>  <s_lp_Variant>  (115) 
41:0-1

>  <s_i_glide_gridfile>  (115) 
pfpi4k_grid

>  <i_i_glide_lignum>  (115) 
9

>  <i_i_glide_rotatable_bonds>  (115) 
3

>  <r_i_docking_score>  (115) 
-3.05182

>  <r_i_glide_ligand_efficiency>  (115) 
-0.138719

>  <r_i_glide_ligand_efficiency_sa>  (115) 
-0.388697

>  <r_i_glide_ligand_efficiency_ln>  (115) 
-0.745977

>  <r_i_glide_gscore>  (115) 
-3.05182

>  <r_i_glide_lipo>  (115) 
-0.0056477

>  <r_i_glide_hbond>  (115) 
-0.339245

>  <r_i_glide_metal>  (115) 
-0

>  <r_i_glide_rewards>  (115) 
-1.31283

>  <r_i_glide_evdw>  (115) 
-15.9775

>  <r_i_glide_ecoul>  (115) 
-7.17266

>  <r_i_glide_erotb>  (115) 
0.586727

>  <r_i_glide_esite>  (115) 
-0.106046

>  <r_i_glide_emodel>  (115) 
-28.941

>  <r_i_glide_energy>  (115) 
-23.1502

>  <r_i_glide_einternal>  (115) 
0.911314

>  <r_i_glide_intrahb_reward>  (115) 
-0

>  <i_i_glide_confnum>  (115) 
2

>  <i_i_glide_posenum>  (115) 
39

>  <r_i_glide_eff_state_penalty>  (115) 
0

>  <ligand_id>  (115) 
41

>  <original_smiles>  (115) 
CN1CCN(C(=O)OC2C3CC4CC(C3)CC2C4)CC1(C)C

>  <smiles>  (115) 
[H]C([H])([H])C1(C([H])([H])[H])C([H])([H])N(C(=O)OC2([H])C3([H])C([H])([H])C4([H])C([H])([H])C([H])(C3([H])[H])C([H])([H])C2([H])C4([H])[H])C([H])([H])C([H])([H])[N+]1([H])C([H])([H])[H]

$$$$
41:0:1
     RDKit          3D

 53 56  0  0  1  0  0  0  0  0999 V2000
    1.2911    1.0627    1.3903 C   0  0  0  0  0  0  0  0  0  0  0  0
    0.5340    2.0808    2.1654 N   0  0  1  0  0  0  0  0  0  0  0  0
   -0.8945    1.6866    2.2965 C   0  0  0  0  0  0  0  0  0  0  0  0
   -1.7276    2.7884    2.9978 C   0  0  0  0  0  0  0  0  0  0  0  0
   -1.0824    3.2091    4.2505 N   0  0  0  0  0  0  0  0  0  0  0  0
   -1.7613    3.2245    5.4649 C   0  0  0  0  0  0  0  0  0  0  0  0
   -2.9793    3.0674    5.6117 O   0  0  0  0  0  0  0  0  0  0  0  0
   -0.9083    3.3904    6.4968 O   0  0  0  0  0  0  0  0  0  0  0  0
   -1.3020    3.1334    7.8477 C   0  0  2  0  0  0  0  0  0  0  0  0
   -2.1385    4.2798    8.4588 C   0  0  1  0  0  0  0  0  0  0  0  0
   -2.5745    3.8650    9.8870 C   0  0  0  0  0  0  0  0  0  0  0  0
   -1.3210    3.6313   10.7593 C   0  0  2  0  0  0  0  0  0  0  0  0
   -0.4953    4.9356   10.8299 C   0  0  0  0  0  0  0  0  0  0  0  0
   -0.0466    5.3421    9.4082 C   0  0  2  0  0  0  0  0  0  0  0  0
   -1.2985    5.5759    8.5346 C   0  0  0  0  0  0  0  0  0  0  0  0
    0.7957    4.2152    8.7819 C   0  0  0  0  0  0  0  0  0  0  0  0
   -0.0320    2.9069    8.7105 C   0  0  1  0  0  0  0  0  0  0  0  0
   -0.4601    2.5089   10.1482 C   0  0  0  0  0  0  0  0  0  0  0  0
    0.3399    3.6015    4.0923 C   0  0  0  0  0  0  0  0  0  0  0  0
    1.1644    2.4574    3.4661 C   0  0  0  0  0  0  0  0  0  0  0  0
    1.2363    1.2620    4.4444 C   0  0  0  0  0  0  0  0  0  0  0  0
    2.5973    2.9981    3.2665 C   0  0  0  0  0  0  0  0  0  0  0  0
    1.2676    0.0875    1.8725 H   0  0  0  0  0  0  0  0  0  0  0  0
    2.3343    1.3394    1.2299 H   0  0  0  0  0  0  0  0  0  0  0  0
    0.8113    0.9367    0.4142 H   0  0  0  0  0  0  0  0  0  0  0  0
   -1.3237    1.4478    1.3130 H   0  0  0  0  0  0  0  0  0  0  0  0
   -0.9726    0.7582    2.8711 H   0  0  0  0  0  0  0  0  0  0  0  0
   -1.8526    3.6524    2.3454 H   0  0  0  0  0  0  0  0  0  0  0  0
   -2.7381    2.4081    3.1777 H   0  0  0  0  0  0  0  0  0  0  0  0
   -1.8881    2.2113    7.8610 H   0  0  0  0  0  0  0  0  0  0  0  0
   -3.0304    4.4595    7.8625 H   0  0  0  0  0  0  0  0  0  0  0  0
   -3.1951    4.6422   10.3248 H   0  0  0  0  0  0  0  0  0  0  0  0
   -3.1775    2.9592    9.8511 H   0  0  0  0  0  0  0  0  0  0  0  0
   -1.6308    3.3428   11.7709 H   0  0  0  0  0  0  0  0  0  0  0  0
   -1.0963    5.7322   11.2734 H   0  0  0  0  0  0  0  0  0  0  0  0
    0.3713    4.8022   11.4811 H   0  0  0  0  0  0  0  0  0  0  0  0
    0.5421    6.2549    9.4596 H   0  0  0  0  0  0  0  0  0  0  0  0
   -0.9942    5.8976    7.5362 H   0  0  0  0  0  0  0  0  0  0  0  0
   -1.8975    6.3858    8.9522 H   0  0  0  0  0  0  0  0  0  0  0  0
    1.1251    4.5042    7.7812 H   0  0  0  0  0  0  0  0  0  0  0  0
    1.7035    4.0554    9.3601 H   0  0  0  0  0  0  0  0  0  0  0  0
    0.5740    2.1157    8.2808 H   0  0  0  0  0  0  0  0  0  0  0  0
    0.4159    2.3272   10.7663 H   0  0  0  0  0  0  0  0  0  0  0  0
   -1.0246    1.5755   10.1289 H   0  0  0  0  0  0  0  0  0  0  0  0
    0.3649    4.4954    3.4682 H   0  0  0  0  0  0  0  0  0  0  0  0
    0.8077    3.9111    5.0261 H   0  0  0  0  0  0  0  0  0  0  0  0
    1.6627    1.5512    5.4088 H   0  0  0  0  0  0  0  0  0  0  0  0
    1.8709    0.4614    4.0580 H   0  0  0  0  0  0  0  0  0  0  0  0
    0.2593    0.8202    4.6464 H   0  0  0  0  0  0  0  0  0  0  0  0
    2.9980    3.4401    4.1830 H   0  0  0  0  0  0  0  0  0  0  0  0
    2.6552    3.7814    2.5111 H   0  0  0  0  0  0  0  0  0  0  0  0
    3.2978    2.2129    2.9672 H   0  0  0  0  0  0  0  0  0  0  0  0
    0.5114    2.9370    1.6200 H   0  0  0  0  0  0  0  0  0  0  0  0
  1  2  1  0
  1 23  1  0
  1 24  1  0
  1 25  1  0
  2 20  1  0
  2  3  1  0
  2 53  1  6
  3  4  1  0
  3 26  1  0
  3 27  1  0
  4  5  1  0
  4 28  1  0
  4 29  1  0
  5  6  1  0
  5 19  1  0
  6  7  2  0
  6  8  1  0
  8  9  1  0
  9 17  1  0
  9 10  1  0
  9 30  1  6
 10 15  1  0
 10 11  1  0
 10 31  1  6
 11 12  1  0
 11 32  1  0
 11 33  1  0
 12 18  1  0
 12 13  1  0
 12 34  1  1
 13 14  1  0
 13 35  1  0
 13 36  1  0
 14 15  1  0
 14 16  1  0
 14 37  1  1
 15 38  1  0
 15 39  1  0
 16 17  1  0
 16 40  1  0
 16 41  1  0
 17 18  1  0
 17 42  1  6
 18 43  1  0
 18 44  1  0
 19 20  1  0
 19 45  1  0
 19 46  1  0
 20 21  1  0
 20 22  1  0
 21 47  1  0
 21 48  1  0
 21 49  1  0
 22 50  1  0
 22 51  1  0
 22 52  1  0
M  CHG  1   2   1
M  END
>  <i_m_ct_stereo_status>  (116) 
1

>  <s_m_source_file>  (116) 
/var/tmp/pbs.5076255.sched01/tmp1pt1fpgk/39zsbf0m6x.sdf

>  <i_m_source_file_index>  (116) 
9

>  <i_lp_mmshare_version>  (116) 
48012

>  <i_f3d_flags>  (116) 
0

>  <s_epik_input>  (116) 
W0NIM11DMShbQ0gzXSlOKFtDSDNdKVtDSDJdW0NIMl1OKFtDSDJdMSlDKD1PKU9bQ0BIXShbQ0BASF0yMylbQ0BIXTRbQ0gyXVtDQEBIXShbQ0gyXTMpW0NIMl1bQ0BASF0oW0NIMl0yKVtDSDJdNA==

>  <s_epik_cmdline>  (116) 
J2VwaWtfcHl0aG9uJywgJy1waHQnLCAnMi4wJywgJy1waCcsICc3LjAnLCAnLXRuJywgJzgnLCAnLW1hJywgJzIwMCcsICctaW1hZScsICc8aW5maWxlLm1hZT4nLCAnLW9tYWUnLCAnPG91dGZpbGUubWFlPic=

>  <r_epik_Ionization_Penalty>  (116) 
0.330478

>  <r_epik_Ionization_Penalty_Charging>  (116) 
0.330478

>  <r_epik_Ionization_Penalty_Neutral>  (116) 
1.25331e-08

>  <r_epik_State_Penalty>  (116) 
0.325545

>  <r_epik_Charging_Adjusted_Penalty>  (116) 
0.656023

>  <i_epik_Tot_Q>  (116) 
1

>  <i_epik_Tot_abs_Q>  (116) 
1

>  <s_epik_Chemistry_Notes>  (116) 
This compound has an ester and may undergo hydrolysis at high or low pH.

>  <s_lp_Force_Field>  (116) 
OPLS3e

>  <r_lp_Energy>  (116) 
25.1776

>  <b_lp_Chiralities_Consistent>  (116) 
1

>  <s_lp_Variant>  (116) 
41:0-1

>  <s_i_glide_gridfile>  (116) 
pfpi4k_grid

>  <i_i_glide_lignum>  (116) 
9

>  <i_i_glide_rotatable_bonds>  (116) 
3

>  <r_i_docking_score>  (116) 
-2.77087

>  <r_i_glide_ligand_efficiency>  (116) 
-0.125948

>  <r_i_glide_ligand_efficiency_sa>  (116) 
-0.352913

>  <r_i_glide_ligand_efficiency_ln>  (116) 
-0.677301

>  <r_i_glide_gscore>  (116) 
-2.77087

>  <r_i_glide_lipo>  (116) 
-0.00626481

>  <r_i_glide_hbond>  (116) 
-0.2

>  <r_i_glide_metal>  (116) 
-0

>  <r_i_glide_rewards>  (116) 
-1.31283

>  <r_i_glide_evdw>  (116) 
-16.1238

>  <r_i_glide_ecoul>  (116) 
-5.9933

>  <r_i_glide_erotb>  (116) 
0.586727

>  <r_i_glide_esite>  (116) 
-0.133308

>  <r_i_glide_emodel>  (116) 
-26.1506

>  <r_i_glide_energy>  (116) 
-22.1171

>  <r_i_glide_einternal>  (116) 
2.53696

>  <r_i_glide_intrahb_reward>  (116) 
-0

>  <i_i_glide_confnum>  (116) 
5

>  <i_i_glide_posenum>  (116) 
30

>  <r_i_glide_eff_state_penalty>  (116) 
0

>  <ligand_id>  (116) 
41

>  <original_smiles>  (116) 
CN1CCN(C(=O)OC2C3CC4CC(C3)CC2C4)CC1(C)C

>  <smiles>  (116) 
[H]C([H])([H])C1(C([H])([H])[H])C([H])([H])N(C(=O)OC2([H])C3([H])C([H])([H])C4([H])C([H])([H])C([H])(C3([H])[H])C([H])([H])C2([H])C4([H])[H])C([H])([H])C([H])([H])[N+]1([H])C([H])([H])[H]

$$$$
41:0:2
     RDKit          3D

 53 56  0  0  1  0  0  0  0  0999 V2000
   -0.6770    0.8935    1.8099 C   0  0  0  0  0  0  0  0  0  0  0  0
   -0.2127    2.1203    2.5187 N   0  0  1  0  0  0  0  0  0  0  0  0
   -1.2828    2.5855    3.4330 C   0  0  0  0  0  0  0  0  0  0  0  0
   -0.9001    3.9178    4.1022 C   0  0  0  0  0  0  0  0  0  0  0  0
    0.4424    3.8301    4.7149 N   0  0  0  0  0  0  0  0  0  0  0  0
    0.7384    4.1488    6.0399 C   0  0  0  0  0  0  0  0  0  0  0  0
    1.8679    4.1894    6.5387 O   0  0  0  0  0  0  0  0  0  0  0  0
   -0.3912    4.3567    6.7513 O   0  0  0  0  0  0  0  0  0  0  0  0
   -0.3755    4.4144    8.1779 C   0  0  2  0  0  0  0  0  0  0  0  0
   -0.4044    2.9941    8.7863 C   0  0  1  0  0  0  0  0  0  0  0  0
   -0.3232    3.1125   10.3289 C   0  0  0  0  0  0  0  0  0  0  0  0
   -1.5404    3.9156   10.8474 C   0  0  2  0  0  0  0  0  0  0  0  0
   -2.8395    3.1749   10.4597 C   0  0  0  0  0  0  0  0  0  0  0  0
   -2.9346    3.0633    8.9281 C   0  0  2  0  0  0  0  0  0  0  0  0
   -1.7167    2.2669    8.4071 C   0  0  0  0  0  0  0  0  0  0  0  0
   -2.9110    4.4647    8.2998 C   0  0  0  0  0  0  0  0  0  0  0  0
   -1.6042    5.2102    8.6771 C   0  0  1  0  0  0  0  0  0  0  0  0
   -1.5349    5.3266   10.2236 C   0  0  0  0  0  0  0  0  0  0  0  0
    1.4924    3.3494    3.8016 C   0  0  0  0  0  0  0  0  0  0  0  0
    1.1171    1.9749    3.1821 C   0  0  0  0  0  0  0  0  0  0  0  0
    1.1142    0.8899    4.2884 C   0  0  0  0  0  0  0  0  0  0  0  0
    2.2163    1.5873    2.1663 C   0  0  0  0  0  0  0  0  0  0  0  0
   -0.8808    0.1021    2.5244 H   0  0  0  0  0  0  0  0  0  0  0  0
    0.0652    0.5299    1.0934 H   0  0  0  0  0  0  0  0  0  0  0  0
   -1.6277    1.0758    1.2830 H   0  0  0  0  0  0  0  0  0  0  0  0
   -2.2302    2.7139    2.8901 H   0  0  0  0  0  0  0  0  0  0  0  0
   -1.4820    1.8389    4.2058 H   0  0  0  0  0  0  0  0  0  0  0  0
   -0.8858    4.7112    3.3570 H   0  0  0  0  0  0  0  0  0  0  0  0
   -1.6930    4.1789    4.8031 H   0  0  0  0  0  0  0  0  0  0  0  0
    0.5281    4.9395    8.5074 H   0  0  0  0  0  0  0  0  0  0  0  0
    0.4484    2.4147    8.4324 H   0  0  0  0  0  0  0  0  0  0  0  0
   -0.3103    2.1229   10.7869 H   0  0  0  0  0  0  0  0  0  0  0  0
    0.6038    3.6079   10.6200 H   0  0  0  0  0  0  0  0  0  0  0  0
   -1.4871    3.9958   11.9374 H   0  0  0  0  0  0  0  0  0  0  0  0
   -2.8478    2.1709   10.8867 H   0  0  0  0  0  0  0  0  0  0  0  0
   -3.7061    3.6923   10.8691 H   0  0  0  0  0  0  0  0  0  0  0  0
   -3.8516    2.5453    8.6583 H   0  0  0  0  0  0  0  0  0  0  0  0
   -1.7880    2.1359    7.3252 H   0  0  0  0  0  0  0  0  0  0  0  0
   -1.7253    1.2678    8.8410 H   0  0  0  0  0  0  0  0  0  0  0  0
   -2.9795    4.3481    7.2232 H   0  0  0  0  0  0  0  0  0  0  0  0
   -3.7792    5.0448    8.6140 H   0  0  0  0  0  0  0  0  0  0  0  0
   -1.6054    6.1994    8.2424 H   0  0  0  0  0  0  0  0  0  0  0  0
   -2.3751    5.9076   10.5936 H   0  0  0  0  0  0  0  0  0  0  0  0
   -0.6299    5.8655   10.5159 H   0  0  0  0  0  0  0  0  0  0  0  0
    1.6528    4.1014    3.0186 H   0  0  0  0  0  0  0  0  0  0  0  0
    2.4573    3.2682    4.3056 H   0  0  0  0  0  0  0  0  0  0  0  0
    2.0867    0.8141    4.7908 H   0  0  0  0  0  0  0  0  0  0  0  0
    0.9096   -0.1044    3.8845 H   0  0  0  0  0  0  0  0  0  0  0  0
    0.3715    1.0729    5.0714 H   0  0  0  0  0  0  0  0  0  0  0  0
    3.2206    1.6502    2.6034 H   0  0  0  0  0  0  0  0  0  0  0  0
    2.2123    2.2335    1.2797 H   0  0  0  0  0  0  0  0  0  0  0  0
    2.1122    0.5646    1.8026 H   0  0  0  0  0  0  0  0  0  0  0  0
   -0.1125    2.8329    1.8153 H   0  0  0  0  0  0  0  0  0  0  0  0
  1  2  1  0
  1 23  1  0
  1 24  1  0
  1 25  1  0
  2 20  1  0
  2  3  1  0
  2 53  1  6
  3  4  1  0
  3 26  1  0
  3 27  1  0
  4  5  1  0
  4 28  1  0
  4 29  1  0
  5  6  1  0
  5 19  1  0
  6  7  2  0
  6  8  1  0
  8  9  1  0
  9 17  1  0
  9 10  1  0
  9 30  1  6
 10 15  1  0
 10 11  1  0
 10 31  1  6
 11 12  1  0
 11 32  1  0
 11 33  1  0
 12 18  1  0
 12 13  1  0
 12 34  1  1
 13 14  1  0
 13 35  1  0
 13 36  1  0
 14 15  1  0
 14 16  1  0
 14 37  1  1
 15 38  1  0
 15 39  1  0
 16 17  1  0
 16 40  1  0
 16 41  1  0
 17 18  1  0
 17 42  1  6
 18 43  1  0
 18 44  1  0
 19 20  1  0
 19 45  1  0
 19 46  1  0
 20 21  1  0
 20 22  1  0
 21 47  1  0
 21 48  1  0
 21 49  1  0
 22 50  1  0
 22 51  1  0
 22 52  1  0
M  CHG  1   2   1
M  END
>  <i_m_ct_stereo_status>  (117) 
1

>  <s_m_source_file>  (117) 
/var/tmp/pbs.5076255.sched01/tmp1pt1fpgk/39zsbf0m6x.sdf

>  <i_m_source_file_index>  (117) 
9

>  <i_lp_mmshare_version>  (117) 
48012

>  <i_f3d_flags>  (117) 
0

>  <s_epik_input>  (117) 
W0NIM11DMShbQ0gzXSlOKFtDSDNdKVtDSDJdW0NIMl1OKFtDSDJdMSlDKD1PKU9bQ0BIXShbQ0BASF0yMylbQ0BIXTRbQ0gyXVtDQEBIXShbQ0gyXTMpW0NIMl1bQ0BASF0oW0NIMl0yKVtDSDJdNA==

>  <s_epik_cmdline>  (117) 
J2VwaWtfcHl0aG9uJywgJy1waHQnLCAnMi4wJywgJy1waCcsICc3LjAnLCAnLXRuJywgJzgnLCAnLW1hJywgJzIwMCcsICctaW1hZScsICc8aW5maWxlLm1hZT4nLCAnLW9tYWUnLCAnPG91dGZpbGUubWFlPic=

>  <r_epik_Ionization_Penalty>  (117) 
0.330478

>  <r_epik_Ionization_Penalty_Charging>  (117) 
0.330478

>  <r_epik_Ionization_Penalty_Neutral>  (117) 
1.25331e-08

>  <r_epik_State_Penalty>  (117) 
0.325545

>  <r_epik_Charging_Adjusted_Penalty>  (117) 
0.656023

>  <i_epik_Tot_Q>  (117) 
1

>  <i_epik_Tot_abs_Q>  (117) 
1

>  <s_epik_Chemistry_Notes>  (117) 
This compound has an ester and may undergo hydrolysis at high or low pH.

>  <s_lp_Force_Field>  (117) 
OPLS3e

>  <r_lp_Energy>  (117) 
25.1776

>  <b_lp_Chiralities_Consistent>  (117) 
1

>  <s_lp_Variant>  (117) 
41:0-1

>  <s_i_glide_gridfile>  (117) 
pfpi4k_grid

>  <i_i_glide_lignum>  (117) 
9

>  <i_i_glide_rotatable_bonds>  (117) 
3

>  <r_i_docking_score>  (117) 
-2.6618

>  <r_i_glide_ligand_efficiency>  (117) 
-0.120991

>  <r_i_glide_ligand_efficiency_sa>  (117) 
-0.339021

>  <r_i_glide_ligand_efficiency_ln>  (117) 
-0.65064

>  <r_i_glide_gscore>  (117) 
-2.6618

>  <r_i_glide_lipo>  (117) 
-0.135307

>  <r_i_glide_hbond>  (117) 
-0.2

>  <r_i_glide_metal>  (117) 
-0

>  <r_i_glide_rewards>  (117) 
-1.31283

>  <r_i_glide_evdw>  (117) 
-15.8414

>  <r_i_glide_ecoul>  (117) 
-4.5617

>  <r_i_glide_erotb>  (117) 
0.586727

>  <r_i_glide_esite>  (117) 
-0.124057

>  <r_i_glide_emodel>  (117) 
-25.2999

>  <r_i_glide_energy>  (117) 
-20.4031

>  <r_i_glide_einternal>  (117) 
1.02056

>  <r_i_glide_intrahb_reward>  (117) 
-0

>  <i_i_glide_confnum>  (117) 
3

>  <i_i_glide_posenum>  (117) 
4

>  <r_i_glide_eff_state_penalty>  (117) 
0

>  <ligand_id>  (117) 
41

>  <original_smiles>  (117) 
CN1CCN(C(=O)OC2C3CC4CC(C3)CC2C4)CC1(C)C

>  <smiles>  (117) 
[H]C([H])([H])C1(C([H])([H])[H])C([H])([H])N(C(=O)OC2([H])C3([H])C([H])([H])C4([H])C([H])([H])C([H])(C3([H])[H])C([H])([H])C2([H])C4([H])[H])C([H])([H])C([H])([H])[N+]1([H])C([H])([H])[H]

$$$$
41:1:0
     RDKit          3D

 52 55  0  0  1  0  0  0  0  0999 V2000
    1.5463  -11.0806    5.2796 C   0  0  0  0  0  0  0  0  0  0  0  0
    1.4274  -10.4174    3.9823 N   0  0  0  0  0  0  0  0  0  0  0  0
    0.2985   -9.4909    4.0303 C   0  0  0  0  0  0  0  0  0  0  0  0
    0.0058   -8.8861    2.6384 C   0  0  0  0  0  0  0  0  0  0  0  0
    1.2375   -8.3229    2.0765 N   0  0  0  0  0  0  0  0  0  0  0  0
    1.2850   -7.0154    1.5502 C   0  0  0  0  0  0  0  0  0  0  0  0
    0.3359   -6.2582    1.3952 O   0  0  0  0  0  0  0  0  0  0  0  0
    2.5671   -6.6981    1.2474 O   0  0  0  0  0  0  0  0  0  0  0  0
    2.9101   -5.4493    0.6407 C   0  0  2  0  0  0  0  0  0  0  0  0
    4.3367   -5.5491    0.0176 C   0  0  2  0  0  0  0  0  0  0  0  0
    5.4015   -5.7838    1.1082 C   0  0  0  0  0  0  0  0  0  0  0  0
    5.3726   -4.6167    2.1164 C   0  0  1  0  0  0  0  0  0  0  0  0
    5.6853   -3.2980    1.3825 C   0  0  0  0  0  0  0  0  0  0  0  0
    4.6297   -3.0625    0.2766 C   0  0  1  0  0  0  0  0  0  0  0  0
    4.6525   -4.2360   -0.7241 C   0  0  0  0  0  0  0  0  0  0  0  0
    3.2296   -2.9618    0.9146 C   0  0  0  0  0  0  0  0  0  0  0  0
    2.9046   -4.2805    1.6576 C   0  0  2  0  0  0  0  0  0  0  0  0
    3.9717   -4.5286    2.7572 C   0  0  0  0  0  0  0  0  0  0  0  0
    2.3433   -9.2838    2.0325 C   0  0  0  0  0  0  0  0  0  0  0  0
    2.6714   -9.8154    3.4480 C   0  0  0  0  0  0  0  0  0  0  0  0
    3.2141   -8.6643    4.3481 C   0  0  0  0  0  0  0  0  0  0  0  0
    3.7763  -10.8970    3.2874 C   0  0  0  0  0  0  0  0  0  0  0  0
    0.5793  -11.4681    5.6088 H   0  0  0  0  0  0  0  0  0  0  0  0
    1.9047  -10.3892    6.0486 H   0  0  0  0  0  0  0  0  0  0  0  0
    2.2322  -11.9344    5.2391 H   0  0  0  0  0  0  0  0  0  0  0  0
   -0.5861  -10.0634    4.3407 H   0  0  0  0  0  0  0  0  0  0  0  0
    0.4618   -8.6930    4.7698 H   0  0  0  0  0  0  0  0  0  0  0  0
   -0.3883   -9.6473    1.9694 H   0  0  0  0  0  0  0  0  0  0  0  0
   -0.7705   -8.1324    2.7323 H   0  0  0  0  0  0  0  0  0  0  0  0
    2.2064   -5.2406   -0.1715 H   0  0  0  0  0  0  0  0  0  0  0  0
    4.3638   -6.3851   -0.6996 H   0  0  0  0  0  0  0  0  0  0  0  0
    5.2295   -6.7347    1.6258 H   0  0  0  0  0  0  0  0  0  0  0  0
    6.3924   -5.8651    0.6592 H   0  0  0  0  0  0  0  0  0  0  0  0
    6.1289   -4.7868    2.8923 H   0  0  0  0  0  0  0  0  0  0  0  0
    5.6712   -2.4673    2.0850 H   0  0  0  0  0  0  0  0  0  0  0  0
    6.6894   -3.3315    0.9521 H   0  0  0  0  0  0  0  0  0  0  0  0
    4.8555   -2.1312   -0.2537 H   0  0  0  0  0  0  0  0  0  0  0  0
    5.6202   -4.2972   -1.2200 H   0  0  0  0  0  0  0  0  0  0  0  0
    3.9137   -4.0744   -1.5134 H   0  0  0  0  0  0  0  0  0  0  0  0
    3.1942   -2.1304    1.6101 H   0  0  0  0  0  0  0  0  0  0  0  0
    2.4798   -2.7679    0.1470 H   0  0  0  0  0  0  0  0  0  0  0  0
    1.9162   -4.1917    2.1197 H   0  0  0  0  0  0  0  0  0  0  0  0
    3.7501   -5.4485    3.3031 H   0  0  0  0  0  0  0  0  0  0  0  0
    3.9414   -3.7238    3.4837 H   0  0  0  0  0  0  0  0  0  0  0  0
    2.0575  -10.0862    1.3606 H   0  0  0  0  0  0  0  0  0  0  0  0
    3.2728   -8.8948    1.5925 H   0  0  0  0  0  0  0  0  0  0  0  0
    4.0509   -8.1663    3.8532 H   0  0  0  0  0  0  0  0  0  0  0  0
    3.6035   -9.0542    5.2925 H   0  0  0  0  0  0  0  0  0  0  0  0
    2.4638   -7.9121    4.5847 H   0  0  0  0  0  0  0  0  0  0  0  0
    4.6611  -10.4836    2.8075 H   0  0  0  0  0  0  0  0  0  0  0  0
    3.4535  -11.7219    2.6605 H   0  0  0  0  0  0  0  0  0  0  0  0
    4.1055  -11.3230    4.2369 H   0  0  0  0  0  0  0  0  0  0  0  0
  1  2  1  0
  1 23  1  0
  1 24  1  0
  1 25  1  0
  2 20  1  0
  2  3  1  0
  3  4  1  0
  3 26  1  0
  3 27  1  0
  4  5  1  0
  4 28  1  0
  4 29  1  0
  5  6  1  0
  5 19  1  0
  6  7  2  0
  6  8  1  0
  8  9  1  0
  9 17  1  0
  9 10  1  0
  9 30  1  6
 10 15  1  0
 10 11  1  0
 10 31  1  6
 11 12  1  0
 11 32  1  0
 11 33  1  0
 12 18  1  0
 12 13  1  0
 12 34  1  1
 13 14  1  0
 13 35  1  0
 13 36  1  0
 14 15  1  0
 14 16  1  0
 14 37  1  6
 15 38  1  0
 15 39  1  0
 16 17  1  0
 16 40  1  0
 16 41  1  0
 17 18  1  0
 17 42  1  1
 18 43  1  0
 18 44  1  0
 19 20  1  0
 19 45  1  0
 19 46  1  0
 20 21  1  0
 20 22  1  0
 21 47  1  0
 21 48  1  0
 21 49  1  0
 22 50  1  0
 22 51  1  0
 22 52  1  0
M  END
>  <i_m_ct_stereo_status>  (118) 
1

>  <s_m_source_file>  (118) 
/var/tmp/pbs.5076255.sched01/tmp1pt1fpgk/39zsbf0m6x.sdf

>  <i_m_source_file_index>  (118) 
10

>  <i_lp_mmshare_version>  (118) 
48012

>  <i_f3d_flags>  (118) 
0

>  <s_epik_input>  (118) 
W0NIM11DMShbQ0gzXSlOKFtDSDNdKVtDSDJdW0NIMl1OKFtDSDJdMSlDKD1PKU9bQ0BIXShbQ0BASF0yMylbQ0BIXTRbQ0gyXVtDQEBIXShbQ0gyXTMpW0NIMl1bQ0BASF0oW0NIMl0yKVtDSDJdNA==

>  <s_epik_cmdline>  (118) 
J2VwaWtfcHl0aG9uJywgJy1waHQnLCAnMi4wJywgJy1waCcsICc3LjAnLCAnLXRuJywgJzgnLCAnLW1hJywgJzIwMCcsICctaW1hZScsICc8aW5maWxlLm1hZT4nLCAnLW9tYWUnLCAnPG91dGZpbGUubWFlPic=

>  <r_epik_Ionization_Penalty>  (118) 
0.50353

>  <r_epik_Ionization_Penalty_Charging>  (118) 
0

>  <r_epik_Ionization_Penalty_Neutral>  (118) 
0.50353

>  <r_epik_State_Penalty>  (118) 
0.510134

>  <r_epik_Charging_Adjusted_Penalty>  (118) 
0.510134

>  <i_epik_Tot_Q>  (118) 
0

>  <i_epik_Tot_abs_Q>  (118) 
0

>  <s_epik_Chemistry_Notes>  (118) 
This compound has an ester and may undergo hydrolysis at high or low pH.

>  <s_lp_Force_Field>  (118) 
OPLS3e

>  <r_lp_Energy>  (118) 
26.1004

>  <b_lp_Chiralities_Consistent>  (118) 
1

>  <s_lp_Variant>  (118) 
41:0-2

>  <s_i_glide_gridfile>  (118) 
pfpi4k_grid

>  <i_i_glide_lignum>  (118) 
10

>  <i_i_glide_rotatable_bonds>  (118) 
3

>  <r_i_docking_score>  (118) 
-2.97

>  <r_i_glide_ligand_efficiency>  (118) 
-0.135

>  <r_i_glide_ligand_efficiency_sa>  (118) 
-0.378275

>  <r_i_glide_ligand_efficiency_ln>  (118) 
-0.725976

>  <r_i_glide_gscore>  (118) 
-2.97

>  <r_i_glide_lipo>  (118) 
-0.237213

>  <r_i_glide_hbond>  (118) 
-0.19829

>  <r_i_glide_metal>  (118) 
-0

>  <r_i_glide_rewards>  (118) 
-1.31971

>  <r_i_glide_evdw>  (118) 
-19.5007

>  <r_i_glide_ecoul>  (118) 
-4.96351

>  <r_i_glide_erotb>  (118) 
0.590117

>  <r_i_glide_esite>  (118) 
-0.0853454

>  <r_i_glide_emodel>  (118) 
-28.7247

>  <r_i_glide_energy>  (118) 
-24.4642

>  <r_i_glide_einternal>  (118) 
1.17466

>  <r_i_glide_intrahb_reward>  (118) 
-0

>  <i_i_glide_confnum>  (118) 
6

>  <i_i_glide_posenum>  (118) 
15

>  <r_i_glide_eff_state_penalty>  (118) 
0

>  <ligand_id>  (118) 
41

>  <original_smiles>  (118) 
CN1CCN(C(=O)OC2C3CC4CC(C3)CC2C4)CC1(C)C

>  <smiles>  (118) 
[H]C([H])([H])N1C([H])([H])C([H])([H])N(C(=O)OC2([H])C3([H])C([H])([H])C4([H])C([H])([H])C([H])(C3([H])[H])C([H])([H])C2([H])C4([H])[H])C([H])([H])C1(C([H])([H])[H])C([H])([H])[H]

$$$$
41:1:1
     RDKit          3D

 52 55  0  0  1  0  0  0  0  0999 V2000
    4.2624   -1.3181    1.4327 C   0  0  0  0  0  0  0  0  0  0  0  0
    4.0454   -2.7035    1.0127 N   0  0  0  0  0  0  0  0  0  0  0  0
    2.7639   -2.7924    0.3050 C   0  0  0  0  0  0  0  0  0  0  0  0
    2.5428   -4.2060   -0.2813 C   0  0  0  0  0  0  0  0  0  0  0  0
    2.7334   -5.2445    0.7435 N   0  0  0  0  0  0  0  0  0  0  0  0
    1.7631   -6.2389    0.9783 C   0  0  0  0  0  0  0  0  0  0  0  0
    0.6371   -6.2646    0.5142 O   0  0  0  0  0  0  0  0  0  0  0  0
    2.2472   -7.1945    1.8181 O   0  0  0  0  0  0  0  0  0  0  0  0
    1.4163   -8.2646    2.2839 C   0  0  2  0  0  0  0  0  0  0  0  0
    0.8008   -7.9134    3.6621 C   0  0  2  0  0  0  0  0  0  0  0  0
    1.9285   -7.7840    4.7305 C   0  0  0  0  0  0  0  0  0  0  0  0
    2.7183   -9.1002    4.8293 C   0  0  1  0  0  0  0  0  0  0  0  0
    1.7663  -10.2455    5.2431 C   0  0  0  0  0  0  0  0  0  0  0  0
    0.6436  -10.3845    4.1899 C   0  0  1  0  0  0  0  0  0  0  0  0
   -0.1473   -9.0690    4.0781 C   0  0  0  0  0  0  0  0  0  0  0  0
    1.2736  -10.7133    2.8161 C   0  0  0  0  0  0  0  0  0  0  0  0
    2.2274   -9.5746    2.3887 C   0  0  2  0  0  0  0  0  0  0  0  0
    3.3449   -9.4283    3.4507 C   0  0  0  0  0  0  0  0  0  0  0  0
    4.0173   -5.1217    1.4502 C   0  0  0  0  0  0  0  0  0  0  0  0
    4.1742   -3.7145    2.0908 C   0  0  0  0  0  0  0  0  0  0  0  0
    5.5805   -3.6490    2.7174 C   0  0  0  0  0  0  0  0  0  0  0  0
    3.1268   -3.5108    3.2099 C   0  0  0  0  0  0  0  0  0  0  0  0
    4.2489   -0.6389    0.5675 H   0  0  0  0  0  0  0  0  0  0  0  0
    5.2289   -1.1803    1.9119 H   0  0  0  0  0  0  0  0  0  0  0  0
    3.4850   -0.9832    2.1144 H   0  0  0  0  0  0  0  0  0  0  0  0
    1.9389   -2.5178    0.9683 H   0  0  0  0  0  0  0  0  0  0  0  0
    2.7497   -2.0687   -0.5200 H   0  0  0  0  0  0  0  0  0  0  0  0
    1.5532   -4.2460   -0.7416 H   0  0  0  0  0  0  0  0  0  0  0  0
    3.2515   -4.3829   -1.0916 H   0  0  0  0  0  0  0  0  0  0  0  0
    0.6015   -8.4412    1.5753 H   0  0  0  0  0  0  0  0  0  0  0  0
    0.2434   -6.9989    3.6029 H   0  0  0  0  0  0  0  0  0  0  0  0
    2.5954   -6.9635    4.4736 H   0  0  0  0  0  0  0  0  0  0  0  0
    1.4942   -7.5345    5.6978 H   0  0  0  0  0  0  0  0  0  0  0  0
    3.5060   -9.0036    5.5780 H   0  0  0  0  0  0  0  0  0  0  0  0
    2.3134  -11.1858    5.3245 H   0  0  0  0  0  0  0  0  0  0  0  0
    1.3376  -10.0508    6.2281 H   0  0  0  0  0  0  0  0  0  0  0  0
   -0.0204  -11.1992    4.4796 H   0  0  0  0  0  0  0  0  0  0  0  0
   -0.6397   -8.8407    5.0238 H   0  0  0  0  0  0  0  0  0  0  0  0
   -0.9393   -9.1733    3.3370 H   0  0  0  0  0  0  0  0  0  0  0  0
    1.8177  -11.6604    2.8773 H   0  0  0  0  0  0  0  0  0  0  0  0
    0.4836  -10.8466    2.0809 H   0  0  0  0  0  0  0  0  0  0  0  0
    2.6654   -9.8176    1.4198 H   0  0  0  0  0  0  0  0  0  0  0  0
    4.0512   -8.6499    3.1623 H   0  0  0  0  0  0  0  0  0  0  0  0
    3.9178  -10.3580    3.5115 H   0  0  0  0  0  0  0  0  0  0  0  0
    4.1405   -5.8667    2.2383 H   0  0  0  0  0  0  0  0  0  0  0  0
    4.8269   -5.3398    0.7430 H   0  0  0  0  0  0  0  0  0  0  0  0
    5.7744   -4.5066    3.3704 H   0  0  0  0  0  0  0  0  0  0  0  0
    5.7303   -2.7627    3.3308 H   0  0  0  0  0  0  0  0  0  0  0  0
    6.3739   -3.6585    1.9655 H   0  0  0  0  0  0  0  0  0  0  0  0
    3.2200   -4.2729    3.9935 H   0  0  0  0  0  0  0  0  0  0  0  0
    2.0937   -3.5600    2.8546 H   0  0  0  0  0  0  0  0  0  0  0  0
    3.2390   -2.5490    3.7110 H   0  0  0  0  0  0  0  0  0  0  0  0
  1  2  1  0
  1 23  1  0
  1 24  1  0
  1 25  1  0
  2 20  1  0
  2  3  1  0
  3  4  1  0
  3 26  1  0
  3 27  1  0
  4  5  1  0
  4 28  1  0
  4 29  1  0
  5  6  1  0
  5 19  1  0
  6  7  2  0
  6  8  1  0
  8  9  1  0
  9 17  1  0
  9 10  1  0
  9 30  1  6
 10 15  1  0
 10 11  1  0
 10 31  1  6
 11 12  1  0
 11 32  1  0
 11 33  1  0
 12 18  1  0
 12 13  1  0
 12 34  1  1
 13 14  1  0
 13 35  1  0
 13 36  1  0
 14 15  1  0
 14 16  1  0
 14 37  1  1
 15 38  1  0
 15 39  1  0
 16 17  1  0
 16 40  1  0
 16 41  1  0
 17 18  1  0
 17 42  1  6
 18 43  1  0
 18 44  1  0
 19 20  1  0
 19 45  1  0
 19 46  1  0
 20 21  1  0
 20 22  1  0
 21 47  1  0
 21 48  1  0
 21 49  1  0
 22 50  1  0
 22 51  1  0
 22 52  1  0
M  END
>  <i_m_ct_stereo_status>  (119) 
1

>  <s_m_source_file>  (119) 
/var/tmp/pbs.5076255.sched01/tmp1pt1fpgk/39zsbf0m6x.sdf

>  <i_m_source_file_index>  (119) 
10

>  <i_lp_mmshare_version>  (119) 
48012

>  <i_f3d_flags>  (119) 
0

>  <s_epik_input>  (119) 
W0NIM11DMShbQ0gzXSlOKFtDSDNdKVtDSDJdW0NIMl1OKFtDSDJdMSlDKD1PKU9bQ0BIXShbQ0BASF0yMylbQ0BIXTRbQ0gyXVtDQEBIXShbQ0gyXTMpW0NIMl1bQ0BASF0oW0NIMl0yKVtDSDJdNA==

>  <s_epik_cmdline>  (119) 
J2VwaWtfcHl0aG9uJywgJy1waHQnLCAnMi4wJywgJy1waCcsICc3LjAnLCAnLXRuJywgJzgnLCAnLW1hJywgJzIwMCcsICctaW1hZScsICc8aW5maWxlLm1hZT4nLCAnLW9tYWUnLCAnPG91dGZpbGUubWFlPic=

>  <r_epik_Ionization_Penalty>  (119) 
0.50353

>  <r_epik_Ionization_Penalty_Charging>  (119) 
0

>  <r_epik_Ionization_Penalty_Neutral>  (119) 
0.50353

>  <r_epik_State_Penalty>  (119) 
0.510134

>  <r_epik_Charging_Adjusted_Penalty>  (119) 
0.510134

>  <i_epik_Tot_Q>  (119) 
0

>  <i_epik_Tot_abs_Q>  (119) 
0

>  <s_epik_Chemistry_Notes>  (119) 
This compound has an ester and may undergo hydrolysis at high or low pH.

>  <s_lp_Force_Field>  (119) 
OPLS3e

>  <r_lp_Energy>  (119) 
26.1004

>  <b_lp_Chiralities_Consistent>  (119) 
1

>  <s_lp_Variant>  (119) 
41:0-2

>  <s_i_glide_gridfile>  (119) 
pfpi4k_grid

>  <i_i_glide_lignum>  (119) 
10

>  <i_i_glide_rotatable_bonds>  (119) 
3

>  <r_i_docking_score>  (119) 
-2.96849

>  <r_i_glide_ligand_efficiency>  (119) 
-0.134932

>  <r_i_glide_ligand_efficiency_sa>  (119) 
-0.378083

>  <r_i_glide_ligand_efficiency_ln>  (119) 
-0.725608

>  <r_i_glide_gscore>  (119) 
-2.96849

>  <r_i_glide_lipo>  (119) 
-0.243101

>  <r_i_glide_hbond>  (119) 
-0.218753

>  <r_i_glide_metal>  (119) 
-0

>  <r_i_glide_rewards>  (119) 
-1.31971

>  <r_i_glide_evdw>  (119) 
-19.1315

>  <r_i_glide_ecoul>  (119) 
-4.90409

>  <r_i_glide_erotb>  (119) 
0.590117

>  <r_i_glide_esite>  (119) 
-0.0848611

>  <r_i_glide_emodel>  (119) 
-28.7471

>  <r_i_glide_energy>  (119) 
-24.0356

>  <r_i_glide_einternal>  (119) 
0.445533

>  <r_i_glide_intrahb_reward>  (119) 
-0

>  <i_i_glide_confnum>  (119) 
3

>  <i_i_glide_posenum>  (119) 
37

>  <r_i_glide_eff_state_penalty>  (119) 
0

>  <ligand_id>  (119) 
41

>  <original_smiles>  (119) 
CN1CCN(C(=O)OC2C3CC4CC(C3)CC2C4)CC1(C)C

>  <smiles>  (119) 
[H]C([H])([H])N1C([H])([H])C([H])([H])N(C(=O)OC2([H])C3([H])C([H])([H])C4([H])C([H])([H])C([H])(C3([H])[H])C([H])([H])C2([H])C4([H])[H])C([H])([H])C1(C([H])([H])[H])C([H])([H])[H]

$$$$
41:1:2
     RDKit          3D

 52 55  0  0  1  0  0  0  0  0999 V2000
    0.6174   -9.6748    5.8184 C   0  0  0  0  0  0  0  0  0  0  0  0
    1.0714   -9.3376    4.4729 N   0  0  0  0  0  0  0  0  0  0  0  0
   -0.0753   -8.9511    3.6403 C   0  0  0  0  0  0  0  0  0  0  0  0
    0.3574   -8.6919    2.1787 C   0  0  0  0  0  0  0  0  0  0  0  0
    1.4868   -7.7676    2.1130 N   0  0  0  0  0  0  0  0  0  0  0  0
    1.5043   -6.6498    1.2866 C   0  0  0  0  0  0  0  0  0  0  0  0
    0.5698   -6.2536    0.5763 O   0  0  0  0  0  0  0  0  0  0  0  0
    2.6976   -6.0229    1.3470 O   0  0  0  0  0  0  0  0  0  0  0  0
    3.0636   -4.9680    0.4511 C   0  0  2  0  0  0  0  0  0  0  0  0
    4.5544   -5.1410    0.0644 C   0  0  2  0  0  0  0  0  0  0  0  0
    5.4658   -4.9336    1.3106 C   0  0  0  0  0  0  0  0  0  0  0  0
    5.2431   -3.5292    1.8969 C   0  0  1  0  0  0  0  0  0  0  0  0
    5.5988   -2.4629    0.8388 C   0  0  0  0  0  0  0  0  0  0  0  0
    4.6997   -2.6601   -0.4065 C   0  0  1  0  0  0  0  0  0  0  0  0
    4.9096   -4.0690   -0.9929 C   0  0  0  0  0  0  0  0  0  0  0  0
    3.2185   -2.4970    0.0079 C   0  0  0  0  0  0  0  0  0  0  0  0
    2.8526   -3.5611    1.0684 C   0  0  2  0  0  0  0  0  0  0  0  0
    3.7619   -3.3748    2.3080 C   0  0  0  0  0  0  0  0  0  0  0  0
    2.6168   -8.2055    2.9591 C   0  0  0  0  0  0  0  0  0  0  0  0
    2.1769   -8.3632    4.4333 C   0  0  0  0  0  0  0  0  0  0  0  0
    1.7614   -6.9995    5.0150 C   0  0  0  0  0  0  0  0  0  0  0  0
    3.3943   -8.8893    5.2219 C   0  0  0  0  0  0  0  0  0  0  0  0
   -0.1931  -10.4026    5.7880 H   0  0  0  0  0  0  0  0  0  0  0  0
    0.2612   -8.7963    6.3535 H   0  0  0  0  0  0  0  0  0  0  0  0
    1.3959  -10.1591    6.4014 H   0  0  0  0  0  0  0  0  0  0  0  0
   -0.8292   -9.7554    3.6463 H   0  0  0  0  0  0  0  0  0  0  0  0
   -0.5459   -8.0517    4.0542 H   0  0  0  0  0  0  0  0  0  0  0  0
    0.6503   -9.6349    1.7131 H   0  0  0  0  0  0  0  0  0  0  0  0
   -0.4999   -8.3239    1.6131 H   0  0  0  0  0  0  0  0  0  0  0  0
    2.4709   -5.0445   -0.4681 H   0  0  0  0  0  0  0  0  0  0  0  0
    4.7143   -6.1225   -0.3523 H   0  0  0  0  0  0  0  0  0  0  0  0
    5.2575   -5.6959    2.0618 H   0  0  0  0  0  0  0  0  0  0  0  0
    6.5114   -5.0641    1.0295 H   0  0  0  0  0  0  0  0  0  0  0  0
    5.8766   -3.3920    2.7743 H   0  0  0  0  0  0  0  0  0  0  0  0
    5.4524   -1.4634    1.2480 H   0  0  0  0  0  0  0  0  0  0  0  0
    6.6542   -2.5367    0.5650 H   0  0  0  0  0  0  0  0  0  0  0  0
    4.9537   -1.9099   -1.1584 H   0  0  0  0  0  0  0  0  0  0  0  0
    5.9385   -4.1956   -1.3304 H   0  0  0  0  0  0  0  0  0  0  0  0
    4.2790   -4.2081   -1.8716 H   0  0  0  0  0  0  0  0  0  0  0  0
    3.0466   -1.4949    0.3997 H   0  0  0  0  0  0  0  0  0  0  0  0
    2.5857   -2.6024   -0.8713 H   0  0  0  0  0  0  0  0  0  0  0  0
    1.8278   -3.4326    1.3652 H   0  0  0  0  0  0  0  0  0  0  0  0
    3.5086   -4.0988    3.0819 H   0  0  0  0  0  0  0  0  0  0  0  0
    3.5968   -2.3890    2.7417 H   0  0  0  0  0  0  0  0  0  0  0  0
    3.0074   -9.1424    2.5499 H   0  0  0  0  0  0  0  0  0  0  0  0
    3.4700   -7.5246    2.9319 H   0  0  0  0  0  0  0  0  0  0  0  0
    2.5347   -6.2399    4.8485 H   0  0  0  0  0  0  0  0  0  0  0  0
    1.6189   -7.0407    6.0945 H   0  0  0  0  0  0  0  0  0  0  0  0
    0.8253   -6.6184    4.5845 H   0  0  0  0  0  0  0  0  0  0  0  0
    4.2444   -8.2064    5.1392 H   0  0  0  0  0  0  0  0  0  0  0  0
    3.7408   -9.8554    4.8527 H   0  0  0  0  0  0  0  0  0  0  0  0
    3.1985   -9.0026    6.2884 H   0  0  0  0  0  0  0  0  0  0  0  0
  1  2  1  0
  1 23  1  0
  1 24  1  0
  1 25  1  0
  2 20  1  0
  2  3  1  0
  3  4  1  0
  3 26  1  0
  3 27  1  0
  4  5  1  0
  4 28  1  0
  4 29  1  0
  5  6  1  0
  5 19  1  0
  6  7  2  0
  6  8  1  0
  8  9  1  0
  9 17  1  0
  9 10  1  0
  9 30  1  6
 10 15  1  0
 10 11  1  0
 10 31  1  6
 11 12  1  0
 11 32  1  0
 11 33  1  0
 12 18  1  0
 12 13  1  0
 12 34  1  1
 13 14  1  0
 13 35  1  0
 13 36  1  0
 14 15  1  0
 14 16  1  0
 14 37  1  6
 15 38  1  0
 15 39  1  0
 16 17  1  0
 16 40  1  0
 16 41  1  0
 17 18  1  0
 17 42  1  1
 18 43  1  0
 18 44  1  0
 19 20  1  0
 19 45  1  0
 19 46  1  0
 20 21  1  0
 20 22  1  0
 21 47  1  0
 21 48  1  0
 21 49  1  0
 22 50  1  0
 22 51  1  0
 22 52  1  0
M  END
>  <i_m_ct_stereo_status>  (120) 
1

>  <s_m_source_file>  (120) 
/var/tmp/pbs.5076255.sched01/tmp1pt1fpgk/39zsbf0m6x.sdf

>  <i_m_source_file_index>  (120) 
10

>  <i_lp_mmshare_version>  (120) 
48012

>  <i_f3d_flags>  (120) 
0

>  <s_epik_input>  (120) 
W0NIM11DMShbQ0gzXSlOKFtDSDNdKVtDSDJdW0NIMl1OKFtDSDJdMSlDKD1PKU9bQ0BIXShbQ0BASF0yMylbQ0BIXTRbQ0gyXVtDQEBIXShbQ0gyXTMpW0NIMl1bQ0BASF0oW0NIMl0yKVtDSDJdNA==

>  <s_epik_cmdline>  (120) 
J2VwaWtfcHl0aG9uJywgJy1waHQnLCAnMi4wJywgJy1waCcsICc3LjAnLCAnLXRuJywgJzgnLCAnLW1hJywgJzIwMCcsICctaW1hZScsICc8aW5maWxlLm1hZT4nLCAnLW9tYWUnLCAnPG91dGZpbGUubWFlPic=

>  <r_epik_Ionization_Penalty>  (120) 
0.50353

>  <r_epik_Ionization_Penalty_Charging>  (120) 
0

>  <r_epik_Ionization_Penalty_Neutral>  (120) 
0.50353

>  <r_epik_State_Penalty>  (120) 
0.510134

>  <r_epik_Charging_Adjusted_Penalty>  (120) 
0.510134

>  <i_epik_Tot_Q>  (120) 
0

>  <i_epik_Tot_abs_Q>  (120) 
0

>  <s_epik_Chemistry_Notes>  (120) 
This compound has an ester and may undergo hydrolysis at high or low pH.

>  <s_lp_Force_Field>  (120) 
OPLS3e

>  <r_lp_Energy>  (120) 
26.1004

>  <b_lp_Chiralities_Consistent>  (120) 
1

>  <s_lp_Variant>  (120) 
41:0-2

>  <s_i_glide_gridfile>  (120) 
pfpi4k_grid

>  <i_i_glide_lignum>  (120) 
10

>  <i_i_glide_rotatable_bonds>  (120) 
3

>  <r_i_docking_score>  (120) 
-2.86238

>  <r_i_glide_ligand_efficiency>  (120) 
-0.130108

>  <r_i_glide_ligand_efficiency_sa>  (120) 
-0.364568

>  <r_i_glide_ligand_efficiency_ln>  (120) 
-0.69967

>  <r_i_glide_gscore>  (120) 
-2.86238

>  <r_i_glide_lipo>  (120) 
-0.160198

>  <r_i_glide_hbond>  (120) 
-0.189905

>  <r_i_glide_metal>  (120) 
-0

>  <r_i_glide_rewards>  (120) 
-1.31971

>  <r_i_glide_evdw>  (120) 
-18.2473

>  <r_i_glide_ecoul>  (120) 
-5.25802

>  <r_i_glide_erotb>  (120) 
0.590117

>  <r_i_glide_esite>  (120) 
-0.0816163

>  <r_i_glide_emodel>  (120) 
-27.5416

>  <r_i_glide_energy>  (120) 
-23.5053

>  <r_i_glide_einternal>  (120) 
1.4085

>  <r_i_glide_intrahb_reward>  (120) 
-0

>  <i_i_glide_confnum>  (120) 
6

>  <i_i_glide_posenum>  (120) 
11

>  <r_i_glide_eff_state_penalty>  (120) 
0

>  <ligand_id>  (120) 
41

>  <original_smiles>  (120) 
CN1CCN(C(=O)OC2C3CC4CC(C3)CC2C4)CC1(C)C

>  <smiles>  (120) 
[H]C([H])([H])N1C([H])([H])C([H])([H])N(C(=O)OC2([H])C3([H])C([H])([H])C4([H])C([H])([H])C([H])(C3([H])[H])C([H])([H])C2([H])C4([H])[H])C([H])([H])C1(C([H])([H])[H])C([H])([H])[H]

$$$$
42:0:0
     RDKit          3D

 47 50  0  0  1  0  0  0  0  0999 V2000
    5.1998   -2.7176    2.4195 C   0  0  0  0  0  0  0  0  0  0  0  0
    4.3679   -3.7695    1.6484 C   0  0  1  0  0  0  0  0  0  0  0  0
    3.2842   -3.0306    0.8601 C   0  0  0  0  0  0  0  0  0  0  0  0
    3.4214   -2.5906   -0.4121 C   0  0  0  0  0  0  0  0  0  0  0  0
    4.6912   -2.7710   -1.1522 C   0  0  0  0  0  0  0  0  0  0  0  0
    4.8753   -2.3180   -2.2821 O   0  0  0  0  0  0  0  0  0  0  0  0
    5.8386   -3.5126   -0.4592 C   0  0  0  0  0  0  0  0  0  0  0  0
    5.2591   -4.4451    0.5930 C   0  0  0  0  0  0  0  0  0  0  0  0
    5.3874   -5.7799    0.4845 C   0  0  0  0  0  0  0  0  0  0  0  0
    4.6436   -6.7819    1.3372 C   0  0  0  0  0  0  0  0  0  0  0  0
    3.3919   -6.1493    1.9798 C   0  0  2  0  0  0  0  0  0  0  0  0
    3.7956   -4.8177    2.6659 C   0  0  2  0  0  0  0  0  0  0  0  0
    2.7084   -4.2937    3.6437 C   0  0  0  0  0  0  0  0  0  0  0  0
    1.3356   -4.9364    3.4073 C   0  0  0  0  0  0  0  0  0  0  0  0
    1.3632   -6.4810    3.5585 C   0  0  1  0  0  0  0  0  0  0  0  0
    1.2802   -6.8192    5.0683 C   0  0  0  0  0  0  0  0  0  0  0  0
    0.1954   -7.2059    2.8373 C   0  0  1  0  0  0  0  0  0  0  0  0
   -0.1241   -6.6582    1.5641 O   0  0  0  0  0  0  0  0  0  0  0  0
    0.7263   -8.6208    2.6128 C   0  0  0  0  0  0  0  0  0  0  0  0
    2.2116   -8.4374    2.2991 C   0  0  0  0  0  0  0  0  0  0  0  0
    2.6549   -7.1086    2.9552 C   0  0  1  0  0  0  0  0  0  0  0  0
    5.5715   -1.9227    1.7705 H   0  0  0  0  0  0  0  0  0  0  0  0
    6.0695   -3.1759    2.8884 H   0  0  0  0  0  0  0  0  0  0  0  0
    4.6201   -2.2249    3.2000 H   0  0  0  0  0  0  0  0  0  0  0  0
    2.3444   -2.8590    1.3651 H   0  0  0  0  0  0  0  0  0  0  0  0
    2.6186   -2.0788   -0.9171 H   0  0  0  0  0  0  0  0  0  0  0  0
    6.3914   -4.0761   -1.2071 H   0  0  0  0  0  0  0  0  0  0  0  0
    6.5268   -2.7952   -0.0194 H   0  0  0  0  0  0  0  0  0  0  0  0
    5.9955   -6.1948   -0.3045 H   0  0  0  0  0  0  0  0  0  0  0  0
    4.3498   -7.6006    0.6813 H   0  0  0  0  0  0  0  0  0  0  0  0
    5.3257   -7.1961    2.0816 H   0  0  0  0  0  0  0  0  0  0  0  0
    2.6987   -5.9108    1.1699 H   0  0  0  0  0  0  0  0  0  0  0  0
    4.6359   -5.0767    3.3139 H   0  0  0  0  0  0  0  0  0  0  0  0
    3.0219   -4.4863    4.6694 H   0  0  0  0  0  0  0  0  0  0  0  0
    2.6078   -3.2112    3.5857 H   0  0  0  0  0  0  0  0  0  0  0  0
    0.5991   -4.4992    4.0800 H   0  0  0  0  0  0  0  0  0  0  0  0
    1.0277   -4.6438    2.4106 H   0  0  0  0  0  0  0  0  0  0  0  0
    1.3356   -7.8926    5.2487 H   0  0  0  0  0  0  0  0  0  0  0  0
    0.3468   -6.4707    5.5093 H   0  0  0  0  0  0  0  0  0  0  0  0
    2.0948   -6.3683    5.6332 H   0  0  0  0  0  0  0  0  0  0  0  0
   -0.7217   -7.2217    3.4274 H   0  0  0  0  0  0  0  0  0  0  0  0
   -0.3804   -7.3793    1.0081 H   0  0  0  0  0  0  0  0  0  0  0  0
    0.6147   -9.2083    3.5246 H   0  0  0  0  0  0  0  0  0  0  0  0
    0.1954   -9.1630    1.8320 H   0  0  0  0  0  0  0  0  0  0  0  0
    2.7982   -9.2840    2.6599 H   0  0  0  0  0  0  0  0  0  0  0  0
    2.3307   -8.4005    1.2183 H   0  0  0  0  0  0  0  0  0  0  0  0
    3.3444   -7.3453    3.7680 H   0  0  0  0  0  0  0  0  0  0  0  0
  2  1  1  1
  1 22  1  0
  1 23  1  0
  1 24  1  0
  2  8  1  0
  2 12  1  0
  2  3  1  0
  3  4  2  0
  3 25  1  0
  4  5  1  0
  4 26  1  0
  5  6  2  0
  5  7  1  0
  7  8  1  0
  7 27  1  0
  7 28  1  0
  8  9  2  0
  9 10  1  0
  9 29  1  0
 10 11  1  0
 10 30  1  0
 10 31  1  0
 11 21  1  0
 11 12  1  0
 11 32  1  6
 12 13  1  0
 12 33  1  1
 13 14  1  0
 13 34  1  0
 13 35  1  0
 14 15  1  0
 14 36  1  0
 14 37  1  0
 15 21  1  0
 15 16  1  1
 15 17  1  0
 16 38  1  0
 16 39  1  0
 16 40  1  0
 17 18  1  0
 17 19  1  0
 17 41  1  1
 18 42  1  0
 19 20  1  0
 19 43  1  0
 19 44  1  0
 20 21  1  0
 20 45  1  0
 20 46  1  0
 21 47  1  1
M  END
>  <i_m_ct_stereo_status>  (121) 
1

>  <s_m_source_file>  (121) 
/var/tmp/pbs.5076255.sched01/tmp1pt1fpgk/39zsbf0m6x.sdf

>  <i_m_source_file_index>  (121) 
11

>  <i_lp_mmshare_version>  (121) 
48012

>  <i_f3d_flags>  (121) 
0

>  <s_epik_input>  (121) 
W0NIXTE9W0NIXUMoPU8pW0NIMl1DKFtDQEBdMTJbQ0gzXSk9W0NIXVtDSDJdW0NAQEhdM1tDQEBIXTJbQ0gyXVtDSDJdW0NAXTQoW0NIM10pW0NASF0zW0NIMl1bQ0gyXVtDQEBIXTRbT0hd

>  <s_epik_cmdline>  (121) 
J2VwaWtfcHl0aG9uJywgJy1waHQnLCAnMi4wJywgJy1waCcsICc3LjAnLCAnLXRuJywgJzgnLCAnLW1hJywgJzIwMCcsICctaW1hZScsICc8aW5maWxlLm1hZT4nLCAnLW9tYWUnLCAnPG91dGZpbGUubWFlPic=

>  <r_lp_tautomer_probability>  (121) 
1

>  <r_epik_Ionization_Penalty>  (121) 
2.12841e-06

>  <r_epik_Ionization_Penalty_Charging>  (121) 
0

>  <r_epik_Ionization_Penalty_Neutral>  (121) 
2.12841e-06

>  <r_epik_State_Penalty>  (121) 
-0

>  <r_epik_Charging_Adjusted_Penalty>  (121) 
0

>  <i_epik_Tot_Q>  (121) 
0

>  <i_epik_Tot_abs_Q>  (121) 
0

>  <s_lp_Force_Field>  (121) 
OPLS3e

>  <r_lp_Energy>  (121) 
47.9073

>  <b_lp_Chiralities_Consistent>  (121) 
1

>  <s_lp_Variant>  (121) 
42:0-1

>  <s_i_glide_gridfile>  (121) 
pfpi4k_grid

>  <i_i_glide_lignum>  (121) 
11

>  <i_i_glide_rotatable_bonds>  (121) 
1

>  <r_i_docking_score>  (121) 
-3.92301

>  <r_i_glide_ligand_efficiency>  (121) 
-0.18681

>  <r_i_glide_ligand_efficiency_sa>  (121) 
-0.515395

>  <r_i_glide_ligand_efficiency_ln>  (121) 
-0.969957

>  <r_i_glide_gscore>  (121) 
-3.92301

>  <r_i_glide_lipo>  (121) 
-0.410808

>  <r_i_glide_hbond>  (121) 
-0.216727

>  <r_i_glide_metal>  (121) 
-0

>  <r_i_glide_rewards>  (121) 
-1.45631

>  <r_i_glide_evdw>  (121) 
-21.1552

>  <r_i_glide_ecoul>  (121) 
-5.16348

>  <r_i_glide_erotb>  (121) 
0

>  <r_i_glide_esite>  (121) 
-0.00689244

>  <r_i_glide_emodel>  (121) 
-32.7794

>  <r_i_glide_energy>  (121) 
-26.3187

>  <r_i_glide_einternal>  (121) 
0.877347

>  <r_i_glide_intrahb_reward>  (121) 
-0

>  <i_i_glide_confnum>  (121) 
2

>  <i_i_glide_posenum>  (121) 
20

>  <r_i_glide_eff_state_penalty>  (121) 
0

>  <ligand_id>  (121) 
42

>  <original_smiles>  (121) 
CC12C=CC(=O)CC1=CCC1C2CCC2(C)C(O)CCC12

>  <smiles>  (121) 
[H]OC1([H])C([H])([H])C([H])([H])C2([H])C3([H])C([H])([H])C([H])=C4C([H])([H])C(=O)C([H])=C([H])C4(C([H])([H])[H])C3([H])C([H])([H])C([H])([H])C12C([H])([H])[H]

$$$$
42:0:1
     RDKit          3D

 47 50  0  0  1  0  0  0  0  0999 V2000
    4.7216   -3.4165    3.9225 C   0  0  0  0  0  0  0  0  0  0  0  0
    3.7678   -2.9437    2.7990 C   0  0  1  0  0  0  0  0  0  0  0  0
    2.6701   -3.9868    2.6510 C   0  0  0  0  0  0  0  0  0  0  0  0
    1.4811   -3.9454    3.2978 C   0  0  0  0  0  0  0  0  0  0  0  0
    1.1701   -2.8502    4.2461 C   0  0  0  0  0  0  0  0  0  0  0  0
    0.1270   -2.8056    4.9011 O   0  0  0  0  0  0  0  0  0  0  0  0
    2.2128   -1.7499    4.4784 C   0  0  0  0  0  0  0  0  0  0  0  0
    3.0715   -1.6457    3.2322 C   0  0  0  0  0  0  0  0  0  0  0  0
    3.0781   -0.5324    2.4810 C   0  0  0  0  0  0  0  0  0  0  0  0
    3.7085   -0.4329    1.1091 C   0  0  0  0  0  0  0  0  0  0  0  0
    3.8972   -1.8168    0.4606 C   0  0  2  0  0  0  0  0  0  0  0  0
    4.5982   -2.7480    1.4797 C   0  0  2  0  0  0  0  0  0  0  0  0
    5.1735   -4.0316    0.8189 C   0  0  0  0  0  0  0  0  0  0  0  0
    4.5279   -4.3201   -0.5463 C   0  0  0  0  0  0  0  0  0  0  0  0
    4.7702   -3.1673   -1.5553 C   0  0  1  0  0  0  0  0  0  0  0  0
    6.1816   -3.2898   -2.1418 C   0  0  0  0  0  0  0  0  0  0  0  0
    3.7693   -3.1435   -2.7411 C   0  0  1  0  0  0  0  0  0  0  0  0
    2.4375   -3.4087   -2.3582 O   0  0  0  0  0  0  0  0  0  0  0  0
    3.7921   -1.7116   -3.2516 C   0  0  0  0  0  0  0  0  0  0  0  0
    3.9464   -0.9064   -1.9699 C   0  0  0  0  0  0  0  0  0  0  0  0
    4.6458   -1.7734   -0.9020 C   0  0  1  0  0  0  0  0  0  0  0  0
    4.1841   -3.6447    4.8429 H   0  0  0  0  0  0  0  0  0  0  0  0
    5.4676   -2.6617    4.1646 H   0  0  0  0  0  0  0  0  0  0  0  0
    5.2504   -4.3322    3.6547 H   0  0  0  0  0  0  0  0  0  0  0  0
    2.8398   -4.7904    1.9581 H   0  0  0  0  0  0  0  0  0  0  0  0
    0.7219   -4.6999    3.1518 H   0  0  0  0  0  0  0  0  0  0  0  0
    1.7042   -0.8029    4.6676 H   0  0  0  0  0  0  0  0  0  0  0  0
    2.8178   -1.9798    5.3535 H   0  0  0  0  0  0  0  0  0  0  0  0
    2.5421    0.3558    2.8081 H   0  0  0  0  0  0  0  0  0  0  0  0
    3.0150    0.1490    0.5014 H   0  0  0  0  0  0  0  0  0  0  0  0
    4.6398    0.1350    1.1728 H   0  0  0  0  0  0  0  0  0  0  0  0
    2.8982   -2.2193    0.2805 H   0  0  0  0  0  0  0  0  0  0  0  0
    5.4893   -2.1956    1.7876 H   0  0  0  0  0  0  0  0  0  0  0  0
    6.2527   -3.9391    0.7083 H   0  0  0  0  0  0  0  0  0  0  0  0
    5.0295   -4.9005    1.4600 H   0  0  0  0  0  0  0  0  0  0  0  0
    4.9333   -5.2519   -0.9466 H   0  0  0  0  0  0  0  0  0  0  0  0
    3.4678   -4.5113   -0.3889 H   0  0  0  0  0  0  0  0  0  0  0  0
    6.4173   -2.4879   -2.8195 H   0  0  0  0  0  0  0  0  0  0  0  0
    6.2504   -4.1943   -2.7382 H   0  0  0  0  0  0  0  0  0  0  0  0
    6.9597   -3.3116   -1.3872 H   0  0  0  0  0  0  0  0  0  0  0  0
    4.0234   -3.8511   -3.5333 H   0  0  0  0  0  0  0  0  0  0  0  0
    2.3513   -4.3703   -2.3221 H   0  0  0  0  0  0  0  0  0  0  0  0
    4.6420   -1.5473   -3.9114 H   0  0  0  0  0  0  0  0  0  0  0  0
    2.8865   -1.4342   -3.7952 H   0  0  0  0  0  0  0  0  0  0  0  0
    4.4705    0.0346   -2.1493 H   0  0  0  0  0  0  0  0  0  0  0  0
    2.9394   -0.6730   -1.6407 H   0  0  0  0  0  0  0  0  0  0  0  0
    5.6375   -1.3610   -0.7165 H   0  0  0  0  0  0  0  0  0  0  0  0
  2  1  1  1
  1 22  1  0
  1 23  1  0
  1 24  1  0
  2  8  1  0
  2 12  1  0
  2  3  1  0
  3  4  2  0
  3 25  1  0
  4  5  1  0
  4 26  1  0
  5  6  2  0
  5  7  1  0
  7  8  1  0
  7 27  1  0
  7 28  1  0
  8  9  2  0
  9 10  1  0
  9 29  1  0
 10 11  1  0
 10 30  1  0
 10 31  1  0
 11 21  1  0
 11 12  1  0
 11 32  1  6
 12 13  1  0
 12 33  1  1
 13 14  1  0
 13 34  1  0
 13 35  1  0
 14 15  1  0
 14 36  1  0
 14 37  1  0
 15 21  1  0
 15 16  1  6
 15 17  1  0
 16 38  1  0
 16 39  1  0
 16 40  1  0
 17 18  1  0
 17 19  1  0
 17 41  1  6
 18 42  1  0
 19 20  1  0
 19 43  1  0
 19 44  1  0
 20 21  1  0
 20 45  1  0
 20 46  1  0
 21 47  1  1
M  END
>  <i_m_ct_stereo_status>  (122) 
1

>  <s_m_source_file>  (122) 
/var/tmp/pbs.5076255.sched01/tmp1pt1fpgk/39zsbf0m6x.sdf

>  <i_m_source_file_index>  (122) 
11

>  <i_lp_mmshare_version>  (122) 
48012

>  <i_f3d_flags>  (122) 
0

>  <s_epik_input>  (122) 
W0NIXTE9W0NIXUMoPU8pW0NIMl1DKFtDQEBdMTJbQ0gzXSk9W0NIXVtDSDJdW0NAQEhdM1tDQEBIXTJbQ0gyXVtDSDJdW0NAXTQoW0NIM10pW0NASF0zW0NIMl1bQ0gyXVtDQEBIXTRbT0hd

>  <s_epik_cmdline>  (122) 
J2VwaWtfcHl0aG9uJywgJy1waHQnLCAnMi4wJywgJy1waCcsICc3LjAnLCAnLXRuJywgJzgnLCAnLW1hJywgJzIwMCcsICctaW1hZScsICc8aW5maWxlLm1hZT4nLCAnLW9tYWUnLCAnPG91dGZpbGUubWFlPic=

>  <r_lp_tautomer_probability>  (122) 
1

>  <r_epik_Ionization_Penalty>  (122) 
2.12841e-06

>  <r_epik_Ionization_Penalty_Charging>  (122) 
0

>  <r_epik_Ionization_Penalty_Neutral>  (122) 
2.12841e-06

>  <r_epik_State_Penalty>  (122) 
-0

>  <r_epik_Charging_Adjusted_Penalty>  (122) 
0

>  <i_epik_Tot_Q>  (122) 
0

>  <i_epik_Tot_abs_Q>  (122) 
0

>  <s_lp_Force_Field>  (122) 
OPLS3e

>  <r_lp_Energy>  (122) 
47.9073

>  <b_lp_Chiralities_Consistent>  (122) 
1

>  <s_lp_Variant>  (122) 
42:0-1

>  <s_i_glide_gridfile>  (122) 
pfpi4k_grid

>  <i_i_glide_lignum>  (122) 
11

>  <i_i_glide_rotatable_bonds>  (122) 
1

>  <r_i_docking_score>  (122) 
-3.79553

>  <r_i_glide_ligand_efficiency>  (122) 
-0.180739

>  <r_i_glide_ligand_efficiency_sa>  (122) 
-0.498646

>  <r_i_glide_ligand_efficiency_ln>  (122) 
-0.938437

>  <r_i_glide_gscore>  (122) 
-3.79553

>  <r_i_glide_lipo>  (122) 
-0.441163

>  <r_i_glide_hbond>  (122) 
-0.32

>  <r_i_glide_metal>  (122) 
-0

>  <r_i_glide_rewards>  (122) 
-1.48164

>  <r_i_glide_evdw>  (122) 
-23.1416

>  <r_i_glide_ecoul>  (122) 
-2.63766

>  <r_i_glide_erotb>  (122) 
0

>  <r_i_glide_esite>  (122) 
0

>  <r_i_glide_emodel>  (122) 
-32.0325

>  <r_i_glide_energy>  (122) 
-25.7792

>  <r_i_glide_einternal>  (122) 
0.625873

>  <r_i_glide_intrahb_reward>  (122) 
-0

>  <i_i_glide_confnum>  (122) 
2

>  <i_i_glide_posenum>  (122) 
4

>  <r_i_glide_eff_state_penalty>  (122) 
0

>  <ligand_id>  (122) 
42

>  <original_smiles>  (122) 
CC12C=CC(=O)CC1=CCC1C2CCC2(C)C(O)CCC12

>  <smiles>  (122) 
[H]OC1([H])C([H])([H])C([H])([H])C2([H])C3([H])C([H])([H])C([H])=C4C([H])([H])C(=O)C([H])=C([H])C4(C([H])([H])[H])C3([H])C([H])([H])C([H])([H])C12C([H])([H])[H]

$$$$
42:0:2
     RDKit          3D

 47 50  0  0  1  0  0  0  0  0999 V2000
    4.5559   -2.9185    3.8039 C   0  0  0  0  0  0  0  0  0  0  0  0
    3.7968   -2.2054    2.6609 C   0  0  1  0  0  0  0  0  0  0  0  0
    2.3644   -2.7310    2.6079 C   0  0  0  0  0  0  0  0  0  0  0  0
    1.3177   -2.1717    3.2617 C   0  0  0  0  0  0  0  0  0  0  0  0
    1.4910   -0.9918    4.1393 C   0  0  0  0  0  0  0  0  0  0  0  0
    0.5816   -0.4956    4.7892 O   0  0  0  0  0  0  0  0  0  0  0  0
    2.8906   -0.3839    4.2756 C   0  0  0  0  0  0  0  0  0  0  0  0
    3.6511   -0.7367    3.0257 C   0  0  0  0  0  0  0  0  0  0  0  0
    3.9896    0.2188    2.1577 C   0  0  0  0  0  0  0  0  0  0  0  0
    4.6018    0.0148    0.8201 C   0  0  0  0  0  0  0  0  0  0  0  0
    4.2341   -1.3435    0.2319 C   0  0  2  0  0  0  0  0  0  0  0  0
    4.5702   -2.3998    1.3099 C   0  0  2  0  0  0  0  0  0  0  0  0
    4.6028   -3.8270    0.7326 C   0  0  0  0  0  0  0  0  0  0  0  0
    3.8339   -3.9078   -0.5933 C   0  0  0  0  0  0  0  0  0  0  0  0
    4.4641   -3.0194   -1.6982 C   0  0  1  0  0  0  0  0  0  0  0  0
    5.6887   -3.7070   -2.2843 C   0  0  0  0  0  0  0  0  0  0  0  0
    3.5608   -2.7436   -2.9154 C   0  0  1  0  0  0  0  0  0  0  0  0
    2.2225   -2.5861   -2.6097 O   0  0  0  0  0  0  0  0  0  0  0  0
    4.0699   -1.4197   -3.4853 C   0  0  0  0  0  0  0  0  0  0  0  0
    4.6182   -0.6603   -2.2726 C   0  0  0  0  0  0  0  0  0  0  0  0
    4.9186   -1.6518   -1.1369 C   0  0  1  0  0  0  0  0  0  0  0  0
    4.0078   -2.8449    4.7410 H   0  0  0  0  0  0  0  0  0  0  0  0
    5.5353   -2.4744    3.9585 H   0  0  0  0  0  0  0  0  0  0  0  0
    4.6786   -3.9756    3.5880 H   0  0  0  0  0  0  0  0  0  0  0  0
    2.2006   -3.5722    1.9494 H   0  0  0  0  0  0  0  0  0  0  0  0
    0.3133   -2.5537    3.1592 H   0  0  0  0  0  0  0  0  0  0  0  0
    2.8126    0.7013    4.3690 H   0  0  0  0  0  0  0  0  0  0  0  0
    3.3956   -0.7478    5.1657 H   0  0  0  0  0  0  0  0  0  0  0  0
    3.7710    1.2461    2.4389 H   0  0  0  0  0  0  0  0  0  0  0  0
    4.1987    0.7889    0.1836 H   0  0  0  0  0  0  0  0  0  0  0  0
    5.6858    0.1715    0.8596 H   0  0  0  0  0  0  0  0  0  0  0  0
    3.1490   -1.3281    0.0744 H   0  0  0  0  0  0  0  0  0  0  0  0
    5.6170   -2.1986    1.5626 H   0  0  0  0  0  0  0  0  0  0  0  0
    5.6286   -4.1612    0.6099 H   0  0  0  0  0  0  0  0  0  0  0  0
    4.1423   -4.5318    1.4305 H   0  0  0  0  0  0  0  0  0  0  0  0
    3.8626   -4.9568   -0.8915 H   0  0  0  0  0  0  0  0  0  0  0  0
    2.7915   -3.6755   -0.3981 H   0  0  0  0  0  0  0  0  0  0  0  0
    6.1789   -3.1079   -3.0520 H   0  0  0  0  0  0  0  0  0  0  0  0
    5.3878   -4.6426   -2.7571 H   0  0  0  0  0  0  0  0  0  0  0  0
    6.4278   -3.9068   -1.5156 H   0  0  0  0  0  0  0  0  0  0  0  0
    3.5443   -3.5694   -3.6360 H   0  0  0  0  0  0  0  0  0  0  0  0
    2.0636   -2.9230   -1.7333 H   0  0  0  0  0  0  0  0  0  0  0  0
    4.8687   -1.6143   -4.1954 H   0  0  0  0  0  0  0  0  0  0  0  0
    3.2955   -0.8616   -3.9943 H   0  0  0  0  0  0  0  0  0  0  0  0
    5.4814   -0.0560   -2.5227 H   0  0  0  0  0  0  0  0  0  0  0  0
    3.8916    0.0512   -1.9531 H   0  0  0  0  0  0  0  0  0  0  0  0
    6.0025   -1.6627   -0.9745 H   0  0  0  0  0  0  0  0  0  0  0  0
  2  1  1  1
  1 22  1  0
  1 23  1  0
  1 24  1  0
  2  8  1  0
  2 12  1  0
  2  3  1  0
  3  4  2  0
  3 25  1  0
  4  5  1  0
  4 26  1  0
  5  6  2  0
  5  7  1  0
  7  8  1  0
  7 27  1  0
  7 28  1  0
  8  9  2  0
  9 10  1  0
  9 29  1  0
 10 11  1  0
 10 30  1  0
 10 31  1  0
 11 21  1  0
 11 12  1  0
 11 32  1  6
 12 13  1  0
 12 33  1  1
 13 14  1  0
 13 34  1  0
 13 35  1  0
 14 15  1  0
 14 36  1  0
 14 37  1  0
 15 21  1  0
 15 16  1  6
 15 17  1  0
 16 38  1  0
 16 39  1  0
 16 40  1  0
 17 18  1  0
 17 19  1  0
 17 41  1  6
 18 42  1  0
 19 20  1  0
 19 43  1  0
 19 44  1  0
 20 21  1  0
 20 45  1  0
 20 46  1  0
 21 47  1  1
M  END
>  <i_m_ct_stereo_status>  (123) 
1

>  <s_m_source_file>  (123) 
/var/tmp/pbs.5076255.sched01/tmp1pt1fpgk/39zsbf0m6x.sdf

>  <i_m_source_file_index>  (123) 
11

>  <i_lp_mmshare_version>  (123) 
48012

>  <i_f3d_flags>  (123) 
0

>  <s_epik_input>  (123) 
W0NIXTE9W0NIXUMoPU8pW0NIMl1DKFtDQEBdMTJbQ0gzXSk9W0NIXVtDSDJdW0NAQEhdM1tDQEBIXTJbQ0gyXVtDSDJdW0NAXTQoW0NIM10pW0NASF0zW0NIMl1bQ0gyXVtDQEBIXTRbT0hd

>  <s_epik_cmdline>  (123) 
J2VwaWtfcHl0aG9uJywgJy1waHQnLCAnMi4wJywgJy1waCcsICc3LjAnLCAnLXRuJywgJzgnLCAnLW1hJywgJzIwMCcsICctaW1hZScsICc8aW5maWxlLm1hZT4nLCAnLW9tYWUnLCAnPG91dGZpbGUubWFlPic=

>  <r_lp_tautomer_probability>  (123) 
1

>  <r_epik_Ionization_Penalty>  (123) 
2.12841e-06

>  <r_epik_Ionization_Penalty_Charging>  (123) 
0

>  <r_epik_Ionization_Penalty_Neutral>  (123) 
2.12841e-06

>  <r_epik_State_Penalty>  (123) 
-0

>  <r_epik_Charging_Adjusted_Penalty>  (123) 
0

>  <i_epik_Tot_Q>  (123) 
0

>  <i_epik_Tot_abs_Q>  (123) 
0

>  <s_lp_Force_Field>  (123) 
OPLS3e

>  <r_lp_Energy>  (123) 
47.9073

>  <b_lp_Chiralities_Consistent>  (123) 
1

>  <s_lp_Variant>  (123) 
42:0-1

>  <s_i_glide_gridfile>  (123) 
pfpi4k_grid

>  <i_i_glide_lignum>  (123) 
11

>  <i_i_glide_rotatable_bonds>  (123) 
1

>  <r_i_docking_score>  (123) 
-3.07233

>  <r_i_glide_ligand_efficiency>  (123) 
-0.146302

>  <r_i_glide_ligand_efficiency_sa>  (123) 
-0.403635

>  <r_i_glide_ligand_efficiency_ln>  (123) 
-0.759628

>  <r_i_glide_gscore>  (123) 
-3.07233

>  <r_i_glide_lipo>  (123) 
-0.553346

>  <r_i_glide_hbond>  (123) 
0

>  <r_i_glide_metal>  (123) 
-0

>  <r_i_glide_rewards>  (123) 
-1.45631

>  <r_i_glide_evdw>  (123) 
-17.7053

>  <r_i_glide_ecoul>  (123) 
-1.17162

>  <r_i_glide_erotb>  (123) 
0

>  <r_i_glide_esite>  (123) 
-0.00167528

>  <r_i_glide_emodel>  (123) 
-23.3237

>  <r_i_glide_energy>  (123) 
-18.8769

>  <r_i_glide_einternal>  (123) 
0.85233

>  <r_i_glide_intrahb_reward>  (123) 
-0

>  <i_i_glide_confnum>  (123) 
2

>  <i_i_glide_posenum>  (123) 
21

>  <r_i_glide_eff_state_penalty>  (123) 
0

>  <ligand_id>  (123) 
42

>  <original_smiles>  (123) 
CC12C=CC(=O)CC1=CCC1C2CCC2(C)C(O)CCC12

>  <smiles>  (123) 
[H]OC1([H])C([H])([H])C([H])([H])C2([H])C3([H])C([H])([H])C([H])=C4C([H])([H])C(=O)C([H])=C([H])C4(C([H])([H])[H])C3([H])C([H])([H])C([H])([H])C12C([H])([H])[H]

$$$$
43:0:0
     RDKit          3D

 59 63  0  0  1  0  0  0  0  0999 V2000
    3.0493    0.2048    6.7166 C   0  0  0  0  0  0  0  0  0  0  0  0
    2.8474   -0.3812    5.5215 C   0  0  0  0  0  0  0  0  0  0  0  0
    1.8682    0.1657    4.6067 C   0  0  0  0  0  0  0  0  0  0  0  0
    1.8653    1.4610    4.2442 C   0  0  0  0  0  0  0  0  0  0  0  0
    0.8097    2.0428    3.3253 C   0  0  1  0  0  0  0  0  0  0  0  0
    1.3968    2.3787    2.0818 O   0  0  0  0  0  0  0  0  0  0  0  0
   -0.4214    1.1000    3.1885 C   0  0  1  0  0  0  0  0  0  0  0  0
   -1.3746    1.1789    4.4043 C   0  0  0  0  0  0  0  0  0  0  0  0
   -1.1814    1.4877    2.0815 O   0  0  0  0  0  0  0  0  0  0  0  0
    0.0289   -0.2166    3.0312 O   0  0  0  0  0  0  0  0  0  0  0  0
    0.8218   -0.7836    4.0732 C   0  0  1  0  0  0  0  0  0  0  0  0
    1.4680   -2.0790    3.5773 C   0  0  1  0  0  0  0  0  0  0  0  0
    2.1400   -1.9382    2.2986 O   0  0  0  0  0  0  0  0  0  0  0  0
    3.1964   -2.8325    2.7422 C   0  0  1  0  0  0  0  0  0  0  0  0
    3.0416   -4.2667    2.1544 C   0  0  1  0  0  0  0  0  0  0  0  0
    1.8177   -4.9011    2.4811 O   0  0  0  0  0  0  0  0  0  0  0  0
    3.2729   -4.3670    0.6391 C   0  0  0  0  0  0  0  0  0  0  0  0
    4.6144   -3.7472    0.2148 C   0  0  1  0  0  0  0  0  0  0  0  0
    4.7234   -3.8426   -1.1952 O   0  0  0  0  0  0  0  0  0  0  0  0
    4.8043   -2.2823    0.7141 C   0  0  0  0  0  0  0  0  0  0  0  0
    6.2509   -1.8399    0.3868 C   0  0  0  0  0  0  0  0  0  0  0  0
    3.8349   -1.3363   -0.0394 C   0  0  0  0  0  0  0  0  0  0  0  0
    4.5783   -2.2940    2.2715 C   0  0  1  0  0  0  0  0  0  0  0  0
    5.0926   -1.0784    3.0927 C   0  0  1  0  0  0  0  0  0  0  0  0
    4.4153    0.1260    2.7998 O   0  0  0  0  0  0  0  0  0  0  0  0
    5.0119   -1.3992    4.5954 C   0  0  1  0  0  0  0  0  0  0  0  0
    5.7408   -0.4539    5.3584 O   0  0  0  0  0  0  0  0  0  0  0  0
    3.5920   -1.6632    5.1423 C   0  0  2  0  0  0  0  0  0  0  0  0
    2.7663   -2.5987    4.2139 C   0  0  1  0  0  0  0  0  0  0  0  0
    3.7705   -0.1980    7.4180 H   0  0  0  0  0  0  0  0  0  0  0  0
    2.5073    1.0929    7.0087 H   0  0  0  0  0  0  0  0  0  0  0  0
    2.6217    2.1451    4.6032 H   0  0  0  0  0  0  0  0  0  0  0  0
    0.4607    2.9739    3.7757 H   0  0  0  0  0  0  0  0  0  0  0  0
    0.9001    3.0936    1.6803 H   0  0  0  0  0  0  0  0  0  0  0  0
   -2.1590    0.4283    4.3050 H   0  0  0  0  0  0  0  0  0  0  0  0
   -1.8475    2.1608    4.4316 H   0  0  0  0  0  0  0  0  0  0  0  0
   -0.8438    1.0283    5.3431 H   0  0  0  0  0  0  0  0  0  0  0  0
   -0.5953    1.4896    1.3324 H   0  0  0  0  0  0  0  0  0  0  0  0
    0.1606   -1.0194    4.9060 H   0  0  0  0  0  0  0  0  0  0  0  0
    0.7243   -2.8747    3.5178 H   0  0  0  0  0  0  0  0  0  0  0  0
    3.7972   -4.8955    2.6241 H   0  0  0  0  0  0  0  0  0  0  0  0
    1.7523   -4.9589    3.4208 H   0  0  0  0  0  0  0  0  0  0  0  0
    3.2667   -5.4210    0.3542 H   0  0  0  0  0  0  0  0  0  0  0  0
    2.4480   -3.9046    0.0956 H   0  0  0  0  0  0  0  0  0  0  0  0
    5.4113   -4.3633    0.6357 H   0  0  0  0  0  0  0  0  0  0  0  0
    4.4245   -4.6968   -1.4775 H   0  0  0  0  0  0  0  0  0  0  0  0
    6.4148   -0.7876    0.6236 H   0  0  0  0  0  0  0  0  0  0  0  0
    6.4805   -1.9628   -0.6719 H   0  0  0  0  0  0  0  0  0  0  0  0
    6.9834   -2.4258    0.9439 H   0  0  0  0  0  0  0  0  0  0  0  0
    3.8393   -0.3294    0.3714 H   0  0  0  0  0  0  0  0  0  0  0  0
    2.8080   -1.6924   -0.0080 H   0  0  0  0  0  0  0  0  0  0  0  0
    4.0979   -1.2493   -1.0953 H   0  0  0  0  0  0  0  0  0  0  0  0
    5.2858   -3.0590    2.5877 H   0  0  0  0  0  0  0  0  0  0  0  0
    6.1428   -0.9181    2.8578 H   0  0  0  0  0  0  0  0  0  0  0  0
    3.4827   -0.0210    2.8873 H   0  0  0  0  0  0  0  0  0  0  0  0
    5.5560   -2.3334    4.7335 H   0  0  0  0  0  0  0  0  0  0  0  0
    5.3251    0.3894    5.2451 H   0  0  0  0  0  0  0  0  0  0  0  0
    3.7334   -2.1903    6.0889 H   0  0  0  0  0  0  0  0  0  0  0  0
    2.5712   -3.5569    4.6989 H   0  0  0  0  0  0  0  0  0  0  0  0
  1  2  2  0
  1 30  1  0
  1 31  1  0
  2 28  1  0
  2  3  1  0
  3 11  1  0
  3  4  2  0
  4  5  1  0
  4 32  1  0
  5  6  1  0
  5  7  1  0
  5 33  1  1
  6 34  1  0
  7  8  1  0
  7  9  1  6
  7 10  1  0
  8 35  1  0
  8 36  1  0
  8 37  1  0
  9 38  1  0
 10 11  1  0
 11 12  1  0
 11 39  1  1
 12 29  1  0
 12 13  1  0
 12 40  1  6
 14 13  1  6
 14 23  1  0
 14 29  1  0
 14 15  1  0
 15 16  1  0
 15 17  1  0
 15 41  1  1
 16 42  1  0
 17 18  1  0
 17 43  1  0
 17 44  1  0
 18 19  1  0
 18 20  1  0
 18 45  1  1
 19 46  1  0
 20 21  1  0
 20 22  1  0
 20 23  1  0
 21 47  1  0
 21 48  1  0
 21 49  1  0
 22 50  1  0
 22 51  1  0
 22 52  1  0
 23 24  1  0
 23 53  1  1
 24 25  1  0
 24 26  1  0
 24 54  1  6
 25 55  1  0
 26 27  1  0
 26 28  1  0
 26 56  1  6
 27 57  1  0
 28 29  1  0
 28 58  1  1
 29 59  1  1
M  END
>  <i_m_ct_stereo_status>  (124) 
1

>  <s_m_source_file>  (124) 
/var/tmp/pbs.5076255.sched01/tmp1pt1fpgk/39zsbf0m6x.sdf

>  <i_m_source_file_index>  (124) 
12

>  <i_lp_mmshare_version>  (124) 
48012

>  <i_f3d_flags>  (124) 
0

>  <s_epik_input>  (124) 
W0NIM11bQ0BAXShPMSkoW09IXSlbQ0BIXShbT0hdKVtDSF09QyhDMj1bQ0gyXSlbQ0BASF0xW0NAQEhdKE8zKVtDQEBIXTRbQ0BIXTJbQ0BIXShbT0hdKVtDQEhdKFtPSF0pW0NAQEhdKFtDQF0zNDUpQyhbQ0gzXSkoW0NIM10pW0NASF0oW09IXSlbQ0gyXVtDQEBIXTVbT0hd

>  <s_epik_cmdline>  (124) 
J2VwaWtfcHl0aG9uJywgJy1waHQnLCAnMi4wJywgJy1waCcsICc3LjAnLCAnLXRuJywgJzgnLCAnLW1hJywgJzIwMCcsICctaW1hZScsICc8aW5maWxlLm1hZT4nLCAnLW9tYWUnLCAnPG91dGZpbGUubWFlPic=

>  <r_lp_tautomer_probability>  (124) 
1

>  <r_epik_Ionization_Penalty>  (124) 
3.91657e-06

>  <r_epik_Ionization_Penalty_Charging>  (124) 
0

>  <r_epik_Ionization_Penalty_Neutral>  (124) 
3.91657e-06

>  <r_epik_State_Penalty>  (124) 
-0

>  <r_epik_Charging_Adjusted_Penalty>  (124) 
0

>  <i_epik_Tot_Q>  (124) 
0

>  <i_epik_Tot_abs_Q>  (124) 
0

>  <s_lp_Force_Field>  (124) 
OPLS3e

>  <r_lp_Energy>  (124) 
49.3111

>  <b_lp_Chiralities_Consistent>  (124) 
1

>  <s_lp_Variant>  (124) 
43:0-1

>  <s_i_glide_gridfile>  (124) 
pfpi4k_grid

>  <i_i_glide_lignum>  (124) 
12

>  <i_i_glide_rotatable_bonds>  (124) 
6

>  <r_i_docking_score>  (124) 
-3.40255

>  <r_i_glide_ligand_efficiency>  (124) 
-0.117329

>  <r_i_glide_ligand_efficiency_sa>  (124) 
-0.360472

>  <r_i_glide_ligand_efficiency_ln>  (124) 
-0.779097

>  <r_i_glide_gscore>  (124) 
-3.40255

>  <r_i_glide_lipo>  (124) 
-0.321418

>  <r_i_glide_hbond>  (124) 
-0.0887439

>  <r_i_glide_metal>  (124) 
-0

>  <r_i_glide_rewards>  (124) 
-1.11051

>  <r_i_glide_evdw>  (124) 
-25.0437

>  <r_i_glide_ecoul>  (124) 
-3.95716

>  <r_i_glide_erotb>  (124) 
0

>  <r_i_glide_esite>  (124) 
-0.0361145

>  <r_i_glide_emodel>  (124) 
-40.4307

>  <r_i_glide_energy>  (124) 
-29.0008

>  <r_i_glide_einternal>  (124) 
1.53269

>  <r_i_glide_intrahb_reward>  (124) 
-0.5

>  <i_i_glide_confnum>  (124) 
2

>  <i_i_glide_posenum>  (124) 
23

>  <r_i_glide_eff_state_penalty>  (124) 
0

>  <ligand_id>  (124) 
43

>  <original_smiles>  (124) 
C=C1C2=CC(O)C(C)(O)OC2C2OC34C(O)CC(O)C(C)(C)C3C(O)C(O)C1C24

>  <smiles>  (124) 
[H]OC1([H])C([H])=C2C(=C([H])[H])C3([H])C([H])(O[H])C([H])(O[H])C4([H])C5(OC([H])(C2([H])OC1(O[H])C([H])([H])[H])C35[H])C([H])(O[H])C([H])([H])C([H])(O[H])C4(C([H])([H])[H])C([H])([H])[H]

$$$$
43:0:1
     RDKit          3D

 59 63  0  0  1  0  0  0  0  0999 V2000
    3.0409    0.2119    6.7199 C   0  0  0  0  0  0  0  0  0  0  0  0
    2.8410   -0.3741    5.5260 C   0  0  0  0  0  0  0  0  0  0  0  0
    1.8634    0.1748    4.6087 C   0  0  0  0  0  0  0  0  0  0  0  0
    1.8625    1.4658    4.2445 C   0  0  0  0  0  0  0  0  0  0  0  0
    0.8087    2.0501    3.3273 C   0  0  1  0  0  0  0  0  0  0  0  0
    1.3967    2.3855    2.0816 O   0  0  0  0  0  0  0  0  0  0  0  0
   -0.4259    1.1103    3.1871 C   0  0  1  0  0  0  0  0  0  0  0  0
   -1.3774    1.1928    4.4048 C   0  0  0  0  0  0  0  0  0  0  0  0
   -1.1839    1.4968    2.0758 O   0  0  0  0  0  0  0  0  0  0  0  0
    0.0230   -0.2085    3.0350 O   0  0  0  0  0  0  0  0  0  0  0  0
    0.8142   -0.7749    4.0778 C   0  0  1  0  0  0  0  0  0  0  0  0
    1.4578   -2.0728    3.5841 C   0  0  1  0  0  0  0  0  0  0  0  0
    2.1290   -1.9360    2.3042 O   0  0  0  0  0  0  0  0  0  0  0  0
    3.1860   -2.8309    2.7492 C   0  0  1  0  0  0  0  0  0  0  0  0
    3.0273   -4.2655    2.1640 C   0  0  1  0  0  0  0  0  0  0  0  0
    1.8040   -4.8982    2.4895 O   0  0  0  0  0  0  0  0  0  0  0  0
    3.2602   -4.3690    0.6486 C   0  0  0  0  0  0  0  0  0  0  0  0
    4.6032   -3.7514    0.2239 C   0  0  1  0  0  0  0  0  0  0  0  0
    4.7134   -3.8493   -1.1855 O   0  0  0  0  0  0  0  0  0  0  0  0
    4.7956   -2.2866    0.7204 C   0  0  0  0  0  0  0  0  0  0  0  0
    6.2439   -1.8473    0.3943 C   0  0  0  0  0  0  0  0  0  0  0  0
    3.8280   -1.3400   -0.0342 C   0  0  0  0  0  0  0  0  0  0  0  0
    4.5694   -2.2971    2.2780 C   0  0  1  0  0  0  0  0  0  0  0  0
    5.0852   -1.0813    3.0917 C   0  0  1  0  0  0  0  0  0  0  0  0
    4.4130    0.1191    2.7768 O   0  0  0  0  0  0  0  0  0  0  0  0
    5.0062   -1.3936    4.5987 C   0  0  1  0  0  0  0  0  0  0  0  0
    5.7316   -0.4425    5.3578 O   0  0  0  0  0  0  0  0  0  0  0  0
    3.5849   -1.6564    5.1465 C   0  0  2  0  0  0  0  0  0  0  0  0
    2.7572   -2.5932    4.2210 C   0  0  1  0  0  0  0  0  0  0  0  0
    3.7650   -0.1882    7.4191 H   0  0  0  0  0  0  0  0  0  0  0  0
    2.5006    1.1017    7.0114 H   0  0  0  0  0  0  0  0  0  0  0  0
    2.6224    2.1477    4.6042 H   0  0  0  0  0  0  0  0  0  0  0  0
    0.4607    2.9831    3.7732 H   0  0  0  0  0  0  0  0  0  0  0  0
    0.8996    3.0985    1.6783 H   0  0  0  0  0  0  0  0  0  0  0  0
   -2.1630    0.4430    4.3064 H   0  0  0  0  0  0  0  0  0  0  0  0
   -1.8486    2.1762    4.4304 H   0  0  0  0  0  0  0  0  0  0  0  0
   -0.8466    1.0426    5.3445 H   0  0  0  0  0  0  0  0  0  0  0  0
   -0.5940    1.4963    1.3307 H   0  0  0  0  0  0  0  0  0  0  0  0
    0.1518   -1.0085    4.9110 H   0  0  0  0  0  0  0  0  0  0  0  0
    0.7114   -2.8653    3.5247 H   0  0  0  0  0  0  0  0  0  0  0  0
    3.7816   -4.8954    2.6364 H   0  0  0  0  0  0  0  0  0  0  0  0
    1.7369   -4.9546    3.4293 H   0  0  0  0  0  0  0  0  0  0  0  0
    3.2527   -5.4230    0.3656 H   0  0  0  0  0  0  0  0  0  0  0  0
    2.4363   -3.9060    0.1045 H   0  0  0  0  0  0  0  0  0  0  0  0
    5.3990   -4.3687    0.6459 H   0  0  0  0  0  0  0  0  0  0  0  0
    4.4119   -4.7029   -1.4668 H   0  0  0  0  0  0  0  0  0  0  0  0
    6.4097   -0.7952    0.6289 H   0  0  0  0  0  0  0  0  0  0  0  0
    6.4740   -1.9714   -0.6636 H   0  0  0  0  0  0  0  0  0  0  0  0
    6.9748   -2.4332    0.9523 H   0  0  0  0  0  0  0  0  0  0  0  0
    3.8327   -0.3319    0.3731 H   0  0  0  0  0  0  0  0  0  0  0  0
    2.7996   -1.6939   -0.0022 H   0  0  0  0  0  0  0  0  0  0  0  0
    4.0915   -1.2541   -1.0897 H   0  0  0  0  0  0  0  0  0  0  0  0
    5.2745   -3.0644    2.5974 H   0  0  0  0  0  0  0  0  0  0  0  0
    6.1351   -0.9228    2.8543 H   0  0  0  0  0  0  0  0  0  0  0  0
    3.4850   -0.0078    2.9123 H   0  0  0  0  0  0  0  0  0  0  0  0
    5.5501   -2.3280    4.7386 H   0  0  0  0  0  0  0  0  0  0  0  0
    6.5813   -0.3312    4.9626 H   0  0  0  0  0  0  0  0  0  0  0  0
    3.7265   -2.1812    6.0943 H   0  0  0  0  0  0  0  0  0  0  0  0
    2.5610   -3.5488    4.7092 H   0  0  0  0  0  0  0  0  0  0  0  0
  1  2  2  0
  1 30  1  0
  1 31  1  0
  2 28  1  0
  2  3  1  0
  3 11  1  0
  3  4  2  0
  4  5  1  0
  4 32  1  0
  5  6  1  0
  5  7  1  0
  5 33  1  1
  6 34  1  0
  7  8  1  0
  7  9  1  6
  7 10  1  0
  8 35  1  0
  8 36  1  0
  8 37  1  0
  9 38  1  0
 10 11  1  0
 11 12  1  0
 11 39  1  1
 12 29  1  0
 12 13  1  0
 12 40  1  6
 14 13  1  6
 14 23  1  0
 14 29  1  0
 14 15  1  0
 15 16  1  0
 15 17  1  0
 15 41  1  1
 16 42  1  0
 17 18  1  0
 17 43  1  0
 17 44  1  0
 18 19  1  0
 18 20  1  0
 18 45  1  1
 19 46  1  0
 20 21  1  0
 20 22  1  0
 20 23  1  0
 21 47  1  0
 21 48  1  0
 21 49  1  0
 22 50  1  0
 22 51  1  0
 22 52  1  0
 23 24  1  0
 23 53  1  1
 24 25  1  0
 24 26  1  0
 24 54  1  6
 25 55  1  0
 26 27  1  0
 26 28  1  0
 26 56  1  6
 27 57  1  0
 28 29  1  0
 28 58  1  1
 29 59  1  1
M  END
>  <i_m_ct_stereo_status>  (125) 
1

>  <s_m_source_file>  (125) 
/var/tmp/pbs.5076255.sched01/tmp1pt1fpgk/39zsbf0m6x.sdf

>  <i_m_source_file_index>  (125) 
12

>  <i_lp_mmshare_version>  (125) 
48012

>  <i_f3d_flags>  (125) 
0

>  <s_epik_input>  (125) 
W0NIM11bQ0BAXShPMSkoW09IXSlbQ0BIXShbT0hdKVtDSF09QyhDMj1bQ0gyXSlbQ0BASF0xW0NAQEhdKE8zKVtDQEBIXTRbQ0BIXTJbQ0BIXShbT0hdKVtDQEhdKFtPSF0pW0NAQEhdKFtDQF0zNDUpQyhbQ0gzXSkoW0NIM10pW0NASF0oW09IXSlbQ0gyXVtDQEBIXTVbT0hd

>  <s_epik_cmdline>  (125) 
J2VwaWtfcHl0aG9uJywgJy1waHQnLCAnMi4wJywgJy1waCcsICc3LjAnLCAnLXRuJywgJzgnLCAnLW1hJywgJzIwMCcsICctaW1hZScsICc8aW5maWxlLm1hZT4nLCAnLW9tYWUnLCAnPG91dGZpbGUubWFlPic=

>  <r_lp_tautomer_probability>  (125) 
1

>  <r_epik_Ionization_Penalty>  (125) 
3.91657e-06

>  <r_epik_Ionization_Penalty_Charging>  (125) 
0

>  <r_epik_Ionization_Penalty_Neutral>  (125) 
3.91657e-06

>  <r_epik_State_Penalty>  (125) 
-0

>  <r_epik_Charging_Adjusted_Penalty>  (125) 
0

>  <i_epik_Tot_Q>  (125) 
0

>  <i_epik_Tot_abs_Q>  (125) 
0

>  <s_lp_Force_Field>  (125) 
OPLS3e

>  <r_lp_Energy>  (125) 
49.3111

>  <b_lp_Chiralities_Consistent>  (125) 
1

>  <s_lp_Variant>  (125) 
43:0-1

>  <s_i_glide_gridfile>  (125) 
pfpi4k_grid

>  <i_i_glide_lignum>  (125) 
12

>  <i_i_glide_rotatable_bonds>  (125) 
6

>  <r_i_docking_score>  (125) 
-3.31449

>  <r_i_glide_ligand_efficiency>  (125) 
-0.114293

>  <r_i_glide_ligand_efficiency_sa>  (125) 
-0.351144

>  <r_i_glide_ligand_efficiency_ln>  (125) 
-0.758935

>  <r_i_glide_gscore>  (125) 
-3.31449

>  <r_i_glide_lipo>  (125) 
-0.320203

>  <r_i_glide_hbond>  (125) 
-0.0938181

>  <r_i_glide_metal>  (125) 
-0

>  <r_i_glide_rewards>  (125) 
-1.11051

>  <r_i_glide_evdw>  (125) 
-24.9308

>  <r_i_glide_ecoul>  (125) 
-3.38126

>  <r_i_glide_erotb>  (125) 
0

>  <r_i_glide_esite>  (125) 
-0.0362298

>  <r_i_glide_emodel>  (125) 
-39.3554

>  <r_i_glide_energy>  (125) 
-28.3121

>  <r_i_glide_einternal>  (125) 
1.92701

>  <r_i_glide_intrahb_reward>  (125) 
-0.5

>  <i_i_glide_confnum>  (125) 
2

>  <i_i_glide_posenum>  (125) 
21

>  <r_i_glide_eff_state_penalty>  (125) 
0

>  <ligand_id>  (125) 
43

>  <original_smiles>  (125) 
C=C1C2=CC(O)C(C)(O)OC2C2OC34C(O)CC(O)C(C)(C)C3C(O)C(O)C1C24

>  <smiles>  (125) 
[H]OC1([H])C([H])=C2C(=C([H])[H])C3([H])C([H])(O[H])C([H])(O[H])C4([H])C5(OC([H])(C2([H])OC1(O[H])C([H])([H])[H])C35[H])C([H])(O[H])C([H])([H])C([H])(O[H])C4(C([H])([H])[H])C([H])([H])[H]

$$$$
43:0:2
     RDKit          3D

 59 63  0  0  1  0  0  0  0  0999 V2000
    3.0486    0.1977    6.7163 C   0  0  0  0  0  0  0  0  0  0  0  0
    2.8476   -0.3885    5.5208 C   0  0  0  0  0  0  0  0  0  0  0  0
    1.8686    0.1557    4.6056 C   0  0  0  0  0  0  0  0  0  0  0  0
    1.8634    1.4499    4.2433 C   0  0  0  0  0  0  0  0  0  0  0  0
    0.8095    2.0288    3.3249 C   0  0  1  0  0  0  0  0  0  0  0  0
    1.3961    2.3662    2.0802 O   0  0  0  0  0  0  0  0  0  0  0  0
   -0.4200    1.0845    3.1878 C   0  0  1  0  0  0  0  0  0  0  0  0
   -1.3744    1.1609    4.3998 C   0  0  0  0  0  0  0  0  0  0  0  0
   -1.1791    1.4726    2.0821 O   0  0  0  0  0  0  0  0  0  0  0  0
    0.0350   -0.2302    3.0286 O   0  0  0  0  0  0  0  0  0  0  0  0
    0.8246   -0.7963    4.0696 C   0  0  1  0  0  0  0  0  0  0  0  0
    1.4749   -2.0889    3.5739 C   0  0  1  0  0  0  0  0  0  0  0  0
    2.1469   -1.9444    2.2958 O   0  0  0  0  0  0  0  0  0  0  0  0
    3.2036   -2.8374    2.7396 C   0  0  1  0  0  0  0  0  0  0  0  0
    3.0491   -4.2718    2.1549 C   0  0  1  0  0  0  0  0  0  0  0  0
    1.8291   -4.9084    2.4910 O   0  0  0  0  0  0  0  0  0  0  0  0
    3.2871   -4.3755    0.6391 C   0  0  0  0  0  0  0  0  0  0  0  0
    4.6260   -3.7486    0.2150 C   0  0  1  0  0  0  0  0  0  0  0  0
    4.7366   -3.8429   -1.1949 O   0  0  0  0  0  0  0  0  0  0  0  0
    4.8117   -2.2835    0.7129 C   0  0  0  0  0  0  0  0  0  0  0  0
    6.2586   -1.8369    0.3869 C   0  0  0  0  0  0  0  0  0  0  0  0
    3.8411   -1.3387   -0.0408 C   0  0  0  0  0  0  0  0  0  0  0  0
    4.5853   -2.2956    2.2708 C   0  0  1  0  0  0  0  0  0  0  0  0
    5.0961   -1.0791    3.0901 C   0  0  1  0  0  0  0  0  0  0  0  0
    4.4160    0.1247    2.7976 O   0  0  0  0  0  0  0  0  0  0  0  0
    5.0114   -1.3997    4.5947 C   0  0  1  0  0  0  0  0  0  0  0  0
    5.7419   -0.4508    5.3573 O   0  0  0  0  0  0  0  0  0  0  0  0
    3.5962   -1.6677    5.1411 C   0  0  2  0  0  0  0  0  0  0  0  0
    2.7735   -2.6041    4.2118 C   0  0  1  0  0  0  0  0  0  0  0  0
    3.7703   -0.2034    7.4165 H   0  0  0  0  0  0  0  0  0  0  0  0
    2.5056    1.0855    7.0088 H   0  0  0  0  0  0  0  0  0  0  0  0
    2.6183    2.1371    4.6049 H   0  0  0  0  0  0  0  0  0  0  0  0
    0.4558    2.9619    3.7713 H   0  0  0  0  0  0  0  0  0  0  0  0
    0.9023    3.0871    1.6816 H   0  0  0  0  0  0  0  0  0  0  0  0
   -2.1555    0.4073    4.3015 H   0  0  0  0  0  0  0  0  0  0  0  0
   -1.8518    2.1412    4.4261 H   0  0  0  0  0  0  0  0  0  0  0  0
   -0.8455    1.0138    5.3389 H   0  0  0  0  0  0  0  0  0  0  0  0
   -0.5952    1.4764    1.3331 H   0  0  0  0  0  0  0  0  0  0  0  0
    0.1638   -1.0344    4.9034 H   0  0  0  0  0  0  0  0  0  0  0  0
    0.7349   -2.8885    3.5173 H   0  0  0  0  0  0  0  0  0  0  0  0
    3.8069   -4.8940    2.6309 H   0  0  0  0  0  0  0  0  0  0  0  0
    1.9338   -5.8406    2.3807 H   0  0  0  0  0  0  0  0  0  0  0  0
    3.2860   -5.4267    0.3480 H   0  0  0  0  0  0  0  0  0  0  0  0
    2.4624   -3.9139    0.0965 H   0  0  0  0  0  0  0  0  0  0  0  0
    5.4259   -4.3613    0.6331 H   0  0  0  0  0  0  0  0  0  0  0  0
    4.4417   -4.6969   -1.4804 H   0  0  0  0  0  0  0  0  0  0  0  0
    6.4190   -0.7837    0.6234 H   0  0  0  0  0  0  0  0  0  0  0  0
    6.4874   -1.9577   -0.6730 H   0  0  0  0  0  0  0  0  0  0  0  0
    6.9925   -2.4212    0.9446 H   0  0  0  0  0  0  0  0  0  0  0  0
    3.8441   -0.3301    0.3667 H   0  0  0  0  0  0  0  0  0  0  0  0
    2.8140   -1.6960   -0.0084 H   0  0  0  0  0  0  0  0  0  0  0  0
    4.1019   -1.2538   -1.0972 H   0  0  0  0  0  0  0  0  0  0  0  0
    5.2954   -3.0593    2.5878 H   0  0  0  0  0  0  0  0  0  0  0  0
    6.1462   -0.9159    2.8577 H   0  0  0  0  0  0  0  0  0  0  0  0
    3.4833   -0.0265    2.8758 H   0  0  0  0  0  0  0  0  0  0  0  0
    5.5630   -2.3334    4.7326 H   0  0  0  0  0  0  0  0  0  0  0  0
    5.3239    0.3903    5.2418 H   0  0  0  0  0  0  0  0  0  0  0  0
    3.7390   -2.1963    6.0865 H   0  0  0  0  0  0  0  0  0  0  0  0
    2.5797   -3.5656    4.6931 H   0  0  0  0  0  0  0  0  0  0  0  0
  1  2  2  0
  1 30  1  0
  1 31  1  0
  2 28  1  0
  2  3  1  0
  3 11  1  0
  3  4  2  0
  4  5  1  0
  4 32  1  0
  5  6  1  0
  5  7  1  0
  5 33  1  1
  6 34  1  0
  7  8  1  0
  7  9  1  6
  7 10  1  0
  8 35  1  0
  8 36  1  0
  8 37  1  0
  9 38  1  0
 10 11  1  0
 11 12  1  0
 11 39  1  1
 12 29  1  0
 12 13  1  0
 12 40  1  6
 14 13  1  6
 14 23  1  0
 14 29  1  0
 14 15  1  0
 15 16  1  0
 15 17  1  0
 15 41  1  1
 16 42  1  0
 17 18  1  0
 17 43  1  0
 17 44  1  0
 18 19  1  0
 18 20  1  0
 18 45  1  1
 19 46  1  0
 20 21  1  0
 20 22  1  0
 20 23  1  0
 21 47  1  0
 21 48  1  0
 21 49  1  0
 22 50  1  0
 22 51  1  0
 22 52  1  0
 23 24  1  0
 23 53  1  1
 24 25  1  0
 24 26  1  0
 24 54  1  6
 25 55  1  0
 26 27  1  0
 26 28  1  0
 26 56  1  6
 27 57  1  0
 28 29  1  0
 28 58  1  1
 29 59  1  1
M  END
>  <i_m_ct_stereo_status>  (126) 
1

>  <s_m_source_file>  (126) 
/var/tmp/pbs.5076255.sched01/tmp1pt1fpgk/39zsbf0m6x.sdf

>  <i_m_source_file_index>  (126) 
12

>  <i_lp_mmshare_version>  (126) 
48012

>  <i_f3d_flags>  (126) 
0

>  <s_epik_input>  (126) 
W0NIM11bQ0BAXShPMSkoW09IXSlbQ0BIXShbT0hdKVtDSF09QyhDMj1bQ0gyXSlbQ0BASF0xW0NAQEhdKE8zKVtDQEBIXTRbQ0BIXTJbQ0BIXShbT0hdKVtDQEhdKFtPSF0pW0NAQEhdKFtDQF0zNDUpQyhbQ0gzXSkoW0NIM10pW0NASF0oW09IXSlbQ0gyXVtDQEBIXTVbT0hd

>  <s_epik_cmdline>  (126) 
J2VwaWtfcHl0aG9uJywgJy1waHQnLCAnMi4wJywgJy1waCcsICc3LjAnLCAnLXRuJywgJzgnLCAnLW1hJywgJzIwMCcsICctaW1hZScsICc8aW5maWxlLm1hZT4nLCAnLW9tYWUnLCAnPG91dGZpbGUubWFlPic=

>  <r_lp_tautomer_probability>  (126) 
1

>  <r_epik_Ionization_Penalty>  (126) 
3.91657e-06

>  <r_epik_Ionization_Penalty_Charging>  (126) 
0

>  <r_epik_Ionization_Penalty_Neutral>  (126) 
3.91657e-06

>  <r_epik_State_Penalty>  (126) 
-0

>  <r_epik_Charging_Adjusted_Penalty>  (126) 
0

>  <i_epik_Tot_Q>  (126) 
0

>  <i_epik_Tot_abs_Q>  (126) 
0

>  <s_lp_Force_Field>  (126) 
OPLS3e

>  <r_lp_Energy>  (126) 
49.3111

>  <b_lp_Chiralities_Consistent>  (126) 
1

>  <s_lp_Variant>  (126) 
43:0-1

>  <s_i_glide_gridfile>  (126) 
pfpi4k_grid

>  <i_i_glide_lignum>  (126) 
12

>  <i_i_glide_rotatable_bonds>  (126) 
6

>  <r_i_docking_score>  (126) 
-3.2824

>  <r_i_glide_ligand_efficiency>  (126) 
-0.113186

>  <r_i_glide_ligand_efficiency_sa>  (126) 
-0.347744

>  <r_i_glide_ligand_efficiency_ln>  (126) 
-0.751586

>  <r_i_glide_gscore>  (126) 
-3.2824

>  <r_i_glide_lipo>  (126) 
-0.322399

>  <r_i_glide_hbond>  (126) 
-0.0813679

>  <r_i_glide_metal>  (126) 
-0

>  <r_i_glide_rewards>  (126) 
-1.11051

>  <r_i_glide_evdw>  (126) 
-25.1332

>  <r_i_glide_ecoul>  (126) 
-3.16946

>  <r_i_glide_erotb>  (126) 
0

>  <r_i_glide_esite>  (126) 
-0.0360413

>  <r_i_glide_emodel>  (126) 
-39.2777

>  <r_i_glide_energy>  (126) 
-28.3026

>  <r_i_glide_einternal>  (126) 
1.6853

>  <r_i_glide_intrahb_reward>  (126) 
-0.5

>  <i_i_glide_confnum>  (126) 
1

>  <i_i_glide_posenum>  (126) 
38

>  <r_i_glide_eff_state_penalty>  (126) 
0

>  <ligand_id>  (126) 
43

>  <original_smiles>  (126) 
C=C1C2=CC(O)C(C)(O)OC2C2OC34C(O)CC(O)C(C)(C)C3C(O)C(O)C1C24

>  <smiles>  (126) 
[H]OC1([H])C([H])=C2C(=C([H])[H])C3([H])C([H])(O[H])C([H])(O[H])C4([H])C5(OC([H])(C2([H])OC1(O[H])C([H])([H])[H])C35[H])C([H])(O[H])C([H])([H])C([H])(O[H])C4(C([H])([H])[H])C([H])([H])[H]

$$$$
44:0:0
     RDKit          3D

 27 27  0  0  1  0  0  0  0  0999 V2000
    5.6527   -1.0864    1.6776 C   0  0  0  0  0  0  0  0  0  0  0  0
    4.6676   -0.6613    0.2222 S   0  0  0  0  0  0  0  0  0  0  0  0
    5.1303   -1.9467   -0.9736 C   0  0  2  0  0  0  0  0  0  0  0  0
    4.9649   -1.4975   -2.3341 O   0  0  0  0  0  0  0  0  0  0  0  0
    3.6234   -1.2670   -2.7618 C   0  0  1  0  0  0  0  0  0  0  0  0
    3.6303   -0.7309   -4.2148 C   0  0  0  0  0  0  0  0  0  0  0  0
    3.8116    0.6723   -4.2788 O   0  0  0  0  0  0  0  0  0  0  0  0
    2.7504   -2.5344   -2.5885 C   0  0  1  0  0  0  0  0  0  0  0  0
    3.0518   -3.4748   -3.6069 O   0  0  0  0  0  0  0  0  0  0  0  0
    2.8961   -3.1133   -1.1572 C   0  0  1  0  0  0  0  0  0  0  0  0
    2.0884   -4.2537   -0.8976 O   0  0  0  0  0  0  0  0  0  0  0  0
    4.3605   -3.2570   -0.7158 C   0  0  1  0  0  0  0  0  0  0  0  0
    5.0532   -4.2891   -1.3822 O   0  0  0  0  0  0  0  0  0  0  0  0
    5.4455   -0.3773    2.4705 H   0  0  0  0  0  0  0  0  0  0  0  0
    6.7137   -1.0505    1.4658 H   0  0  0  0  0  0  0  0  0  0  0  0
    5.4022   -2.0736    2.0421 H   0  0  0  0  0  0  0  0  0  0  0  0
    6.1977   -2.1322   -0.8637 H   0  0  0  0  0  0  0  0  0  0  0  0
    3.1763   -0.4913   -2.1476 H   0  0  0  0  0  0  0  0  0  0  0  0
    4.3810   -1.2218   -4.8419 H   0  0  0  0  0  0  0  0  0  0  0  0
    2.6753   -0.9023   -4.6836 H   0  0  0  0  0  0  0  0  0  0  0  0
    3.1735    1.1007   -3.7124 H   0  0  0  0  0  0  0  0  0  0  0  0
    1.7008   -2.2629   -2.7093 H   0  0  0  0  0  0  0  0  0  0  0  0
    2.8028   -4.3448   -3.3470 H   0  0  0  0  0  0  0  0  0  0  0  0
    2.5104   -2.3506   -0.4854 H   0  0  0  0  0  0  0  0  0  0  0  0
    2.3324   -4.9605   -1.5125 H   0  0  0  0  0  0  0  0  0  0  0  0
    4.3869   -3.5112    0.3521 H   0  0  0  0  0  0  0  0  0  0  0  0
    4.4471   -4.9532   -1.6709 H   0  0  0  0  0  0  0  0  0  0  0  0
  1  2  1  0
  1 14  1  0
  1 15  1  0
  1 16  1  0
  2  3  1  0
  3 12  1  0
  3  4  1  0
  3 17  1  6
  4  5  1  0
  5  6  1  0
  5  8  1  0
  5 18  1  1
  6  7  1  0
  6 19  1  0
  6 20  1  0
  7 21  1  0
  8  9  1  0
  8 10  1  0
  8 22  1  6
  9 23  1  0
 10 11  1  0
 10 12  1  0
 10 24  1  1
 11 25  1  0
 12 13  1  0
 12 26  1  1
 13 27  1  0
M  END
>  <i_m_ct_stereo_status>  (127) 
1

>  <s_m_source_file>  (127) 
/var/tmp/pbs.5076255.sched01/tmp1pt1fpgk/39zsbf0m6x.sdf

>  <i_m_source_file_index>  (127) 
13

>  <i_lp_mmshare_version>  (127) 
48012

>  <i_f3d_flags>  (127) 
0

>  <s_epik_input>  (127) 
W0NIM11TW0NAQEhdMU9bQ0BASF0oW0NIMl1bT0hdKVtDQEBIXShbT0hdKVtDQEBIXShbT0hdKVtDQEhdMVtPSF0=

>  <s_epik_cmdline>  (127) 
J2VwaWtfcHl0aG9uJywgJy1waHQnLCAnMi4wJywgJy1waCcsICc3LjAnLCAnLXRuJywgJzgnLCAnLW1hJywgJzIwMCcsICctaW1hZScsICc8aW5maWxlLm1hZT4nLCAnLW9tYWUnLCAnPG91dGZpbGUubWFlPic=

>  <r_lp_tautomer_probability>  (127) 
1

>  <r_epik_Ionization_Penalty>  (127) 
1.70829e-06

>  <r_epik_Ionization_Penalty_Charging>  (127) 
0

>  <r_epik_Ionization_Penalty_Neutral>  (127) 
1.70829e-06

>  <r_epik_State_Penalty>  (127) 
-0

>  <r_epik_Charging_Adjusted_Penalty>  (127) 
0

>  <i_epik_Tot_Q>  (127) 
0

>  <i_epik_Tot_abs_Q>  (127) 
0

>  <s_epik_Chemistry_Notes>  (127) 
This compound contains an acetal/aminal-like group ( X-CH(R)-Y where X, Y are N, S, or O) that may be acid/base labile, releasing an aldehyde.

>  <s_lp_Force_Field>  (127) 
OPLS3e

>  <r_lp_Energy>  (127) 
12.0577

>  <b_lp_Chiralities_Consistent>  (127) 
1

>  <s_lp_Variant>  (127) 
44:0-1

>  <s_i_glide_gridfile>  (127) 
pfpi4k_grid

>  <i_i_glide_lignum>  (127) 
13

>  <i_i_glide_rotatable_bonds>  (127) 
6

>  <r_i_docking_score>  (127) 
-5.30266

>  <r_i_glide_ligand_efficiency>  (127) 
-0.407897

>  <r_i_glide_ligand_efficiency_sa>  (127) 
-0.959103

>  <r_i_glide_ligand_efficiency_ln>  (127) 
-1.48744

>  <r_i_glide_gscore>  (127) 
-5.30266

>  <r_i_glide_lipo>  (127) 
-0.417922

>  <r_i_glide_hbond>  (127) 
0

>  <r_i_glide_metal>  (127) 
-0

>  <r_i_glide_rewards>  (127) 
-1.97557

>  <r_i_glide_evdw>  (127) 
-18.1072

>  <r_i_glide_ecoul>  (127) 
-15.8627

>  <r_i_glide_erotb>  (127) 
0.375597

>  <r_i_glide_esite>  (127) 
0

>  <r_i_glide_emodel>  (127) 
-42.8826

>  <r_i_glide_energy>  (127) 
-33.9699

>  <r_i_glide_einternal>  (127) 
4.54688

>  <r_i_glide_intrahb_reward>  (127) 
-0

>  <i_i_glide_confnum>  (127) 
1

>  <i_i_glide_posenum>  (127) 
29

>  <r_i_glide_eff_state_penalty>  (127) 
0

>  <ligand_id>  (127) 
44

>  <original_smiles>  (127) 
CSC1OC(CO)C(O)C(O)C1O

>  <smiles>  (127) 
[H]OC([H])([H])C1([H])OC([H])(SC([H])([H])[H])C([H])(O[H])C([H])(O[H])C1([H])O[H]

$$$$
44:0:1
     RDKit          3D

 27 27  0  0  1  0  0  0  0  0999 V2000
    5.8732   -1.1264    1.7146 C   0  0  0  0  0  0  0  0  0  0  0  0
    4.8403   -0.6639    0.3028 S   0  0  0  0  0  0  0  0  0  0  0  0
    5.2384   -1.9293   -0.9421 C   0  0  2  0  0  0  0  0  0  0  0  0
    5.1035   -1.4408   -2.2911 O   0  0  0  0  0  0  0  0  0  0  0  0
    3.7771   -1.1506   -2.7445 C   0  0  1  0  0  0  0  0  0  0  0  0
    3.8306   -0.5226   -4.1598 C   0  0  0  0  0  0  0  0  0  0  0  0
    2.6296    0.1935   -4.4025 O   0  0  0  0  0  0  0  0  0  0  0  0
    2.8437   -2.3841   -2.5929 C   0  0  1  0  0  0  0  0  0  0  0  0
    3.0863   -3.3289   -3.6206 O   0  0  0  0  0  0  0  0  0  0  0  0
    2.9778   -3.0195   -1.1821 C   0  0  1  0  0  0  0  0  0  0  0  0
    2.1488   -4.1543   -0.9698 O   0  0  0  0  0  0  0  0  0  0  0  0
    4.4263   -3.2200   -0.7213 C   0  0  1  0  0  0  0  0  0  0  0  0
    5.1070   -4.2507   -1.3949 O   0  0  0  0  0  0  0  0  0  0  0  0
    5.6976   -0.4271    2.5395 H   0  0  0  0  0  0  0  0  0  0  0  0
    6.9363   -1.0928    1.4632 H   0  0  0  0  0  0  0  0  0  0  0  0
    5.6138   -2.1287    2.0580 H   0  0  0  0  0  0  0  0  0  0  0  0
    6.2985   -2.1502   -0.8468 H   0  0  0  0  0  0  0  0  0  0  0  0
    3.4082   -0.3720   -2.0838 H   0  0  0  0  0  0  0  0  0  0  0  0
    4.6160    0.2149   -4.2197 H   0  0  0  0  0  0  0  0  0  0  0  0
    4.0081   -1.2404   -4.9529 H   0  0  0  0  0  0  0  0  0  0  0  0
    2.5087    0.8261   -3.7195 H   0  0  0  0  0  0  0  0  0  0  0  0
    1.8122   -2.0464   -2.7024 H   0  0  0  0  0  0  0  0  0  0  0  0
    2.6648   -4.1461   -3.4159 H   0  0  0  0  0  0  0  0  0  0  0  0
    2.6110   -2.2765   -0.4825 H   0  0  0  0  0  0  0  0  0  0  0  0
    2.3735   -4.8705   -1.5596 H   0  0  0  0  0  0  0  0  0  0  0  0
    4.4404   -3.4971    0.3444 H   0  0  0  0  0  0  0  0  0  0  0  0
    4.4907   -4.9104   -1.6914 H   0  0  0  0  0  0  0  0  0  0  0  0
  1  2  1  0
  1 14  1  0
  1 15  1  0
  1 16  1  0
  2  3  1  0
  3 12  1  0
  3  4  1  0
  3 17  1  1
  4  5  1  0
  5  6  1  0
  5  8  1  0
  5 18  1  1
  6  7  1  0
  6 19  1  0
  6 20  1  0
  7 21  1  0
  8  9  1  0
  8 10  1  0
  8 22  1  6
  9 23  1  0
 10 11  1  0
 10 12  1  0
 10 24  1  1
 11 25  1  0
 12 13  1  0
 12 26  1  1
 13 27  1  0
M  END
>  <i_m_ct_stereo_status>  (128) 
1

>  <s_m_source_file>  (128) 
/var/tmp/pbs.5076255.sched01/tmp1pt1fpgk/39zsbf0m6x.sdf

>  <i_m_source_file_index>  (128) 
13

>  <i_lp_mmshare_version>  (128) 
48012

>  <i_f3d_flags>  (128) 
0

>  <s_epik_input>  (128) 
W0NIM11TW0NAQEhdMU9bQ0BASF0oW0NIMl1bT0hdKVtDQEBIXShbT0hdKVtDQEBIXShbT0hdKVtDQEhdMVtPSF0=

>  <s_epik_cmdline>  (128) 
J2VwaWtfcHl0aG9uJywgJy1waHQnLCAnMi4wJywgJy1waCcsICc3LjAnLCAnLXRuJywgJzgnLCAnLW1hJywgJzIwMCcsICctaW1hZScsICc8aW5maWxlLm1hZT4nLCAnLW9tYWUnLCAnPG91dGZpbGUubWFlPic=

>  <r_lp_tautomer_probability>  (128) 
1

>  <r_epik_Ionization_Penalty>  (128) 
1.70829e-06

>  <r_epik_Ionization_Penalty_Charging>  (128) 
0

>  <r_epik_Ionization_Penalty_Neutral>  (128) 
1.70829e-06

>  <r_epik_State_Penalty>  (128) 
-0

>  <r_epik_Charging_Adjusted_Penalty>  (128) 
0

>  <i_epik_Tot_Q>  (128) 
0

>  <i_epik_Tot_abs_Q>  (128) 
0

>  <s_epik_Chemistry_Notes>  (128) 
This compound contains an acetal/aminal-like group ( X-CH(R)-Y where X, Y are N, S, or O) that may be acid/base labile, releasing an aldehyde.

>  <s_lp_Force_Field>  (128) 
OPLS3e

>  <r_lp_Energy>  (128) 
12.0577

>  <b_lp_Chiralities_Consistent>  (128) 
1

>  <s_lp_Variant>  (128) 
44:0-1

>  <s_i_glide_gridfile>  (128) 
pfpi4k_grid

>  <i_i_glide_lignum>  (128) 
13

>  <i_i_glide_rotatable_bonds>  (128) 
6

>  <r_i_docking_score>  (128) 
-5.23727

>  <r_i_glide_ligand_efficiency>  (128) 
-0.402867

>  <r_i_glide_ligand_efficiency_sa>  (128) 
-0.947276

>  <r_i_glide_ligand_efficiency_ln>  (128) 
-1.4691

>  <r_i_glide_gscore>  (128) 
-5.23727

>  <r_i_glide_lipo>  (128) 
-0.523799

>  <r_i_glide_hbond>  (128) 
-0.280639

>  <r_i_glide_metal>  (128) 
-0

>  <r_i_glide_rewards>  (128) 
-1.97557

>  <r_i_glide_evdw>  (128) 
-17.0798

>  <r_i_glide_ecoul>  (128) 
-13.1925

>  <r_i_glide_erotb>  (128) 
0.375597

>  <r_i_glide_esite>  (128) 
0

>  <r_i_glide_emodel>  (128) 
-39.678

>  <r_i_glide_energy>  (128) 
-30.2723

>  <r_i_glide_einternal>  (128) 
3.53415

>  <r_i_glide_intrahb_reward>  (128) 
-0

>  <i_i_glide_confnum>  (128) 
1

>  <i_i_glide_posenum>  (128) 
21

>  <r_i_glide_eff_state_penalty>  (128) 
0

>  <ligand_id>  (128) 
44

>  <original_smiles>  (128) 
CSC1OC(CO)C(O)C(O)C1O

>  <smiles>  (128) 
[H]OC([H])([H])C1([H])OC([H])(SC([H])([H])[H])C([H])(O[H])C([H])(O[H])C1([H])O[H]

$$$$
44:0:2
     RDKit          3D

 27 27  0  0  1  0  0  0  0  0999 V2000
    6.0103   -0.3905    1.2355 C   0  0  0  0  0  0  0  0  0  0  0  0
    4.4318   -1.0971    0.7380 S   0  0  0  0  0  0  0  0  0  0  0  0
    4.9841   -2.3082   -0.4975 C   0  0  2  0  0  0  0  0  0  0  0  0
    5.0659   -1.7408   -1.8095 O   0  0  0  0  0  0  0  0  0  0  0  0
    3.8212   -1.3619   -2.4004 C   0  0  1  0  0  0  0  0  0  0  0  0
    4.0806   -0.7304   -3.7836 C   0  0  0  0  0  0  0  0  0  0  0  0
    2.8818   -0.4265   -4.4613 O   0  0  0  0  0  0  0  0  0  0  0  0
    2.8284   -2.5360   -2.4464 C   0  0  1  0  0  0  0  0  0  0  0  0
    3.2056   -3.4578   -3.4595 O   0  0  0  0  0  0  0  0  0  0  0  0
    2.7049   -3.1898   -1.0662 C   0  0  1  0  0  0  0  0  0  0  0  0
    1.8002   -4.2728   -1.1149 O   0  0  0  0  0  0  0  0  0  0  0  0
    4.0683   -3.5400   -0.4496 C   0  0  1  0  0  0  0  0  0  0  0  0
    4.7152   -4.6207   -1.0913 O   0  0  0  0  0  0  0  0  0  0  0  0
    5.8131    0.4267    1.9241 H   0  0  0  0  0  0  0  0  0  0  0  0
    6.5609   -0.0144    0.3757 H   0  0  0  0  0  0  0  0  0  0  0  0
    6.6282   -1.1289    1.7440 H   0  0  0  0  0  0  0  0  0  0  0  0
    5.9941   -2.6026   -0.2074 H   0  0  0  0  0  0  0  0  0  0  0  0
    3.3918   -0.5956   -1.7681 H   0  0  0  0  0  0  0  0  0  0  0  0
    4.6141    0.2114   -3.6698 H   0  0  0  0  0  0  0  0  0  0  0  0
    4.6759   -1.3791   -4.4343 H   0  0  0  0  0  0  0  0  0  0  0  0
    2.3713   -1.2193   -4.5325 H   0  0  0  0  0  0  0  0  0  0  0  0
    1.8403   -2.1613   -2.7126 H   0  0  0  0  0  0  0  0  0  0  0  0
    2.9305   -4.3387   -3.2242 H   0  0  0  0  0  0  0  0  0  0  0  0
    2.2245   -2.4644   -0.3997 H   0  0  0  0  0  0  0  0  0  0  0  0
    2.1356   -4.9613   -1.6818 H   0  0  0  0  0  0  0  0  0  0  0  0
    3.9295   -3.8287    0.5932 H   0  0  0  0  0  0  0  0  0  0  0  0
    4.0830   -5.1479   -1.5492 H   0  0  0  0  0  0  0  0  0  0  0  0
  1  2  1  0
  1 14  1  0
  1 15  1  0
  1 16  1  0
  2  3  1  0
  3 12  1  0
  3  4  1  0
  3 17  1  1
  4  5  1  0
  5  6  1  0
  5  8  1  0
  5 18  1  1
  6  7  1  0
  6 19  1  0
  6 20  1  0
  7 21  1  0
  8  9  1  0
  8 10  1  0
  8 22  1  6
  9 23  1  0
 10 11  1  0
 10 12  1  0
 10 24  1  1
 11 25  1  0
 12 13  1  0
 12 26  1  1
 13 27  1  0
M  END
>  <i_m_ct_stereo_status>  (129) 
1

>  <s_m_source_file>  (129) 
/var/tmp/pbs.5076255.sched01/tmp1pt1fpgk/39zsbf0m6x.sdf

>  <i_m_source_file_index>  (129) 
13

>  <i_lp_mmshare_version>  (129) 
48012

>  <i_f3d_flags>  (129) 
0

>  <s_epik_input>  (129) 
W0NIM11TW0NAQEhdMU9bQ0BASF0oW0NIMl1bT0hdKVtDQEBIXShbT0hdKVtDQEBIXShbT0hdKVtDQEhdMVtPSF0=

>  <s_epik_cmdline>  (129) 
J2VwaWtfcHl0aG9uJywgJy1waHQnLCAnMi4wJywgJy1waCcsICc3LjAnLCAnLXRuJywgJzgnLCAnLW1hJywgJzIwMCcsICctaW1hZScsICc8aW5maWxlLm1hZT4nLCAnLW9tYWUnLCAnPG91dGZpbGUubWFlPic=

>  <r_lp_tautomer_probability>  (129) 
1

>  <r_epik_Ionization_Penalty>  (129) 
1.70829e-06

>  <r_epik_Ionization_Penalty_Charging>  (129) 
0

>  <r_epik_Ionization_Penalty_Neutral>  (129) 
1.70829e-06

>  <r_epik_State_Penalty>  (129) 
-0

>  <r_epik_Charging_Adjusted_Penalty>  (129) 
0

>  <i_epik_Tot_Q>  (129) 
0

>  <i_epik_Tot_abs_Q>  (129) 
0

>  <s_epik_Chemistry_Notes>  (129) 
This compound contains an acetal/aminal-like group ( X-CH(R)-Y where X, Y are N, S, or O) that may be acid/base labile, releasing an aldehyde.

>  <s_lp_Force_Field>  (129) 
OPLS3e

>  <r_lp_Energy>  (129) 
12.0577

>  <b_lp_Chiralities_Consistent>  (129) 
1

>  <s_lp_Variant>  (129) 
44:0-1

>  <s_i_glide_gridfile>  (129) 
pfpi4k_grid

>  <i_i_glide_lignum>  (129) 
13

>  <i_i_glide_rotatable_bonds>  (129) 
6

>  <r_i_docking_score>  (129) 
-4.67539

>  <r_i_glide_ligand_efficiency>  (129) 
-0.359646

>  <r_i_glide_ligand_efficiency_sa>  (129) 
-0.845647

>  <r_i_glide_ligand_efficiency_ln>  (129) 
-1.31149

>  <r_i_glide_gscore>  (129) 
-4.67539

>  <r_i_glide_lipo>  (129) 
-0.291881

>  <r_i_glide_hbond>  (129) 
0

>  <r_i_glide_metal>  (129) 
-0

>  <r_i_glide_rewards>  (129) 
-1.97557

>  <r_i_glide_evdw>  (129) 
-15.2197

>  <r_i_glide_ecoul>  (129) 
-13.4837

>  <r_i_glide_erotb>  (129) 
0.375597

>  <r_i_glide_esite>  (129) 
0

>  <r_i_glide_emodel>  (129) 
-36.208

>  <r_i_glide_energy>  (129) 
-28.7033

>  <r_i_glide_einternal>  (129) 
3.86001

>  <r_i_glide_intrahb_reward>  (129) 
-0

>  <i_i_glide_confnum>  (129) 
6

>  <i_i_glide_posenum>  (129) 
18

>  <r_i_glide_eff_state_penalty>  (129) 
0

>  <ligand_id>  (129) 
44

>  <original_smiles>  (129) 
CSC1OC(CO)C(O)C(O)C1O

>  <smiles>  (129) 
[H]OC([H])([H])C1([H])OC([H])(SC([H])([H])[H])C([H])(O[H])C([H])(O[H])C1([H])O[H]

$$$$
45:0:0
     RDKit          3D

 26 31  0  0  1  0  0  0  0  0999 V2000
    4.4547   -1.0794    0.2362 C   0  0  0  0  0  0  0  0  0  0  0  0
    3.9472   -2.0737   -0.5262 C   0  0  0  0  0  0  0  0  0  0  0  0
    4.2509   -3.4408    0.1156 C   0  0  2  0  0  0  0  0  0  0  0  0
    5.2390   -3.0548    1.2234 C   0  0  2  0  0  0  0  0  0  0  0  0
    5.7026   -1.6338    0.9059 C   0  0  1  0  0  0  0  0  0  0  0  0
    6.6375   -2.2553   -0.2152 C   0  0  1  0  0  0  0  0  0  0  0  0
    6.4046   -3.6152    0.4306 C   0  0  2  0  0  0  0  0  0  0  0  0
    5.4501   -3.9792   -0.6823 C   0  0  2  0  0  0  0  0  0  0  0  0
    5.9355   -2.8083   -1.5252 C   0  0  1  0  0  0  0  0  0  0  0  0
    4.6207   -2.1244   -1.9082 C   0  0  0  0  0  0  0  0  0  0  0  0
    4.8535   -0.8849   -2.4818 O   0  0  0  0  0  0  0  0  0  0  0  0
    3.8268   -0.7242   -3.4507 C   0  0  0  0  0  0  0  0  0  0  0  0
    3.0065   -2.0128   -3.3708 C   0  0  0  0  0  0  0  0  0  0  0  0
    3.9348   -2.9074   -2.8176 O   0  0  0  0  0  0  0  0  0  0  0  0
    4.5745   -0.0856   -0.1752 H   0  0  0  0  0  0  0  0  0  0  0  0
    3.4402   -4.1265    0.3558 H   0  0  0  0  0  0  0  0  0  0  0  0
    5.0837   -3.3929    2.2527 H   0  0  0  0  0  0  0  0  0  0  0  0
    6.1775   -1.0944    1.7215 H   0  0  0  0  0  0  0  0  0  0  0  0
    7.6823   -1.9327   -0.2685 H   0  0  0  0  0  0  0  0  0  0  0  0
    7.1864   -4.2666    0.8153 H   0  0  0  0  0  0  0  0  0  0  0  0
    5.4241   -4.9965   -1.0866 H   0  0  0  0  0  0  0  0  0  0  0  0
    6.6204   -3.0926   -2.3245 H   0  0  0  0  0  0  0  0  0  0  0  0
    3.2248    0.1590   -3.2439 H   0  0  0  0  0  0  0  0  0  0  0  0
    4.2869   -0.6213   -4.4349 H   0  0  0  0  0  0  0  0  0  0  0  0
    2.1639   -1.8993   -2.6891 H   0  0  0  0  0  0  0  0  0  0  0  0
    2.6279   -2.3606   -4.3303 H   0  0  0  0  0  0  0  0  0  0  0  0
  1  5  1  0
  1  2  2  0
  1 15  1  0
  2 10  1  0
  2  3  1  0
  3  8  1  0
  3  4  1  0
  3 16  1  1
  4  7  1  0
  4  5  1  0
  4 17  1  1
  5  6  1  0
  5 18  1  1
  6  9  1  0
  6  7  1  0
  6 19  1  6
  7  8  1  0
  7 20  1  1
  8  9  1  0
  8 21  1  6
  9 10  1  0
  9 22  1  6
 10 14  1  0
 10 11  1  0
 11 12  1  0
 12 13  1  0
 12 23  1  0
 12 24  1  0
 13 14  1  0
 13 25  1  0
 13 26  1  0
M  END
>  <i_m_ct_stereo_status>  (130) 
1

>  <s_m_source_file>  (130) 
/var/tmp/pbs.5076255.sched01/tmp1pt1fpgk/39zsbf0m6x.sdf

>  <i_m_source_file_index>  (130) 
14

>  <i_lp_mmshare_version>  (130) 
48012

>  <i_f3d_flags>  (130) 
1

>  <s_epik_input>  (130) 
W0NAQEhdMTJbQ0BIXTNbQ0BIXTRbQ0BASF0xW0NAQEhdKFtDSF09NSlbQ0BIXTRbQ0BIXTNDNUMyNk9bQ0gyXVtDSDJdTzY=

>  <s_epik_cmdline>  (130) 
J2VwaWtfcHl0aG9uJywgJy1waHQnLCAnMi4wJywgJy1waCcsICc3LjAnLCAnLXRuJywgJzgnLCAnLW1hJywgJzIwMCcsICctaW1hZScsICc8aW5maWxlLm1hZT4nLCAnLW9tYWUnLCAnPG91dGZpbGUubWFlPic=

>  <r_lp_tautomer_probability>  (130) 
1

>  <r_epik_Ionization_Penalty>  (130) 
2.03915e-13

>  <r_epik_Ionization_Penalty_Charging>  (130) 
0

>  <r_epik_Ionization_Penalty_Neutral>  (130) 
2.03915e-13

>  <r_epik_State_Penalty>  (130) 
-0

>  <r_epik_Charging_Adjusted_Penalty>  (130) 
0

>  <i_epik_Tot_Q>  (130) 
0

>  <i_epik_Tot_abs_Q>  (130) 
0

>  <s_lp_Force_Field>  (130) 
OPLS3e

>  <r_lp_Energy>  (130) 
82.293

>  <b_lp_Chiralities_Consistent>  (130) 
1

>  <s_lp_Variant>  (130) 
45:0-1

>  <s_i_glide_gridfile>  (130) 
pfpi4k_grid

>  <i_i_glide_lignum>  (130) 
14

>  <i_i_glide_rotatable_bonds>  (130) 
0

>  <r_i_docking_score>  (130) 
-3.98077

>  <r_i_glide_ligand_efficiency>  (130) 
-0.28434

>  <r_i_glide_ligand_efficiency_sa>  (130) 
-0.685301

>  <r_i_glide_ligand_efficiency_ln>  (130) 
-1.0939

>  <r_i_glide_gscore>  (130) 
-3.98077

>  <r_i_glide_lipo>  (130) 
-0.681163

>  <r_i_glide_hbond>  (130) 
0

>  <r_i_glide_metal>  (130) 
-0

>  <r_i_glide_rewards>  (130) 
-2.12576

>  <r_i_glide_evdw>  (130) 
-22.1242

>  <r_i_glide_ecoul>  (130) 
-0.3613

>  <r_i_glide_erotb>  (130) 
0

>  <r_i_glide_esite>  (130) 
-0.0134418

>  <r_i_glide_emodel>  (130) 
-28.1231

>  <r_i_glide_energy>  (130) 
-22.4855

>  <r_i_glide_einternal>  (130) 
0

>  <r_i_glide_intrahb_reward>  (130) 
-0

>  <i_i_glide_confnum>  (130) 
1

>  <i_i_glide_posenum>  (130) 
7

>  <r_i_glide_eff_state_penalty>  (130) 
0

>  <ligand_id>  (130) 
45

>  <original_smiles>  (130) 
C1=C2C3C4C1C1C4C3C1C21OCCO1

>  <smiles>  (130) 
[H]C1=C2C3(OC([H])([H])C([H])([H])O3)C3([H])C4([H])C1([H])C1([H])C2([H])C3([H])C14[H]

$$$$
45:0:1
     RDKit          3D

 26 31  0  0  1  0  0  0  0  0999 V2000
    4.9532   -0.7835   -0.2263 C   0  0  0  0  0  0  0  0  0  0  0  0
    3.8143   -1.4724   -0.4507 C   0  0  0  0  0  0  0  0  0  0  0  0
    3.4942   -2.3654    0.7648 C   0  0  2  0  0  0  0  0  0  0  0  0
    4.7856   -2.2553    1.5869 C   0  0  2  0  0  0  0  0  0  0  0  0
    5.8364   -1.6578    0.6498 C   0  0  1  0  0  0  0  0  0  0  0  0
    5.9569   -3.0856   -0.0300 C   0  0  1  0  0  0  0  0  0  0  0  0
    5.2120   -3.6507    1.1734 C   0  0  2  0  0  0  0  0  0  0  0  0
    3.9562   -3.7704    0.3422 C   0  0  2  0  0  0  0  0  0  0  0  0
    4.7469   -3.5634   -0.9395 C   0  0  1  0  0  0  0  0  0  0  0  0
    3.9633   -2.4418   -1.6324 C   0  0  0  0  0  0  0  0  0  0  0  0
    4.6998   -1.9577   -2.7072 O   0  0  0  0  0  0  0  0  0  0  0  0
    3.7837   -1.8968   -3.7749 C   0  0  0  0  0  0  0  0  0  0  0  0
    2.8364   -3.0470   -3.4635 C   0  0  0  0  0  0  0  0  0  0  0  0
    2.7340   -2.9268   -2.0669 O   0  0  0  0  0  0  0  0  0  0  0  0
    5.4625   -0.3129   -1.0549 H   0  0  0  0  0  0  0  0  0  0  0  0
    2.5393   -2.2618    1.2780 H   0  0  0  0  0  0  0  0  0  0  0  0
    4.7532   -2.0018    2.6518 H   0  0  0  0  0  0  0  0  0  0  0  0
    6.7192   -1.2457    1.1308 H   0  0  0  0  0  0  0  0  0  0  0  0
    6.9521   -3.5055   -0.2103 H   0  0  0  0  0  0  0  0  0  0  0  0
    5.5897   -4.4263    1.8359 H   0  0  0  0  0  0  0  0  0  0  0  0
    3.2904   -4.6316    0.4560 H   0  0  0  0  0  0  0  0  0  0  0  0
    4.9354   -4.4808   -1.4972 H   0  0  0  0  0  0  0  0  0  0  0  0
    3.2588   -0.9396   -3.7661 H   0  0  0  0  0  0  0  0  0  0  0  0
    4.2909   -2.0224   -4.7236 H   0  0  0  0  0  0  0  0  0  0  0  0
    1.8627   -2.9603   -3.9501 H   0  0  0  0  0  0  0  0  0  0  0  0
    3.2818   -4.0072   -3.7299 H   0  0  0  0  0  0  0  0  0  0  0  0
  1  5  1  0
  1  2  2  0
  1 15  1  0
  2 10  1  0
  2  3  1  0
  3  8  1  0
  3  4  1  0
  3 16  1  1
  4  7  1  0
  4  5  1  0
  4 17  1  1
  5  6  1  0
  5 18  1  1
  6  9  1  0
  6  7  1  0
  6 19  1  6
  7  8  1  0
  7 20  1  1
  8  9  1  0
  8 21  1  6
  9 10  1  0
  9 22  1  6
 10 14  1  0
 10 11  1  0
 11 12  1  0
 12 13  1  0
 12 23  1  0
 12 24  1  0
 13 14  1  0
 13 25  1  0
 13 26  1  0
M  END
>  <i_m_ct_stereo_status>  (131) 
1

>  <s_m_source_file>  (131) 
/var/tmp/pbs.5076255.sched01/tmp1pt1fpgk/39zsbf0m6x.sdf

>  <i_m_source_file_index>  (131) 
14

>  <i_lp_mmshare_version>  (131) 
48012

>  <i_f3d_flags>  (131) 
1

>  <s_epik_input>  (131) 
W0NAQEhdMTJbQ0BIXTNbQ0BIXTRbQ0BASF0xW0NAQEhdKFtDSF09NSlbQ0BIXTRbQ0BIXTNDNUMyNk9bQ0gyXVtDSDJdTzY=

>  <s_epik_cmdline>  (131) 
J2VwaWtfcHl0aG9uJywgJy1waHQnLCAnMi4wJywgJy1waCcsICc3LjAnLCAnLXRuJywgJzgnLCAnLW1hJywgJzIwMCcsICctaW1hZScsICc8aW5maWxlLm1hZT4nLCAnLW9tYWUnLCAnPG91dGZpbGUubWFlPic=

>  <r_lp_tautomer_probability>  (131) 
1

>  <r_epik_Ionization_Penalty>  (131) 
2.03915e-13

>  <r_epik_Ionization_Penalty_Charging>  (131) 
0

>  <r_epik_Ionization_Penalty_Neutral>  (131) 
2.03915e-13

>  <r_epik_State_Penalty>  (131) 
-0

>  <r_epik_Charging_Adjusted_Penalty>  (131) 
0

>  <i_epik_Tot_Q>  (131) 
0

>  <i_epik_Tot_abs_Q>  (131) 
0

>  <s_lp_Force_Field>  (131) 
OPLS3e

>  <r_lp_Energy>  (131) 
82.293

>  <b_lp_Chiralities_Consistent>  (131) 
1

>  <s_lp_Variant>  (131) 
45:0-1

>  <s_i_glide_gridfile>  (131) 
pfpi4k_grid

>  <i_i_glide_lignum>  (131) 
14

>  <i_i_glide_rotatable_bonds>  (131) 
0

>  <r_i_docking_score>  (131) 
-3.67911

>  <r_i_glide_ligand_efficiency>  (131) 
-0.262794

>  <r_i_glide_ligand_efficiency_sa>  (131) 
-0.63337

>  <r_i_glide_ligand_efficiency_ln>  (131) 
-1.01101

>  <r_i_glide_gscore>  (131) 
-3.67911

>  <r_i_glide_lipo>  (131) 
-0.612719

>  <r_i_glide_hbond>  (131) 
0

>  <r_i_glide_metal>  (131) 
-0

>  <r_i_glide_rewards>  (131) 
-2.12576

>  <r_i_glide_evdw>  (131) 
-20.3964

>  <r_i_glide_ecoul>  (131) 
0.717957

>  <r_i_glide_erotb>  (131) 
0

>  <r_i_glide_esite>  (131) 
-0.0285092

>  <r_i_glide_emodel>  (131) 
-24.8757

>  <r_i_glide_energy>  (131) 
-19.6785

>  <r_i_glide_einternal>  (131) 
0

>  <r_i_glide_intrahb_reward>  (131) 
-0

>  <i_i_glide_confnum>  (131) 
5

>  <i_i_glide_posenum>  (131) 
17

>  <r_i_glide_eff_state_penalty>  (131) 
0

>  <ligand_id>  (131) 
45

>  <original_smiles>  (131) 
C1=C2C3C4C1C1C4C3C1C21OCCO1

>  <smiles>  (131) 
[H]C1=C2C3(OC([H])([H])C([H])([H])O3)C3([H])C4([H])C1([H])C1([H])C2([H])C3([H])C14[H]

$$$$
45:0:2
     RDKit          3D

 26 31  0  0  1  0  0  0  0  0999 V2000
    3.3363   -3.0483   -0.0555 C   0  0  0  0  0  0  0  0  0  0  0  0
    4.3902   -3.4063   -0.8275 C   0  0  0  0  0  0  0  0  0  0  0  0
    5.7022   -3.2751   -0.0359 C   0  0  2  0  0  0  0  0  0  0  0  0
    5.2243   -2.5556    1.2342 C   0  0  2  0  0  0  0  0  0  0  0  0
    3.8381   -2.0075    0.9183 C   0  0  1  0  0  0  0  0  0  0  0  0
    4.5487   -0.8640    0.0772 C   0  0  1  0  0  0  0  0  0  0  0  0
    5.8474   -1.2535    0.7721 C   0  0  2  0  0  0  0  0  0  0  0  0
    6.3080   -1.9342   -0.4902 C   0  0  2  0  0  0  0  0  0  0  0  0
    5.2063   -1.2775   -1.3118 C   0  0  1  0  0  0  0  0  0  0  0  0
    4.5566   -2.4526   -2.0285 C   0  0  0  0  0  0  0  0  0  0  0  0
    3.3773   -2.0591   -2.6354 O   0  0  0  0  0  0  0  0  0  0  0  0
    3.2952   -2.8433   -3.8088 C   0  0  0  0  0  0  0  0  0  0  0  0
    4.5801   -3.6804   -3.8125 C   0  0  0  0  0  0  0  0  0  0  0  0
    5.4182   -2.9282   -2.9914 O   0  0  0  0  0  0  0  0  0  0  0  0
    2.4014   -2.8108   -0.5437 H   0  0  0  0  0  0  0  0  0  0  0  0
    6.3749   -4.1269    0.0849 H   0  0  0  0  0  0  0  0  0  0  0  0
    5.5007   -2.9061    2.2227 H   0  0  0  0  0  0  0  0  0  0  0  0
    3.2348   -1.6953    1.7750 H   0  0  0  0  0  0  0  0  0  0  0  0
    4.2615    0.1775    0.2435 H   0  0  0  0  0  0  0  0  0  0  0  0
    6.4725   -0.5867    1.3751 H   0  0  0  0  0  0  0  0  0  0  0  0
    7.3500   -1.8767   -0.7750 H   0  0  0  0  0  0  0  0  0  0  0  0
    5.5414   -0.4109   -1.8905 H   0  0  0  0  0  0  0  0  0  0  0  0
    2.3898   -3.4538   -3.8109 H   0  0  0  0  0  0  0  0  0  0  0  0
    3.2721   -2.1761   -4.6705 H   0  0  0  0  0  0  0  0  0  0  0  0
    4.4292   -4.6496   -3.3391 H   0  0  0  0  0  0  0  0  0  0  0  0
    5.0057   -3.8655   -4.7948 H   0  0  0  0  0  0  0  0  0  0  0  0
  1  5  1  0
  1  2  2  0
  1 15  1  0
  2 10  1  0
  2  3  1  0
  3  8  1  0
  3  4  1  0
  3 16  1  1
  4  7  1  0
  4  5  1  0
  4 17  1  1
  5  6  1  0
  5 18  1  1
  6  9  1  0
  6  7  1  0
  6 19  1  6
  7  8  1  0
  7 20  1  1
  8  9  1  0
  8 21  1  6
  9 10  1  0
  9 22  1  6
 10 14  1  0
 10 11  1  0
 11 12  1  0
 12 13  1  0
 12 23  1  0
 12 24  1  0
 13 14  1  0
 13 25  1  0
 13 26  1  0
M  END
>  <i_m_ct_stereo_status>  (132) 
1

>  <s_m_source_file>  (132) 
/var/tmp/pbs.5076255.sched01/tmp1pt1fpgk/39zsbf0m6x.sdf

>  <i_m_source_file_index>  (132) 
14

>  <i_lp_mmshare_version>  (132) 
48012

>  <i_f3d_flags>  (132) 
1

>  <s_epik_input>  (132) 
W0NAQEhdMTJbQ0BIXTNbQ0BIXTRbQ0BASF0xW0NAQEhdKFtDSF09NSlbQ0BIXTRbQ0BIXTNDNUMyNk9bQ0gyXVtDSDJdTzY=

>  <s_epik_cmdline>  (132) 
J2VwaWtfcHl0aG9uJywgJy1waHQnLCAnMi4wJywgJy1waCcsICc3LjAnLCAnLXRuJywgJzgnLCAnLW1hJywgJzIwMCcsICctaW1hZScsICc8aW5maWxlLm1hZT4nLCAnLW9tYWUnLCAnPG91dGZpbGUubWFlPic=

>  <r_lp_tautomer_probability>  (132) 
1

>  <r_epik_Ionization_Penalty>  (132) 
2.03915e-13

>  <r_epik_Ionization_Penalty_Charging>  (132) 
0

>  <r_epik_Ionization_Penalty_Neutral>  (132) 
2.03915e-13

>  <r_epik_State_Penalty>  (132) 
-0

>  <r_epik_Charging_Adjusted_Penalty>  (132) 
0

>  <i_epik_Tot_Q>  (132) 
0

>  <i_epik_Tot_abs_Q>  (132) 
0

>  <s_lp_Force_Field>  (132) 
OPLS3e

>  <r_lp_Energy>  (132) 
82.293

>  <b_lp_Chiralities_Consistent>  (132) 
1

>  <s_lp_Variant>  (132) 
45:0-1

>  <s_i_glide_gridfile>  (132) 
pfpi4k_grid

>  <i_i_glide_lignum>  (132) 
14

>  <i_i_glide_rotatable_bonds>  (132) 
0

>  <r_i_docking_score>  (132) 
-3.64773

>  <r_i_glide_ligand_efficiency>  (132) 
-0.260552

>  <r_i_glide_ligand_efficiency_sa>  (132) 
-0.627968

>  <r_i_glide_ligand_efficiency_ln>  (132) 
-1.00238

>  <r_i_glide_gscore>  (132) 
-3.64773

>  <r_i_glide_lipo>  (132) 
-0.470589

>  <r_i_glide_hbond>  (132) 
0

>  <r_i_glide_metal>  (132) 
-0

>  <r_i_glide_rewards>  (132) 
-2.14382

>  <r_i_glide_evdw>  (132) 
-21.4653

>  <r_i_glide_ecoul>  (132) 
0.266313

>  <r_i_glide_erotb>  (132) 
0

>  <r_i_glide_esite>  (132) 
0

>  <r_i_glide_emodel>  (132) 
-26.3196

>  <r_i_glide_energy>  (132) 
-21.199

>  <r_i_glide_einternal>  (132) 
0

>  <r_i_glide_intrahb_reward>  (132) 
-0

>  <i_i_glide_confnum>  (132) 
4

>  <i_i_glide_posenum>  (132) 
14

>  <r_i_glide_eff_state_penalty>  (132) 
0

>  <ligand_id>  (132) 
45

>  <original_smiles>  (132) 
C1=C2C3C4C1C1C4C3C1C21OCCO1

>  <smiles>  (132) 
[H]C1=C2C3(OC([H])([H])C([H])([H])O3)C3([H])C4([H])C1([H])C1([H])C2([H])C3([H])C14[H]

$$$$
46:0:0
     RDKit          3D

 13 14  0  0  1  0  0  0  0  0999 V2000
    3.8137   -1.8069   -4.3054 O   0  0  0  0  0  0  0  0  0  0  0  0
    3.1005   -2.2507   -3.4057 C   0  0  0  0  0  0  0  0  0  0  0  0
    3.6233   -2.9833   -2.2319 C   0  0  0  0  0  0  0  0  0  0  0  0
    5.0199   -3.1874   -2.0829 C   0  0  0  0  0  0  0  0  0  0  0  0
    5.5886   -3.8486   -1.0434 N   0  0  0  0  0  0  0  0  0  0  0  0
    4.6788   -4.3216   -0.1456 C   0  0  0  0  0  0  0  0  0  0  0  0
    4.8341   -5.0111    0.9763 N   0  0  0  0  0  0  0  0  0  0  0  0
    3.5516   -5.2031    1.4602 N   0  0  0  0  0  0  0  0  0  0  0  0
    2.6347   -4.6769    0.7049 N   0  0  0  0  0  0  0  0  0  0  0  0
    3.3078   -4.1017   -0.3223 N   0  0  0  0  0  0  0  0  0  0  0  0
    2.7300   -3.4471   -1.3269 N   0  0  0  0  0  0  0  0  0  0  0  0
    2.0166   -2.1351   -3.4258 H   0  0  0  0  0  0  0  0  0  0  0  0
    5.7136   -2.8091   -2.8202 H   0  0  0  0  0  0  0  0  0  0  0  0
  1  2  2  0
  2  3  1  0
  2 12  1  0
  3 11  2  0
  3  4  1  0
  4  5  2  0
  4 13  1  0
  5  6  1  0
  6 10  1  0
  6  7  2  0
  7  8  1  0
  8  9  2  0
  9 10  1  0
 10 11  1  0
M  END
>  <i_m_ct_stereo_status>  (133) 
1

>  <s_m_source_file>  (133) 
/var/tmp/pbs.5076255.sched01/tmp1pt1fpgk/39zsbf0m6x.sdf

>  <i_m_source_file_index>  (133) 
15

>  <i_lp_mmshare_version>  (133) 
48012

>  <i_f3d_flags>  (133) 
0

>  <s_epik_input>  (133) 
Tz1bQ0hdYyhbY0hdbjEpbm4oYzEyKW5ubjI=

>  <s_epik_cmdline>  (133) 
J2VwaWtfcHl0aG9uJywgJy1waHQnLCAnMi4wJywgJy1waCcsICc3LjAnLCAnLXRuJywgJzgnLCAnLW1hJywgJzIwMCcsICctaW1hZScsICc8aW5maWxlLm1hZT4nLCAnLW9tYWUnLCAnPG91dGZpbGUubWFlPic=

>  <r_lp_tautomer_probability>  (133) 
1

>  <r_epik_Ionization_Penalty>  (133) 
3.9599e-14

>  <r_epik_Ionization_Penalty_Charging>  (133) 
0

>  <r_epik_Ionization_Penalty_Neutral>  (133) 
3.9599e-14

>  <r_epik_State_Penalty>  (133) 
-0

>  <r_epik_Charging_Adjusted_Penalty>  (133) 
0

>  <i_epik_Tot_Q>  (133) 
0

>  <i_epik_Tot_abs_Q>  (133) 
0

>  <s_lp_Force_Field>  (133) 
OPLS3e

>  <r_lp_Energy>  (133) 
17.176

>  <b_lp_Chiralities_Consistent>  (133) 
1

>  <s_lp_Variant>  (133) 
46:0-1

>  <s_i_glide_gridfile>  (133) 
pfpi4k_grid

>  <i_i_glide_lignum>  (133) 
15

>  <i_i_glide_rotatable_bonds>  (133) 
1

>  <r_i_docking_score>  (133) 
-4.45029

>  <r_i_glide_ligand_efficiency>  (133) 
-0.404572

>  <r_i_glide_ligand_efficiency_sa>  (133) 
-0.899759

>  <r_i_glide_ligand_efficiency_ln>  (133) 
-1.30972

>  <r_i_glide_gscore>  (133) 
-4.45029

>  <r_i_glide_lipo>  (133) 
-0.110905

>  <r_i_glide_hbond>  (133) 
-0.32

>  <r_i_glide_metal>  (133) 
-0

>  <r_i_glide_rewards>  (133) 
-2.50438

>  <r_i_glide_evdw>  (133) 
-17.8597

>  <r_i_glide_ecoul>  (133) 
-3.78345

>  <r_i_glide_erotb>  (133) 
0

>  <r_i_glide_esite>  (133) 
-0.0545075

>  <r_i_glide_emodel>  (133) 
-28.9431

>  <r_i_glide_energy>  (133) 
-21.6431

>  <r_i_glide_einternal>  (133) 
0.0149281

>  <r_i_glide_intrahb_reward>  (133) 
-0

>  <i_i_glide_confnum>  (133) 
1

>  <i_i_glide_posenum>  (133) 
4

>  <r_i_glide_eff_state_penalty>  (133) 
0

>  <ligand_id>  (133) 
46

>  <original_smiles>  (133) 
O=Cc1cnc2nnnn2n1

>  <smiles>  (133) 
[H]C(=O)c1nn2nnnc2nc1[H]

$$$$
46:0:1
     RDKit          3D

 13 14  0  0  1  0  0  0  0  0999 V2000
    4.6073   -8.6484    0.9804 O   0  0  0  0  0  0  0  0  0  0  0  0
    3.9762   -9.4427    1.6805 C   0  0  0  0  0  0  0  0  0  0  0  0
    2.5632   -9.2716    2.0839 C   0  0  0  0  0  0  0  0  0  0  0  0
    1.9308  -10.2793    2.8533 C   0  0  0  0  0  0  0  0  0  0  0  0
    0.6380  -10.2295    3.2647 N   0  0  0  0  0  0  0  0  0  0  0  0
   -0.0087   -9.0955    2.8793 C   0  0  0  0  0  0  0  0  0  0  0  0
   -1.2474   -8.6719    3.0974 N   0  0  0  0  0  0  0  0  0  0  0  0
   -1.3141   -7.4345    2.4888 N   0  0  0  0  0  0  0  0  0  0  0  0
   -0.2088   -7.0858    1.8998 N   0  0  0  0  0  0  0  0  0  0  0  0
    0.6493   -8.1119    2.1263 N   0  0  0  0  0  0  0  0  0  0  0  0
    1.9123   -8.1449    1.7015 N   0  0  0  0  0  0  0  0  0  0  0  0
    4.4424  -10.3494    2.0617 H   0  0  0  0  0  0  0  0  0  0  0  0
    2.4677  -11.1747    3.1338 H   0  0  0  0  0  0  0  0  0  0  0  0
  1  2  2  0
  2  3  1  0
  2 12  1  0
  3 11  2  0
  3  4  1  0
  4  5  2  0
  4 13  1  0
  5  6  1  0
  6 10  1  0
  6  7  2  0
  7  8  1  0
  8  9  2  0
  9 10  1  0
 10 11  1  0
M  END
>  <i_m_ct_stereo_status>  (134) 
1

>  <s_m_source_file>  (134) 
/var/tmp/pbs.5076255.sched01/tmp1pt1fpgk/39zsbf0m6x.sdf

>  <i_m_source_file_index>  (134) 
15

>  <i_lp_mmshare_version>  (134) 
48012

>  <i_f3d_flags>  (134) 
0

>  <s_epik_input>  (134) 
Tz1bQ0hdYyhbY0hdbjEpbm4oYzEyKW5ubjI=

>  <s_epik_cmdline>  (134) 
J2VwaWtfcHl0aG9uJywgJy1waHQnLCAnMi4wJywgJy1waCcsICc3LjAnLCAnLXRuJywgJzgnLCAnLW1hJywgJzIwMCcsICctaW1hZScsICc8aW5maWxlLm1hZT4nLCAnLW9tYWUnLCAnPG91dGZpbGUubWFlPic=

>  <r_lp_tautomer_probability>  (134) 
1

>  <r_epik_Ionization_Penalty>  (134) 
3.9599e-14

>  <r_epik_Ionization_Penalty_Charging>  (134) 
0

>  <r_epik_Ionization_Penalty_Neutral>  (134) 
3.9599e-14

>  <r_epik_State_Penalty>  (134) 
-0

>  <r_epik_Charging_Adjusted_Penalty>  (134) 
0

>  <i_epik_Tot_Q>  (134) 
0

>  <i_epik_Tot_abs_Q>  (134) 
0

>  <s_lp_Force_Field>  (134) 
OPLS3e

>  <r_lp_Energy>  (134) 
17.176

>  <b_lp_Chiralities_Consistent>  (134) 
1

>  <s_lp_Variant>  (134) 
46:0-1

>  <s_i_glide_gridfile>  (134) 
pfpi4k_grid

>  <i_i_glide_lignum>  (134) 
15

>  <i_i_glide_rotatable_bonds>  (134) 
1

>  <r_i_docking_score>  (134) 
-4.22006

>  <r_i_glide_ligand_efficiency>  (134) 
-0.383642

>  <r_i_glide_ligand_efficiency_sa>  (134) 
-0.853212

>  <r_i_glide_ligand_efficiency_ln>  (134) 
-1.24196

>  <r_i_glide_gscore>  (134) 
-4.22006

>  <r_i_glide_lipo>  (134) 
-0.0806628

>  <r_i_glide_hbond>  (134) 
0

>  <r_i_glide_metal>  (134) 
-0

>  <r_i_glide_rewards>  (134) 
-2.25

>  <r_i_glide_evdw>  (134) 
-19.2722

>  <r_i_glide_ecoul>  (134) 
-3.65615

>  <r_i_glide_erotb>  (134) 
0

>  <r_i_glide_esite>  (134) 
-0.377368

>  <r_i_glide_emodel>  (134) 
-29.8503

>  <r_i_glide_energy>  (134) 
-22.9283

>  <r_i_glide_einternal>  (134) 
0.0111207

>  <r_i_glide_intrahb_reward>  (134) 
-0

>  <i_i_glide_confnum>  (134) 
2

>  <i_i_glide_posenum>  (134) 
9

>  <r_i_glide_eff_state_penalty>  (134) 
0

>  <ligand_id>  (134) 
46

>  <original_smiles>  (134) 
O=Cc1cnc2nnnn2n1

>  <smiles>  (134) 
[H]C(=O)c1nn2nnnc2nc1[H]

$$$$
46:0:2
     RDKit          3D

 13 14  0  0  1  0  0  0  0  0999 V2000
   -2.1762   -7.8333    2.8805 O   0  0  0  0  0  0  0  0  0  0  0  0
   -1.2648   -8.6615    2.9052 C   0  0  0  0  0  0  0  0  0  0  0  0
    0.1253   -8.3882    2.4807 C   0  0  0  0  0  0  0  0  0  0  0  0
    1.1112   -9.4007    2.6107 C   0  0  0  0  0  0  0  0  0  0  0  0
    2.4104   -9.2526    2.2481 N   0  0  0  0  0  0  0  0  0  0  0  0
    2.6938   -8.0232    1.7353 C   0  0  0  0  0  0  0  0  0  0  0  0
    3.8221   -7.4972    1.2806 N   0  0  0  0  0  0  0  0  0  0  0  0
    3.4898   -6.2127    0.8878 N   0  0  0  0  0  0  0  0  0  0  0  0
    2.2358   -5.9264    1.0781 N   0  0  0  0  0  0  0  0  0  0  0  0
    1.6943   -7.0464    1.6162 N   0  0  0  0  0  0  0  0  0  0  0  0
    0.4136   -7.1664    1.9658 N   0  0  0  0  0  0  0  0  0  0  0  0
   -1.4319   -9.6793    3.2542 H   0  0  0  0  0  0  0  0  0  0  0  0
    0.8517  -10.3675    3.0188 H   0  0  0  0  0  0  0  0  0  0  0  0
  1  2  2  0
  2  3  1  0
  2 12  1  0
  3 11  2  0
  3  4  1  0
  4  5  2  0
  4 13  1  0
  5  6  1  0
  6 10  1  0
  6  7  2  0
  7  8  1  0
  8  9  2  0
  9 10  1  0
 10 11  1  0
M  END
>  <i_m_ct_stereo_status>  (135) 
1

>  <s_m_source_file>  (135) 
/var/tmp/pbs.5076255.sched01/tmp1pt1fpgk/39zsbf0m6x.sdf

>  <i_m_source_file_index>  (135) 
15

>  <i_lp_mmshare_version>  (135) 
48012

>  <i_f3d_flags>  (135) 
0

>  <s_epik_input>  (135) 
Tz1bQ0hdYyhbY0hdbjEpbm4oYzEyKW5ubjI=

>  <s_epik_cmdline>  (135) 
J2VwaWtfcHl0aG9uJywgJy1waHQnLCAnMi4wJywgJy1waCcsICc3LjAnLCAnLXRuJywgJzgnLCAnLW1hJywgJzIwMCcsICctaW1hZScsICc8aW5maWxlLm1hZT4nLCAnLW9tYWUnLCAnPG91dGZpbGUubWFlPic=

>  <r_lp_tautomer_probability>  (135) 
1

>  <r_epik_Ionization_Penalty>  (135) 
3.9599e-14

>  <r_epik_Ionization_Penalty_Charging>  (135) 
0

>  <r_epik_Ionization_Penalty_Neutral>  (135) 
3.9599e-14

>  <r_epik_State_Penalty>  (135) 
-0

>  <r_epik_Charging_Adjusted_Penalty>  (135) 
0

>  <i_epik_Tot_Q>  (135) 
0

>  <i_epik_Tot_abs_Q>  (135) 
0

>  <s_lp_Force_Field>  (135) 
OPLS3e

>  <r_lp_Energy>  (135) 
17.176

>  <b_lp_Chiralities_Consistent>  (135) 
1

>  <s_lp_Variant>  (135) 
46:0-1

>  <s_i_glide_gridfile>  (135) 
pfpi4k_grid

>  <i_i_glide_lignum>  (135) 
15

>  <i_i_glide_rotatable_bonds>  (135) 
1

>  <r_i_docking_score>  (135) 
-3.77764

>  <r_i_glide_ligand_efficiency>  (135) 
-0.343422

>  <r_i_glide_ligand_efficiency_sa>  (135) 
-0.763764

>  <r_i_glide_ligand_efficiency_ln>  (135) 
-1.11176

>  <r_i_glide_gscore>  (135) 
-3.77764

>  <r_i_glide_lipo>  (135) 
-0.0643056

>  <r_i_glide_hbond>  (135) 
0

>  <r_i_glide_metal>  (135) 
-0

>  <r_i_glide_rewards>  (135) 
-2.25

>  <r_i_glide_evdw>  (135) 
-18.6071

>  <r_i_glide_ecoul>  (135) 
-2.84276

>  <r_i_glide_erotb>  (135) 
0

>  <r_i_glide_esite>  (135) 
-0.106568

>  <r_i_glide_emodel>  (135) 
-27.6426

>  <r_i_glide_energy>  (135) 
-21.4498

>  <r_i_glide_einternal>  (135) 
0.0140832

>  <r_i_glide_intrahb_reward>  (135) 
-0

>  <i_i_glide_confnum>  (135) 
2

>  <i_i_glide_posenum>  (135) 
10

>  <r_i_glide_eff_state_penalty>  (135) 
0

>  <ligand_id>  (135) 
46

>  <original_smiles>  (135) 
O=Cc1cnc2nnnn2n1

>  <smiles>  (135) 
[H]C(=O)c1nn2nnnc2nc1[H]

$$$$
47:0:0
     RDKit          3D

 47 50  0  0  1  0  0  0  0  0999 V2000
   -5.4246   -8.6371   -6.3355 O   0  0  0  0  0  0  0  0  0  0  0  0
   -6.5955   -8.2580   -6.1616 C   0  0  0  0  0  0  0  0  0  0  0  0
   -6.9833   -7.1387   -5.2295 C   0  0  0  0  0  0  0  0  0  0  0  0
   -5.7563   -5.8237   -4.9894 S   0  0  0  0  0  0  0  0  0  0  0  0
   -6.7584   -4.4161   -4.3517 C   0  0  0  0  0  0  0  0  0  0  0  0
   -7.8784   -3.8895   -5.2722 C   0  0  0  0  0  0  0  0  0  0  0  0
   -9.0978   -4.7024   -5.6160 C   0  0  0  0  0  0  0  0  0  0  0  0
   -8.0818   -4.3873   -6.6850 C   0  0  0  0  0  0  0  0  0  0  0  0
   -7.7777   -8.8883   -6.9544 C   0  0  2  0  0  0  0  0  0  0  0  0
   -7.8673  -10.4026   -6.7114 C   0  0  1  0  0  0  0  0  0  0  0  0
   -9.2878  -10.9737   -6.5949 C   0  0  0  0  0  0  0  0  0  0  0  0
   -9.2374  -12.2965   -7.3626 C   0  0  0  0  0  0  0  0  0  0  0  0
   -8.2800  -12.0103   -8.5179 C   0  0  0  0  0  0  0  0  0  0  0  0
   -7.2305  -11.0538   -7.9391 C   0  0  1  0  0  0  0  0  0  0  0  0
   -6.8537   -9.8980   -8.8744 C   0  0  0  0  0  0  0  0  0  0  0  0
   -7.6156   -8.7328   -8.4137 N   0  0  0  0  0  0  0  0  0  0  0  0
   -8.9333   -8.1484   -9.4075 S   0  0  0  0  0  0  0  0  0  0  0  0
   -8.3361   -7.5120  -10.6020 O   0  0  0  0  0  0  0  0  0  0  0  0
   -9.8974   -9.2562   -9.5908 O   0  0  0  0  0  0  0  0  0  0  0  0
   -9.7198   -6.8350   -8.3704 C   0  0  0  0  0  0  0  0  0  0  0  0
  -11.2123   -6.9907   -8.1361 C   0  0  0  0  0  0  0  0  0  0  0  0
  -10.6970   -5.9048   -9.0661 C   0  0  0  0  0  0  0  0  0  0  0  0
   -7.8210   -6.7719   -5.7684 H   0  0  0  0  0  0  0  0  0  0  0  0
   -7.3603   -7.4889   -4.2646 H   0  0  0  0  0  0  0  0  0  0  0  0
   -7.1716   -4.6750   -3.3807 H   0  0  0  0  0  0  0  0  0  0  0  0
   -6.0705   -3.5810   -4.1672 H   0  0  0  0  0  0  0  0  0  0  0  0
   -8.1365   -2.8542   -5.0834 H   0  0  0  0  0  0  0  0  0  0  0  0
   -9.1350   -5.6861   -5.1872 H   0  0  0  0  0  0  0  0  0  0  0  0
  -10.0764   -4.1889   -5.7281 H   0  0  0  0  0  0  0  0  0  0  0  0
   -8.3796   -3.6980   -7.4582 H   0  0  0  0  0  0  0  0  0  0  0  0
   -7.3862   -5.1639   -7.0240 H   0  0  0  0  0  0  0  0  0  0  0  0
   -8.7402   -8.4567   -6.6993 H   0  0  0  0  0  0  0  0  0  0  0  0
   -7.3108  -10.6781   -5.8177 H   0  0  0  0  0  0  0  0  0  0  0  0
   -9.6028  -11.1041   -5.5557 H   0  0  0  0  0  0  0  0  0  0  0  0
  -10.0112  -10.3175   -7.0729 H   0  0  0  0  0  0  0  0  0  0  0  0
   -8.8120  -13.0848   -6.7779 H   0  0  0  0  0  0  0  0  0  0  0  0
  -10.2329  -12.6130   -7.6975 H   0  0  0  0  0  0  0  0  0  0  0  0
   -7.8399  -12.9264   -8.9082 H   0  0  0  0  0  0  0  0  0  0  0  0
   -8.8305  -11.5392   -9.3251 H   0  0  0  0  0  0  0  0  0  0  0  0
   -6.3432  -11.6135   -7.6411 H   0  0  0  0  0  0  0  0  0  0  0  0
   -5.8024   -9.6577   -8.7347 H   0  0  0  0  0  0  0  0  0  0  0  0
   -7.0374  -10.1148   -9.9247 H   0  0  0  0  0  0  0  0  0  0  0  0
   -9.0823   -6.4716   -7.5871 H   0  0  0  0  0  0  0  0  0  0  0  0
  -11.7434   -7.8196   -8.5901 H   0  0  0  0  0  0  0  0  0  0  0  0
  -11.5867   -6.6703   -7.1706 H   0  0  0  0  0  0  0  0  0  0  0  0
  -10.7459   -4.8903   -8.6839 H   0  0  0  0  0  0  0  0  0  0  0  0
  -10.8767   -6.0269  -10.1301 H   0  0  0  0  0  0  0  0  0  0  0  0
  1  2  2  0
  2  3  1  0
  2  9  1  0
  3  4  1  0
  3 23  1  0
  3 24  1  0
  4  5  1  0
  5  6  1  0
  5 25  1  0
  5 26  1  0
  6  8  1  0
  6  7  1  0
  6 27  1  0
  7  8  1  0
  7 28  1  0
  7 29  1  0
  8 30  1  0
  8 31  1  0
  9 16  1  0
  9 10  1  0
  9 32  1  1
 10 14  1  0
 10 11  1  0
 10 33  1  1
 11 12  1  0
 11 34  1  0
 11 35  1  0
 12 13  1  0
 12 36  1  0
 12 37  1  0
 13 14  1  0
 13 38  1  0
 13 39  1  0
 14 15  1  0
 14 40  1  1
 15 16  1  0
 15 41  1  0
 15 42  1  0
 16 17  1  0
 17 18  2  0
 17 19  2  0
 17 20  1  0
 20 22  1  0
 20 21  1  0
 20 43  1  0
 21 22  1  0
 21 44  1  0
 21 45  1  0
 22 46  1  0
 22 47  1  0
M  END
>  <i_m_ct_stereo_status>  (136) 
1

>  <s_m_source_file>  (136) 
/var/tmp/pbs.5076255.sched01/tmp1pt1fpgk/39zsbf0m6x.sdf

>  <i_m_source_file_index>  (136) 
16

>  <i_lp_mmshare_version>  (136) 
48012

>  <i_f3d_flags>  (136) 
0

>  <s_epik_input>  (136) 
W0NIMl0xW0NIMl1bQ0hdMVtDSDJdU1tDSDJdQyg9TylbQ0BIXTJOKFMoPU8pKD1PKVtDSF0zW0NIMl1bQ0gyXTMpW0NIMl1bQ0BASF0oW0NAQEhdMjQpW0NIMl1bQ0gyXVtDSDJdNA==

>  <s_epik_cmdline>  (136) 
J2VwaWtfcHl0aG9uJywgJy1waHQnLCAnMi4wJywgJy1waCcsICc3LjAnLCAnLXRuJywgJzgnLCAnLW1hJywgJzIwMCcsICctaW1hZScsICc8aW5maWxlLm1hZT4nLCAnLW9tYWUnLCAnPG91dGZpbGUubWFlPic=

>  <r_lp_tautomer_probability>  (136) 
1

>  <r_epik_Ionization_Penalty>  (136) 
5.0312e-10

>  <r_epik_Ionization_Penalty_Charging>  (136) 
0

>  <r_epik_Ionization_Penalty_Neutral>  (136) 
5.0312e-10

>  <r_epik_State_Penalty>  (136) 
-0

>  <r_epik_Charging_Adjusted_Penalty>  (136) 
0

>  <i_epik_Tot_Q>  (136) 
0

>  <i_epik_Tot_abs_Q>  (136) 
0

>  <s_lp_Force_Field>  (136) 
OPLS3e

>  <r_lp_Energy>  (136) 
28.4827

>  <b_lp_Chiralities_Consistent>  (136) 
1

>  <s_lp_Variant>  (136) 
47:0-1

>  <s_i_glide_gridfile>  (136) 
pfpi4k_grid

>  <i_i_glide_lignum>  (136) 
16

>  <i_i_glide_rotatable_bonds>  (136) 
7

>  <r_i_docking_score>  (136) 
-4.63214

>  <r_i_glide_ligand_efficiency>  (136) 
-0.210552

>  <r_i_glide_ligand_efficiency_sa>  (136) 
-0.589974

>  <r_i_glide_ligand_efficiency_ln>  (136) 
-1.13226

>  <r_i_glide_gscore>  (136) 
-4.63214

>  <r_i_glide_lipo>  (136) 
-2.2178

>  <r_i_glide_hbond>  (136) 
0

>  <r_i_glide_metal>  (136) 
-0

>  <r_i_glide_rewards>  (136) 
-1.94356

>  <r_i_glide_evdw>  (136) 
-28.2764

>  <r_i_glide_ecoul>  (136) 
-0.145705

>  <r_i_glide_erotb>  (136) 
0.9649

>  <r_i_glide_esite>  (136) 
0

>  <r_i_glide_emodel>  (136) 
-26.0795

>  <r_i_glide_energy>  (136) 
-28.4221

>  <r_i_glide_einternal>  (136) 
15.4157

>  <r_i_glide_intrahb_reward>  (136) 
-0

>  <i_i_glide_confnum>  (136) 
6

>  <i_i_glide_posenum>  (136) 
40

>  <r_i_glide_eff_state_penalty>  (136) 
0

>  <ligand_id>  (136) 
47

>  <original_smiles>  (136) 
O=C(CSCC1CC1)C1C2CCCC2CN1S(=O)(=O)C1CC1

>  <smiles>  (136) 
[H]C([H])(SC([H])([H])C1([H])C([H])([H])C1([H])[H])C(=O)C1([H])N(S(=O)(=O)C2([H])C([H])([H])C2([H])[H])C([H])([H])C2([H])C([H])([H])C([H])([H])C([H])([H])C12[H]

$$$$
47:0:1
     RDKit          3D

 47 50  0  0  1  0  0  0  0  0999 V2000
    1.4295   -5.4746   -0.1094 O   0  0  0  0  0  0  0  0  0  0  0  0
    2.5031   -5.4617    0.4974 C   0  0  0  0  0  0  0  0  0  0  0  0
    3.7387   -4.7520   -0.0574 C   0  0  0  0  0  0  0  0  0  0  0  0
    3.3162   -3.0370   -0.4828 S   0  0  0  0  0  0  0  0  0  0  0  0
    2.4573   -3.2571   -2.0732 C   0  0  0  0  0  0  0  0  0  0  0  0
    3.2996   -2.9474   -3.3030 C   0  0  0  0  0  0  0  0  0  0  0  0
    4.4761   -3.8263   -3.6683 C   0  0  0  0  0  0  0  0  0  0  0  0
    4.7121   -2.3986   -3.2452 C   0  0  0  0  0  0  0  0  0  0  0  0
    2.6487   -6.1556    1.8527 C   0  0  2  0  0  0  0  0  0  0  0  0
    3.3164   -7.5383    1.6918 C   0  0  1  0  0  0  0  0  0  0  0  0
    4.3254   -7.8888    2.7931 C   0  0  0  0  0  0  0  0  0  0  0  0
    4.0581   -9.3552    3.1185 C   0  0  0  0  0  0  0  0  0  0  0  0
    2.5500   -9.5032    2.9577 C   0  0  0  0  0  0  0  0  0  0  0  0
    2.1828   -8.5693    1.8000 C   0  0  1  0  0  0  0  0  0  0  0  0
    0.8956   -7.7633    2.0199 C   0  0  0  0  0  0  0  0  0  0  0  0
    1.3304   -6.4330    2.4585 N   0  0  0  0  0  0  0  0  0  0  0  0
    1.0557   -5.9379    4.0949 S   0  0  0  0  0  0  0  0  0  0  0  0
   -0.3564   -6.2294    4.3983 O   0  0  0  0  0  0  0  0  0  0  0  0
    2.1134   -6.5180    4.9342 O   0  0  0  0  0  0  0  0  0  0  0  0
    1.2628   -4.0912    4.0148 C   0  0  0  0  0  0  0  0  0  0  0  0
    2.6527   -3.5958    4.3408 C   0  0  0  0  0  0  0  0  0  0  0  0
    1.5413   -3.4224    5.3443 C   0  0  0  0  0  0  0  0  0  0  0  0
    4.5308   -4.7467    0.6954 H   0  0  0  0  0  0  0  0  0  0  0  0
    4.1374   -5.2696   -0.9270 H   0  0  0  0  0  0  0  0  0  0  0  0
    2.0298   -4.2515   -2.1712 H   0  0  0  0  0  0  0  0  0  0  0  0
    1.5884   -2.6094   -2.0877 H   0  0  0  0  0  0  0  0  0  0  0  0
    2.6859   -2.6358   -4.1465 H   0  0  0  0  0  0  0  0  0  0  0  0
    4.7250   -4.6267   -2.9783 H   0  0  0  0  0  0  0  0  0  0  0  0
    4.6175   -4.0680   -4.7177 H   0  0  0  0  0  0  0  0  0  0  0  0
    4.9801   -1.6811   -4.0166 H   0  0  0  0  0  0  0  0  0  0  0  0
    5.1751   -2.2304   -2.2759 H   0  0  0  0  0  0  0  0  0  0  0  0
    3.2428   -5.5031    2.4976 H   0  0  0  0  0  0  0  0  0  0  0  0
    3.8083   -7.6481    0.7245 H   0  0  0  0  0  0  0  0  0  0  0  0
    5.3541   -7.7072    2.4848 H   0  0  0  0  0  0  0  0  0  0  0  0
    4.1440   -7.2882    3.6830 H   0  0  0  0  0  0  0  0  0  0  0  0
    4.5752   -9.9977    2.4038 H   0  0  0  0  0  0  0  0  0  0  0  0
    4.3917   -9.6226    4.1197 H   0  0  0  0  0  0  0  0  0  0  0  0
    2.2522  -10.5336    2.7637 H   0  0  0  0  0  0  0  0  0  0  0  0
    2.0512   -9.1775    3.8698 H   0  0  0  0  0  0  0  0  0  0  0  0
    2.1119   -9.1543    0.8812 H   0  0  0  0  0  0  0  0  0  0  0  0
    0.3705   -7.6525    1.0680 H   0  0  0  0  0  0  0  0  0  0  0  0
    0.2036   -8.2224    2.7267 H   0  0  0  0  0  0  0  0  0  0  0  0
    0.6389   -3.6043    3.2691 H   0  0  0  0  0  0  0  0  0  0  0  0
    3.4260   -4.3212    4.5851 H   0  0  0  0  0  0  0  0  0  0  0  0
    2.9963   -2.7090    3.8101 H   0  0  0  0  0  0  0  0  0  0  0  0
    1.1740   -2.4064    5.4894 H   0  0  0  0  0  0  0  0  0  0  0  0
    1.5966   -4.0322    6.2447 H   0  0  0  0  0  0  0  0  0  0  0  0
  1  2  2  0
  2  3  1  0
  2  9  1  0
  3  4  1  0
  3 23  1  0
  3 24  1  0
  4  5  1  0
  5  6  1  0
  5 25  1  0
  5 26  1  0
  6  8  1  0
  6  7  1  0
  6 27  1  0
  7  8  1  0
  7 28  1  0
  7 29  1  0
  8 30  1  0
  8 31  1  0
  9 16  1  0
  9 10  1  0
  9 32  1  1
 10 14  1  0
 10 11  1  0
 10 33  1  6
 11 12  1  0
 11 34  1  0
 11 35  1  0
 12 13  1  0
 12 36  1  0
 12 37  1  0
 13 14  1  0
 13 38  1  0
 13 39  1  0
 14 15  1  0
 14 40  1  6
 15 16  1  0
 15 41  1  0
 15 42  1  0
 16 17  1  0
 17 18  2  0
 17 19  2  0
 17 20  1  0
 20 22  1  0
 20 21  1  0
 20 43  1  0
 21 22  1  0
 21 44  1  0
 21 45  1  0
 22 46  1  0
 22 47  1  0
M  END
>  <i_m_ct_stereo_status>  (137) 
1

>  <s_m_source_file>  (137) 
/var/tmp/pbs.5076255.sched01/tmp1pt1fpgk/39zsbf0m6x.sdf

>  <i_m_source_file_index>  (137) 
16

>  <i_lp_mmshare_version>  (137) 
48012

>  <i_f3d_flags>  (137) 
0

>  <s_epik_input>  (137) 
W0NIMl0xW0NIMl1bQ0hdMVtDSDJdU1tDSDJdQyg9TylbQ0BIXTJOKFMoPU8pKD1PKVtDSF0zW0NIMl1bQ0gyXTMpW0NIMl1bQ0BASF0oW0NAQEhdMjQpW0NIMl1bQ0gyXVtDSDJdNA==

>  <s_epik_cmdline>  (137) 
J2VwaWtfcHl0aG9uJywgJy1waHQnLCAnMi4wJywgJy1waCcsICc3LjAnLCAnLXRuJywgJzgnLCAnLW1hJywgJzIwMCcsICctaW1hZScsICc8aW5maWxlLm1hZT4nLCAnLW9tYWUnLCAnPG91dGZpbGUubWFlPic=

>  <r_lp_tautomer_probability>  (137) 
1

>  <r_epik_Ionization_Penalty>  (137) 
5.0312e-10

>  <r_epik_Ionization_Penalty_Charging>  (137) 
0

>  <r_epik_Ionization_Penalty_Neutral>  (137) 
5.0312e-10

>  <r_epik_State_Penalty>  (137) 
-0

>  <r_epik_Charging_Adjusted_Penalty>  (137) 
0

>  <i_epik_Tot_Q>  (137) 
0

>  <i_epik_Tot_abs_Q>  (137) 
0

>  <s_lp_Force_Field>  (137) 
OPLS3e

>  <r_lp_Energy>  (137) 
28.4827

>  <b_lp_Chiralities_Consistent>  (137) 
1

>  <s_lp_Variant>  (137) 
47:0-1

>  <s_i_glide_gridfile>  (137) 
pfpi4k_grid

>  <i_i_glide_lignum>  (137) 
16

>  <i_i_glide_rotatable_bonds>  (137) 
7

>  <r_i_docking_score>  (137) 
-2.67032

>  <r_i_glide_ligand_efficiency>  (137) 
-0.121378

>  <r_i_glide_ligand_efficiency_sa>  (137) 
-0.340106

>  <r_i_glide_ligand_efficiency_ln>  (137) 
-0.652723

>  <r_i_glide_gscore>  (137) 
-2.67032

>  <r_i_glide_lipo>  (137) 
-0.366138

>  <r_i_glide_hbond>  (137) 
-0.160358

>  <r_i_glide_metal>  (137) 
-0

>  <r_i_glide_rewards>  (137) 
-1.067

>  <r_i_glide_evdw>  (137) 
-21.6915

>  <r_i_glide_ecoul>  (137) 
-5.51485

>  <r_i_glide_erotb>  (137) 
0.9649

>  <r_i_glide_esite>  (137) 
-0.129918

>  <r_i_glide_emodel>  (137) 
-26.2883

>  <r_i_glide_energy>  (137) 
-27.2063

>  <r_i_glide_einternal>  (137) 
11.6632

>  <r_i_glide_intrahb_reward>  (137) 
-0

>  <i_i_glide_confnum>  (137) 
2

>  <i_i_glide_posenum>  (137) 
14

>  <r_i_glide_eff_state_penalty>  (137) 
0

>  <ligand_id>  (137) 
47

>  <original_smiles>  (137) 
O=C(CSCC1CC1)C1C2CCCC2CN1S(=O)(=O)C1CC1

>  <smiles>  (137) 
[H]C([H])(SC([H])([H])C1([H])C([H])([H])C1([H])[H])C(=O)C1([H])N(S(=O)(=O)C2([H])C([H])([H])C2([H])[H])C([H])([H])C2([H])C([H])([H])C([H])([H])C([H])([H])C12[H]

$$$$
47:0:2
     RDKit          3D

 47 50  0  0  1  0  0  0  0  0999 V2000
    2.0724   -3.7917   -0.8979 O   0  0  0  0  0  0  0  0  0  0  0  0
    3.1100   -4.0960   -0.3127 C   0  0  0  0  0  0  0  0  0  0  0  0
    3.2523   -5.4495    0.4065 C   0  0  0  0  0  0  0  0  0  0  0  0
    1.7204   -6.1118    1.1199 S   0  0  0  0  0  0  0  0  0  0  0  0
    2.4178   -7.3333    2.2747 C   0  0  0  0  0  0  0  0  0  0  0  0
    2.7443   -8.6214    1.5658 C   0  0  0  0  0  0  0  0  0  0  0  0
    3.6376   -9.6487    2.2184 C   0  0  0  0  0  0  0  0  0  0  0  0
    4.1270   -8.8896    1.0112 C   0  0  0  0  0  0  0  0  0  0  0  0
    4.2986   -3.1112   -0.2800 C   0  0  2  0  0  0  0  0  0  0  0  0
    5.5729   -3.6948   -0.9318 C   0  0  1  0  0  0  0  0  0  0  0  0
    6.3624   -2.7431   -1.8604 C   0  0  0  0  0  0  0  0  0  0  0  0
    7.8359   -2.9907   -1.5279 C   0  0  0  0  0  0  0  0  0  0  0  0
    7.8258   -3.2976   -0.0392 C   0  0  0  0  0  0  0  0  0  0  0  0
    6.5164   -4.0281    0.2235 C   0  0  1  0  0  0  0  0  0  0  0  0
    5.8326   -3.5299    1.5190 C   0  0  0  0  0  0  0  0  0  0  0  0
    4.6874   -2.7074    1.0828 N   0  0  0  0  0  0  0  0  0  0  0  0
    4.8098   -1.0155    1.4418 S   0  0  0  0  0  0  0  0  0  0  0  0
    5.0694   -0.8761    2.8781 O   0  0  0  0  0  0  0  0  0  0  0  0
    5.7535   -0.4431    0.4849 O   0  0  0  0  0  0  0  0  0  0  0  0
    3.1134   -0.3527    1.0854 C   0  0  0  0  0  0  0  0  0  0  0  0
    2.7527    0.8837    1.8769 C   0  0  0  0  0  0  0  0  0  0  0  0
    2.1550   -0.4410    2.2399 C   0  0  0  0  0  0  0  0  0  0  0  0
    3.7078   -6.1916   -0.2567 H   0  0  0  0  0  0  0  0  0  0  0  0
    3.9062   -5.3387    1.2777 H   0  0  0  0  0  0  0  0  0  0  0  0
    3.3014   -6.9487    2.7803 H   0  0  0  0  0  0  0  0  0  0  0  0
    1.6924   -7.5543    3.0595 H   0  0  0  0  0  0  0  0  0  0  0  0
    1.9026   -9.0230    0.9959 H   0  0  0  0  0  0  0  0  0  0  0  0
    4.0661   -9.4028    3.1892 H   0  0  0  0  0  0  0  0  0  0  0  0
    3.3818  -10.6957    2.0760 H   0  0  0  0  0  0  0  0  0  0  0  0
    4.1980   -9.4532    0.0843 H   0  0  0  0  0  0  0  0  0  0  0  0
    4.8955   -8.1283    1.1565 H   0  0  0  0  0  0  0  0  0  0  0  0
    3.9743   -2.2382   -0.8485 H   0  0  0  0  0  0  0  0  0  0  0  0
    5.3463   -4.5867   -1.5077 H   0  0  0  0  0  0  0  0  0  0  0  0
    6.1477   -2.9069   -2.9202 H   0  0  0  0  0  0  0  0  0  0  0  0
    6.1069   -1.7029   -1.6471 H   0  0  0  0  0  0  0  0  0  0  0  0
    8.2112   -3.8516   -2.0949 H   0  0  0  0  0  0  0  0  0  0  0  0
    8.4873   -2.1518   -1.7736 H   0  0  0  0  0  0  0  0  0  0  0  0
    8.6927   -3.8681    0.2821 H   0  0  0  0  0  0  0  0  0  0  0  0
    7.8336   -2.3559    0.5085 H   0  0  0  0  0  0  0  0  0  0  0  0
    6.6771   -5.0983    0.2662 H   0  0  0  0  0  0  0  0  0  0  0  0
    5.4684   -4.3844    2.1239 H   0  0  0  0  0  0  0  0  0  0  0  0
    6.5129   -2.9463    2.1576 H   0  0  0  0  0  0  0  0  0  0  0  0
    2.7810   -0.4660    0.0589 H   0  0  0  0  0  0  0  0  0  0  0  0
    3.4748    1.3109    2.5757 H   0  0  0  0  0  0  0  0  0  0  0  0
    2.0897    1.6118    1.3963 H   0  0  0  0  0  0  0  0  0  0  0  0
    1.1022   -0.6007    1.9930 H   0  0  0  0  0  0  0  0  0  0  0  0
    2.4870   -0.9004    3.1714 H   0  0  0  0  0  0  0  0  0  0  0  0
  1  2  2  0
  2  3  1  0
  2  9  1  0
  3  4  1  0
  3 23  1  0
  3 24  1  0
  4  5  1  0
  5  6  1  0
  5 25  1  0
  5 26  1  0
  6  8  1  0
  6  7  1  0
  6 27  1  0
  7  8  1  0
  7 28  1  0
  7 29  1  0
  8 30  1  0
  8 31  1  0
  9 16  1  0
  9 10  1  0
  9 32  1  6
 10 14  1  0
 10 11  1  0
 10 33  1  6
 11 12  1  0
 11 34  1  0
 11 35  1  0
 12 13  1  0
 12 36  1  0
 12 37  1  0
 13 14  1  0
 13 38  1  0
 13 39  1  0
 14 15  1  0
 14 40  1  1
 15 16  1  0
 15 41  1  0
 15 42  1  0
 16 17  1  0
 17 18  2  0
 17 19  2  0
 17 20  1  0
 20 22  1  0
 20 21  1  0
 20 43  1  0
 21 22  1  0
 21 44  1  0
 21 45  1  0
 22 46  1  0
 22 47  1  0
M  END
>  <i_m_ct_stereo_status>  (138) 
1

>  <s_m_source_file>  (138) 
/var/tmp/pbs.5076255.sched01/tmp1pt1fpgk/39zsbf0m6x.sdf

>  <i_m_source_file_index>  (138) 
16

>  <i_lp_mmshare_version>  (138) 
48012

>  <i_f3d_flags>  (138) 
0

>  <s_epik_input>  (138) 
W0NIMl0xW0NIMl1bQ0hdMVtDSDJdU1tDSDJdQyg9TylbQ0BIXTJOKFMoPU8pKD1PKVtDSF0zW0NIMl1bQ0gyXTMpW0NIMl1bQ0BASF0oW0NAQEhdMjQpW0NIMl1bQ0gyXVtDSDJdNA==

>  <s_epik_cmdline>  (138) 
J2VwaWtfcHl0aG9uJywgJy1waHQnLCAnMi4wJywgJy1waCcsICc3LjAnLCAnLXRuJywgJzgnLCAnLW1hJywgJzIwMCcsICctaW1hZScsICc8aW5maWxlLm1hZT4nLCAnLW9tYWUnLCAnPG91dGZpbGUubWFlPic=

>  <r_lp_tautomer_probability>  (138) 
1

>  <r_epik_Ionization_Penalty>  (138) 
5.0312e-10

>  <r_epik_Ionization_Penalty_Charging>  (138) 
0

>  <r_epik_Ionization_Penalty_Neutral>  (138) 
5.0312e-10

>  <r_epik_State_Penalty>  (138) 
-0

>  <r_epik_Charging_Adjusted_Penalty>  (138) 
0

>  <i_epik_Tot_Q>  (138) 
0

>  <i_epik_Tot_abs_Q>  (138) 
0

>  <s_lp_Force_Field>  (138) 
OPLS3e

>  <r_lp_Energy>  (138) 
28.4827

>  <b_lp_Chiralities_Consistent>  (138) 
1

>  <s_lp_Variant>  (138) 
47:0-1

>  <s_i_glide_gridfile>  (138) 
pfpi4k_grid

>  <i_i_glide_lignum>  (138) 
16

>  <i_i_glide_rotatable_bonds>  (138) 
7

>  <r_i_docking_score>  (138) 
-2.34497

>  <r_i_glide_ligand_efficiency>  (138) 
-0.106589

>  <r_i_glide_ligand_efficiency_sa>  (138) 
-0.298668

>  <r_i_glide_ligand_efficiency_ln>  (138) 
-0.573195

>  <r_i_glide_gscore>  (138) 
-2.34497

>  <r_i_glide_lipo>  (138) 
-0.493274

>  <r_i_glide_hbond>  (138) 
-0.000447085

>  <r_i_glide_metal>  (138) 
-0

>  <r_i_glide_rewards>  (138) 
-1.21794

>  <r_i_glide_evdw>  (138) 
-26.4007

>  <r_i_glide_ecoul>  (138) 
-1.68667

>  <r_i_glide_erotb>  (138) 
0.9649

>  <r_i_glide_esite>  (138) 
-0.0251701

>  <r_i_glide_emodel>  (138) 
-29.9687

>  <r_i_glide_energy>  (138) 
-28.0874

>  <r_i_glide_einternal>  (138) 
4.47656

>  <r_i_glide_intrahb_reward>  (138) 
-0

>  <i_i_glide_confnum>  (138) 
7

>  <i_i_glide_posenum>  (138) 
1

>  <r_i_glide_eff_state_penalty>  (138) 
0

>  <ligand_id>  (138) 
47

>  <original_smiles>  (138) 
O=C(CSCC1CC1)C1C2CCCC2CN1S(=O)(=O)C1CC1

>  <smiles>  (138) 
[H]C([H])(SC([H])([H])C1([H])C([H])([H])C1([H])[H])C(=O)C1([H])N(S(=O)(=O)C2([H])C([H])([H])C2([H])[H])C([H])([H])C2([H])C([H])([H])C([H])([H])C([H])([H])C12[H]

$$$$
49:0:0
     RDKit          3D

 58 63  0  0  1  0  0  0  0  0999 V2000
    0.5968   -5.4348    4.5083 C   0  0  0  0  0  0  0  0  0  0  0  0
    1.8370   -5.4179    3.9942 C   0  0  0  0  0  0  0  0  0  0  0  0
    2.2859   -4.6017    2.8320 C   0  0  2  0  0  0  0  0  0  0  0  0
    2.8099   -5.5975    1.7351 C   0  0  0  0  0  0  0  0  0  0  0  0
    4.3541   -5.8820    1.5708 C   0  0  2  0  0  0  0  0  0  0  0  0
    4.3897   -7.0430    0.5457 C   0  0  0  0  0  0  0  0  0  0  0  0
    5.2196   -6.5869    2.8284 C   0  0  0  0  0  0  0  0  0  0  0  0
    5.4869   -6.0330    4.3371 C   0  0  2  0  0  0  0  0  0  0  0  0
    6.7820   -5.4733    4.3109 O   0  0  0  0  0  0  0  0  0  0  0  0
    4.8474   -5.0879    5.6557 C   0  0  1  0  0  0  0  0  0  0  0  0
    3.6709   -4.1240    5.8526 O   0  0  0  0  0  0  0  0  0  0  0  0
    3.1163   -3.0797    4.8725 C   0  0  0  0  0  0  0  0  0  0  0  0
    3.2878   -3.4843    3.3347 C   0  0  1  0  0  0  0  0  0  0  0  0
    4.5828   -4.0340    3.6368 C   0  0  0  0  0  0  0  0  0  0  0  0
    4.3445   -5.2959    4.4230 C   0  0  1  0  0  0  0  0  0  0  0  0
    3.0208   -6.1653    4.4990 C   0  0  1  0  0  0  0  0  0  0  0  0
    2.7654   -6.7642    5.7619 O   0  0  0  0  0  0  0  0  0  0  0  0
    3.5482   -2.4970    2.1366 C   0  0  1  0  0  0  0  0  0  0  0  0
    2.2500   -2.0214    1.7970 O   0  0  0  0  0  0  0  0  0  0  0  0
    4.3092   -1.1549    2.3328 C   0  0  1  0  0  0  0  0  0  0  0  0
    5.5741   -1.2713    2.9393 O   0  0  0  0  0  0  0  0  0  0  0  0
    4.5788   -0.6801    0.8938 C   0  0  0  0  0  0  0  0  0  0  0  0
    4.9543   -1.9489    0.1016 C   0  0  1  0  0  0  0  0  0  0  0  0
    4.6149   -1.8285   -1.3957 C   0  0  0  0  0  0  0  0  0  0  0  0
    6.3687   -1.9787    0.1607 O   0  0  0  0  0  0  0  0  0  0  0  0
    4.2118   -3.1472    0.8236 C   0  0  1  0  0  0  0  0  0  0  0  0
    4.9199   -4.6170    0.7431 C   0  0  1  0  0  0  0  0  0  0  0  0
    6.3299   -4.6406    0.8635 O   0  0  0  0  0  0  0  0  0  0  0  0
    0.3425   -6.0369    5.3661 H   0  0  0  0  0  0  0  0  0  0  0  0
   -0.1872   -4.8246    4.0868 H   0  0  0  0  0  0  0  0  0  0  0  0
    1.3666   -4.1501    2.4665 H   0  0  0  0  0  0  0  0  0  0  0  0
    2.2871   -6.5498    1.8471 H   0  0  0  0  0  0  0  0  0  0  0  0
    2.4275   -5.2521    0.7747 H   0  0  0  0  0  0  0  0  0  0  0  0
    5.4105   -7.2648    0.2391 H   0  0  0  0  0  0  0  0  0  0  0  0
    3.8228   -6.8061   -0.3540 H   0  0  0  0  0  0  0  0  0  0  0  0
    3.9656   -7.9702    0.9388 H   0  0  0  0  0  0  0  0  0  0  0  0
    4.8298   -7.5950    2.9639 H   0  0  0  0  0  0  0  0  0  0  0  0
    6.2080   -6.8300    2.4230 H   0  0  0  0  0  0  0  0  0  0  0  0
    7.4168   -6.1532    4.1251 H   0  0  0  0  0  0  0  0  0  0  0  0
    5.6611   -4.4357    5.9849 H   0  0  0  0  0  0  0  0  0  0  0  0
    2.0639   -2.9133    5.1081 H   0  0  0  0  0  0  0  0  0  0  0  0
    3.6063   -2.1257    5.0697 H   0  0  0  0  0  0  0  0  0  0  0  0
    5.3367   -4.0799    2.9019 H   0  0  0  0  0  0  0  0  0  0  0  0
    5.2048   -3.3328    4.1999 H   0  0  0  0  0  0  0  0  0  0  0  0
    3.0632   -7.0482    3.8656 H   0  0  0  0  0  0  0  0  0  0  0  0
    2.1039   -7.4392    5.6549 H   0  0  0  0  0  0  0  0  0  0  0  0
    2.2811   -1.4446    1.0335 H   0  0  0  0  0  0  0  0  0  0  0  0
    3.7361   -0.4179    2.8979 H   0  0  0  0  0  0  0  0  0  0  0  0
    6.0159   -0.4287    2.9101 H   0  0  0  0  0  0  0  0  0  0  0  0
    3.6637   -0.2476    0.4844 H   0  0  0  0  0  0  0  0  0  0  0  0
    5.3346    0.1090    0.8328 H   0  0  0  0  0  0  0  0  0  0  0  0
    3.5443   -1.6861   -1.5541 H   0  0  0  0  0  0  0  0  0  0  0  0
    4.9171   -2.7265   -1.9331 H   0  0  0  0  0  0  0  0  0  0  0  0
    5.1298   -0.9792   -1.8461 H   0  0  0  0  0  0  0  0  0  0  0  0
    6.6139   -2.1317    1.0684 H   0  0  0  0  0  0  0  0  0  0  0  0
    3.3375   -3.3146    0.1941 H   0  0  0  0  0  0  0  0  0  0  0  0
    4.7941   -4.8452   -0.3168 H   0  0  0  0  0  0  0  0  0  0  0  0
    6.6213   -5.5376    0.7338 H   0  0  0  0  0  0  0  0  0  0  0  0
  1  2  2  0
  1 29  1  0
  1 30  1  0
  2 16  1  0
  2  3  1  0
  3 13  1  0
  3  4  1  0
  3 31  1  6
  4  5  1  0
  4 32  1  0
  4 33  1  0
  5 27  1  0
  5  6  1  6
  5  7  1  0
  6 34  1  0
  6 35  1  0
  6 36  1  0
  7  8  1  0
  7 37  1  0
  7 38  1  0
  8 15  1  0
  8  9  1  6
  8 10  1  0
  9 39  1  0
 10 15  1  0
 10 11  1  0
 10 40  1  1
 11 12  1  0
 13 12  1  1
 12 41  1  0
 12 42  1  0
 13 14  1  0
 13 18  1  0
 15 14  1  6
 14 43  1  0
 14 44  1  0
 15 16  1  0
 16 17  1  0
 16 45  1  6
 17 46  1  0
 18 26  1  0
 18 19  1  6
 18 20  1  0
 19 47  1  0
 20 21  1  0
 20 22  1  0
 20 48  1  1
 21 49  1  0
 22 23  1  0
 22 50  1  0
 22 51  1  0
 23 24  1  0
 23 25  1  6
 23 26  1  0
 24 52  1  0
 24 53  1  0
 24 54  1  0
 25 55  1  0
 26 27  1  0
 26 56  1  6
 27 28  1  0
 27 57  1  6
 28 58  1  0
M  END
>  <i_m_ct_stereo_status>  (139) 
1

>  <s_m_source_file>  (139) 
/var/tmp/pbs.5076255.sched01/tmp1pt1fpgk/39zsbf0m6x.sdf

>  <i_m_source_file_index>  (139) 
18

>  <i_lp_mmshare_version>  (139) 
48012

>  <i_f3d_flags>  (139) 
0

>  <s_epik_input>  (139) 
W0NAXTEyM1tDQEBIXTRDKD1bQ0gyXSlbQ0BIXShbT0hdKVtDQF01KFtDSDJdMilDKFtPSF0pKFtDQEhdNU9bQ0gyXTEpW0NIMl1bQ0BdKFtDSDJdNCkoW0NIM10pW0NASF0oW09IXSlbQ0BIXTZbQ0BdMyhbT0hdKVtDQEBIXShbT0hdKVtDSDJdW0NAQF02KFtDSDNdKVtPSF0=

>  <s_epik_cmdline>  (139) 
J2VwaWtfcHl0aG9uJywgJy1waHQnLCAnMi4wJywgJy1waCcsICc3LjAnLCAnLXRuJywgJzgnLCAnLW1hJywgJzIwMCcsICctaW1hZScsICc8aW5maWxlLm1hZT4nLCAnLW9tYWUnLCAnPG91dGZpbGUubWFlPic=

>  <r_lp_tautomer_probability>  (139) 
1

>  <r_epik_Ionization_Penalty>  (139) 
2.07179e-06

>  <r_epik_Ionization_Penalty_Charging>  (139) 
0

>  <r_epik_Ionization_Penalty_Neutral>  (139) 
2.07179e-06

>  <r_epik_State_Penalty>  (139) 
-0

>  <r_epik_Charging_Adjusted_Penalty>  (139) 
0

>  <i_epik_Tot_Q>  (139) 
0

>  <i_epik_Tot_abs_Q>  (139) 
0

>  <s_lp_Force_Field>  (139) 
OPLS3e

>  <r_lp_Energy>  (139) 
284.583

>  <b_lp_Chiralities_Consistent>  (139) 
1

>  <s_lp_Variant>  (139) 
49:0-1

>  <s_i_glide_gridfile>  (139) 
pfpi4k_grid

>  <i_i_glide_lignum>  (139) 
18

>  <i_i_glide_rotatable_bonds>  (139) 
6

>  <r_i_docking_score>  (139) 
-3.08945

>  <r_i_glide_ligand_efficiency>  (139) 
-0.110338

>  <r_i_glide_ligand_efficiency_sa>  (139) 
-0.33505

>  <r_i_glide_ligand_efficiency_ln>  (139) 
-0.713136

>  <r_i_glide_gscore>  (139) 
-3.08945

>  <r_i_glide_lipo>  (139) 
-0.390007

>  <r_i_glide_hbond>  (139) 
0

>  <r_i_glide_metal>  (139) 
-0

>  <r_i_glide_rewards>  (139) 
-1.2196

>  <r_i_glide_evdw>  (139) 
-21.1601

>  <r_i_glide_ecoul>  (139) 
-2.81228

>  <r_i_glide_erotb>  (139) 
0

>  <r_i_glide_esite>  (139) 
0

>  <r_i_glide_emodel>  (139) 
-33.5959

>  <r_i_glide_energy>  (139) 
-23.9724

>  <r_i_glide_einternal>  (139) 
1.82871

>  <r_i_glide_intrahb_reward>  (139) 
-0.5

>  <i_i_glide_confnum>  (139) 
1

>  <i_i_glide_posenum>  (139) 
5

>  <r_i_glide_eff_state_penalty>  (139) 
0

>  <ligand_id>  (139) 
49

>  <original_smiles>  (139) 
C=C1C2CC3(C)CC4(O)C5OCC2(CC54C1O)C1(O)C(O)CC(C)(O)C1C3O

>  <smiles>  (139) 
[H]OC1([H])C(=C([H])[H])C2([H])C([H])([H])C3(C([H])([H])[H])C([H])([H])C4(O[H])C5([H])OC([H])([H])C2(C([H])([H])C154)C1(O[H])C([H])(O[H])C([H])([H])C(O[H])(C([H])([H])[H])C1([H])C3([H])O[H]

$$$$
49:0:1
     RDKit          3D

 58 63  0  0  1  0  0  0  0  0999 V2000
    1.5328   -3.6168    5.8565 C   0  0  0  0  0  0  0  0  0  0  0  0
    2.2561   -4.2203    4.8953 C   0  0  0  0  0  0  0  0  0  0  0  0
    2.1918   -3.9109    3.4363 C   0  0  2  0  0  0  0  0  0  0  0  0
    1.7641   -5.2383    2.7093 C   0  0  0  0  0  0  0  0  0  0  0  0
    2.8157   -6.1665    1.9981 C   0  0  2  0  0  0  0  0  0  0  0  0
    1.9734   -7.4071    1.5848 C   0  0  0  0  0  0  0  0  0  0  0  0
    4.0177   -6.9099    2.9141 C   0  0  0  0  0  0  0  0  0  0  0  0
    5.2101   -6.2314    3.7997 C   0  0  2  0  0  0  0  0  0  0  0  0
    6.3738   -6.2814    2.9822 O   0  0  0  0  0  0  0  0  0  0  0  0
    5.6370   -4.9007    4.8348 C   0  0  1  0  0  0  0  0  0  0  0  0
    5.0842   -3.4937    5.1259 O   0  0  0  0  0  0  0  0  0  0  0  0
    4.3720   -2.5200    4.1767 C   0  0  0  0  0  0  0  0  0  0  0  0
    3.5607   -3.2359    2.9905 C   0  0  1  0  0  0  0  0  0  0  0  0
    4.6157   -4.2139    2.8784 C   0  0  0  0  0  0  0  0  0  0  0  0
    4.5229   -5.0972    4.1047 C   0  0  1  0  0  0  0  0  0  0  0  0
    3.2795   -5.2873    5.0846 C   0  0  1  0  0  0  0  0  0  0  0  0
    3.5933   -5.4806    6.4609 O   0  0  0  0  0  0  0  0  0  0  0  0
    3.3808   -2.6942    1.5228 C   0  0  1  0  0  0  0  0  0  0  0  0
    2.2718   -1.7962    1.6259 O   0  0  0  0  0  0  0  0  0  0  0  0
    4.4537   -1.7813    0.8580 C   0  0  1  0  0  0  0  0  0  0  0  0
    5.7869   -2.2545    0.8900 O   0  0  0  0  0  0  0  0  0  0  0  0
    4.0139   -1.7643   -0.6158 C   0  0  0  0  0  0  0  0  0  0  0  0
    3.5360   -3.1952   -0.9470 C   0  0  1  0  0  0  0  0  0  0  0  0
    2.4883   -3.2096   -2.0789 C   0  0  0  0  0  0  0  0  0  0  0  0
    4.6633   -3.8528   -1.4904 O   0  0  0  0  0  0  0  0  0  0  0  0
    3.0216   -3.8066    0.4137 C   0  0  1  0  0  0  0  0  0  0  0  0
    3.1510   -5.4307    0.6028 C   0  0  1  0  0  0  0  0  0  0  0  0
    4.3181   -6.0624    0.1020 O   0  0  0  0  0  0  0  0  0  0  0  0
    1.6483   -3.8891    6.8950 H   0  0  0  0  0  0  0  0  0  0  0  0
    0.8213   -2.8432    5.6114 H   0  0  0  0  0  0  0  0  0  0  0  0
    1.3674   -3.2021    3.3533 H   0  0  0  0  0  0  0  0  0  0  0  0
    1.1631   -5.8367    3.3946 H   0  0  0  0  0  0  0  0  0  0  0  0
    1.0203   -4.9632    1.9681 H   0  0  0  0  0  0  0  0  0  0  0  0
    2.5625   -8.0957    0.9737 H   0  0  0  0  0  0  0  0  0  0  0  0
    1.0865   -7.1428    1.0019 H   0  0  0  0  0  0  0  0  0  0  0  0
    1.6193   -7.9728    2.4483 H   0  0  0  0  0  0  0  0  0  0  0  0
    3.5200   -7.6118    3.5851 H   0  0  0  0  0  0  0  0  0  0  0  0
    4.5116   -7.6149    2.2386 H   0  0  0  0  0  0  0  0  0  0  0  0
    6.5792   -7.1850    2.8032 H   0  0  0  0  0  0  0  0  0  0  0  0
    6.6383   -4.6525    4.5199 H   0  0  0  0  0  0  0  0  0  0  0  0
    3.7019   -1.8871    4.7595 H   0  0  0  0  0  0  0  0  0  0  0  0
    5.1107   -1.8347    3.7600 H   0  0  0  0  0  0  0  0  0  0  0  0
    4.8053   -4.7057    1.9585 H   0  0  0  0  0  0  0  0  0  0  0  0
    5.6081   -3.7508    2.8145 H   0  0  0  0  0  0  0  0  0  0  0  0
    2.7388   -6.2041    4.8768 H   0  0  0  0  0  0  0  0  0  0  0  0
    3.9683   -6.3403    6.5610 H   0  0  0  0  0  0  0  0  0  0  0  0
    2.0303   -1.4605    0.7653 H   0  0  0  0  0  0  0  0  0  0  0  0
    4.4615   -0.7758    1.2848 H   0  0  0  0  0  0  0  0  0  0  0  0
    6.0608   -2.3322    1.7903 H   0  0  0  0  0  0  0  0  0  0  0  0
    3.1782   -1.0697   -0.7237 H   0  0  0  0  0  0  0  0  0  0  0  0
    4.7919   -1.3978   -1.2902 H   0  0  0  0  0  0  0  0  0  0  0  0
    1.5912   -2.6486   -1.8346 H   0  0  0  0  0  0  0  0  0  0  0  0
    2.1542   -4.2218   -2.2968 H   0  0  0  0  0  0  0  0  0  0  0  0
    2.8851   -2.7802   -2.9999 H   0  0  0  0  0  0  0  0  0  0  0  0
    4.3614   -4.6294   -1.9424 H   0  0  0  0  0  0  0  0  0  0  0  0
    1.9414   -3.7023    0.3378 H   0  0  0  0  0  0  0  0  0  0  0  0
    2.4075   -5.7717   -0.1184 H   0  0  0  0  0  0  0  0  0  0  0  0
    4.3334   -5.9685   -0.8422 H   0  0  0  0  0  0  0  0  0  0  0  0
  1  2  2  0
  1 29  1  0
  1 30  1  0
  2 16  1  0
  2  3  1  0
  3 13  1  0
  3  4  1  0
  3 31  1  1
  4  5  1  0
  4 32  1  0
  4 33  1  0
  5 27  1  0
  5  6  1  6
  5  7  1  0
  6 34  1  0
  6 35  1  0
  6 36  1  0
  7  8  1  0
  7 37  1  0
  7 38  1  0
  8 15  1  0
  8  9  1  6
  8 10  1  0
  9 39  1  0
 10 15  1  0
 10 11  1  0
 10 40  1  1
 11 12  1  0
 13 12  1  1
 12 41  1  0
 12 42  1  0
 13 14  1  0
 13 18  1  0
 15 14  1  6
 14 43  1  0
 14 44  1  0
 15 16  1  0
 16 17  1  0
 16 45  1  6
 17 46  1  0
 18 26  1  0
 18 19  1  1
 18 20  1  0
 19 47  1  0
 20 21  1  0
 20 22  1  0
 20 48  1  1
 21 49  1  0
 22 23  1  0
 22 50  1  0
 22 51  1  0
 23 24  1  0
 23 25  1  6
 23 26  1  0
 24 52  1  0
 24 53  1  0
 24 54  1  0
 25 55  1  0
 26 27  1  0
 26 56  1  6
 27 28  1  0
 27 57  1  6
 28 58  1  0
M  END
>  <i_m_ct_stereo_status>  (140) 
1

>  <s_m_source_file>  (140) 
/var/tmp/pbs.5076255.sched01/tmp1pt1fpgk/39zsbf0m6x.sdf

>  <i_m_source_file_index>  (140) 
18

>  <i_lp_mmshare_version>  (140) 
48012

>  <i_f3d_flags>  (140) 
0

>  <s_epik_input>  (140) 
W0NAXTEyM1tDQEBIXTRDKD1bQ0gyXSlbQ0BIXShbT0hdKVtDQF01KFtDSDJdMilDKFtPSF0pKFtDQEhdNU9bQ0gyXTEpW0NIMl1bQ0BdKFtDSDJdNCkoW0NIM10pW0NASF0oW09IXSlbQ0BIXTZbQ0BdMyhbT0hdKVtDQEBIXShbT0hdKVtDSDJdW0NAQF02KFtDSDNdKVtPSF0=

>  <s_epik_cmdline>  (140) 
J2VwaWtfcHl0aG9uJywgJy1waHQnLCAnMi4wJywgJy1waCcsICc3LjAnLCAnLXRuJywgJzgnLCAnLW1hJywgJzIwMCcsICctaW1hZScsICc8aW5maWxlLm1hZT4nLCAnLW9tYWUnLCAnPG91dGZpbGUubWFlPic=

>  <r_lp_tautomer_probability>  (140) 
1

>  <r_epik_Ionization_Penalty>  (140) 
2.07179e-06

>  <r_epik_Ionization_Penalty_Charging>  (140) 
0

>  <r_epik_Ionization_Penalty_Neutral>  (140) 
2.07179e-06

>  <r_epik_State_Penalty>  (140) 
-0

>  <r_epik_Charging_Adjusted_Penalty>  (140) 
0

>  <i_epik_Tot_Q>  (140) 
0

>  <i_epik_Tot_abs_Q>  (140) 
0

>  <s_lp_Force_Field>  (140) 
OPLS3e

>  <r_lp_Energy>  (140) 
284.583

>  <b_lp_Chiralities_Consistent>  (140) 
1

>  <s_lp_Variant>  (140) 
49:0-1

>  <s_i_glide_gridfile>  (140) 
pfpi4k_grid

>  <i_i_glide_lignum>  (140) 
18

>  <i_i_glide_rotatable_bonds>  (140) 
6

>  <r_i_docking_score>  (140) 
-3.06178

>  <r_i_glide_ligand_efficiency>  (140) 
-0.109349

>  <r_i_glide_ligand_efficiency_sa>  (140) 
-0.332048

>  <r_i_glide_ligand_efficiency_ln>  (140) 
-0.706748

>  <r_i_glide_gscore>  (140) 
-3.06178

>  <r_i_glide_lipo>  (140) 
-0.141563

>  <r_i_glide_hbond>  (140) 
-0.131862

>  <r_i_glide_metal>  (140) 
-0

>  <r_i_glide_rewards>  (140) 
-0.7196

>  <r_i_glide_evdw>  (140) 
-20.2575

>  <r_i_glide_ecoul>  (140) 
-7.03916

>  <r_i_glide_erotb>  (140) 
0

>  <r_i_glide_esite>  (140) 
0

>  <r_i_glide_emodel>  (140) 
-31.7074

>  <r_i_glide_energy>  (140) 
-27.2967

>  <r_i_glide_einternal>  (140) 
1.88958

>  <r_i_glide_intrahb_reward>  (140) 
-0

>  <i_i_glide_confnum>  (140) 
2

>  <i_i_glide_posenum>  (140) 
33

>  <r_i_glide_eff_state_penalty>  (140) 
0

>  <ligand_id>  (140) 
49

>  <original_smiles>  (140) 
C=C1C2CC3(C)CC4(O)C5OCC2(CC54C1O)C1(O)C(O)CC(C)(O)C1C3O

>  <smiles>  (140) 
[H]OC1([H])C(=C([H])[H])C2([H])C([H])([H])C3(C([H])([H])[H])C([H])([H])C4(O[H])C5([H])OC([H])([H])C2(C([H])([H])C154)C1(O[H])C([H])(O[H])C([H])([H])C(O[H])(C([H])([H])[H])C1([H])C3([H])O[H]

$$$$
49:0:2
     RDKit          3D

 58 63  0  0  1  0  0  0  0  0999 V2000
    1.6140   -1.3911    5.4448 C   0  0  0  0  0  0  0  0  0  0  0  0
    2.3384   -2.2840    4.7423 C   0  0  0  0  0  0  0  0  0  0  0  0
    2.5459   -2.2443    3.2641 C   0  0  2  0  0  0  0  0  0  0  0  0
    1.9829   -3.5922    2.6938 C   0  0  0  0  0  0  0  0  0  0  0  0
    2.9189   -4.8116    2.3402 C   0  0  2  0  0  0  0  0  0  0  0  0
    1.9298   -5.9597    1.9909 C   0  0  0  0  0  0  0  0  0  0  0  0
    3.8102   -5.5541    3.5652 C   0  0  0  0  0  0  0  0  0  0  0  0
    4.9775   -4.9198    4.5132 C   0  0  2  0  0  0  0  0  0  0  0  0
    6.1970   -5.3276    3.9039 O   0  0  0  0  0  0  0  0  0  0  0  0
    5.4998   -3.5082    5.3911 C   0  0  1  0  0  0  0  0  0  0  0  0
    5.1669   -2.0052    5.3566 O   0  0  0  0  0  0  0  0  0  0  0  0
    4.8208   -1.1221    4.1428 C   0  0  0  0  0  0  0  0  0  0  0  0
    4.0630   -1.9057    2.9658 C   0  0  1  0  0  0  0  0  0  0  0  0
    4.9097   -3.0457    3.1990 C   0  0  0  0  0  0  0  0  0  0  0  0
    4.4857   -3.6539    4.5154 C   0  0  1  0  0  0  0  0  0  0  0  0
    3.0976   -3.4510    5.2791 C   0  0  1  0  0  0  0  0  0  0  0  0
    3.1844   -3.3984    6.7006 O   0  0  0  0  0  0  0  0  0  0  0  0
    4.1948   -1.6389    1.4176 C   0  0  1  0  0  0  0  0  0  0  0  0
    3.3113   -0.5481    1.1544 O   0  0  0  0  0  0  0  0  0  0  0  0
    5.5069   -1.0755    0.8036 C   0  0  1  0  0  0  0  0  0  0  0  0
    6.6828   -1.7788    1.1380 O   0  0  0  0  0  0  0  0  0  0  0  0
    5.2863   -1.2601   -0.7073 C   0  0  0  0  0  0  0  0  0  0  0  0
    4.5977   -2.6269   -0.8671 C   0  0  1  0  0  0  0  0  0  0  0  0
    3.7436   -2.7024   -2.1473 C   0  0  0  0  0  0  0  0  0  0  0  0
    5.6696   -3.5288   -1.0534 O   0  0  0  0  0  0  0  0  0  0  0  0
    3.7826   -2.8693    0.4591 C   0  0  1  0  0  0  0  0  0  0  0  0
    3.5825   -4.4279    0.9265 C   0  0  1  0  0  0  0  0  0  0  0  0
    4.6768   -5.3194    0.7674 O   0  0  0  0  0  0  0  0  0  0  0  0
    1.5171   -1.4725    6.5182 H   0  0  0  0  0  0  0  0  0  0  0  0
    1.1068   -0.5712    4.9541 H   0  0  0  0  0  0  0  0  0  0  0  0
    1.9019   -1.4343    2.9151 H   0  0  0  0  0  0  0  0  0  0  0  0
    1.1757   -3.9407    3.3338 H   0  0  0  0  0  0  0  0  0  0  0  0
    1.4331   -3.3074    1.7961 H   0  0  0  0  0  0  0  0  0  0  0  0
    2.4588   -6.8392    1.6088 H   0  0  0  0  0  0  0  0  0  0  0  0
    1.2091   -5.6694    1.2253 H   0  0  0  0  0  0  0  0  0  0  0  0
    1.3535   -6.2811    2.8590 H   0  0  0  0  0  0  0  0  0  0  0  0
    3.1006   -6.0240    4.2498 H   0  0  0  0  0  0  0  0  0  0  0  0
    4.2553   -6.4504    3.1189 H   0  0  0  0  0  0  0  0  0  0  0  0
    6.8840   -5.3121    4.5513 H   0  0  0  0  0  0  0  0  0  0  0  0
    6.5825   -3.4561    5.2622 H   0  0  0  0  0  0  0  0  0  0  0  0
    4.2140   -0.2790    4.4813 H   0  0  0  0  0  0  0  0  0  0  0  0
    5.7396   -0.6782    3.7596 H   0  0  0  0  0  0  0  0  0  0  0  0
    5.1231   -3.7262    2.4205 H   0  0  0  0  0  0  0  0  0  0  0  0
    5.9686   -2.7718    3.2278 H   0  0  0  0  0  0  0  0  0  0  0  0
    2.4229   -4.2893    5.1317 H   0  0  0  0  0  0  0  0  0  0  0  0
    3.8238   -2.7338    6.9151 H   0  0  0  0  0  0  0  0  0  0  0  0
    2.5382   -0.8475    0.6878 H   0  0  0  0  0  0  0  0  0  0  0  0
    5.6671   -0.0257    1.0561 H   0  0  0  0  0  0  0  0  0  0  0  0
    6.5547   -2.6902    0.9053 H   0  0  0  0  0  0  0  0  0  0  0  0
    4.6228   -0.4685   -1.0657 H   0  0  0  0  0  0  0  0  0  0  0  0
    6.2090   -1.1757   -1.2879 H   0  0  0  0  0  0  0  0  0  0  0  0
    2.9344   -1.9693   -2.1353 H   0  0  0  0  0  0  0  0  0  0  0  0
    3.2897   -3.6868   -2.2652 H   0  0  0  0  0  0  0  0  0  0  0  0
    4.3446   -2.5071   -3.0367 H   0  0  0  0  0  0  0  0  0  0  0  0
    5.3272   -4.3184   -1.4483 H   0  0  0  0  0  0  0  0  0  0  0  0
    2.7637   -2.6091    0.1752 H   0  0  0  0  0  0  0  0  0  0  0  0
    2.9025   -4.7814    0.1514 H   0  0  0  0  0  0  0  0  0  0  0  0
    4.8671   -5.4200   -0.1533 H   0  0  0  0  0  0  0  0  0  0  0  0
  1  2  2  0
  1 29  1  0
  1 30  1  0
  2 16  1  0
  2  3  1  0
  3 13  1  0
  3  4  1  0
  3 31  1  6
  4  5  1  0
  4 32  1  0
  4 33  1  0
  5 27  1  0
  5  6  1  6
  5  7  1  0
  6 34  1  0
  6 35  1  0
  6 36  1  0
  7  8  1  0
  7 37  1  0
  7 38  1  0
  8 15  1  0
  8  9  1  6
  8 10  1  0
  9 39  1  0
 10 15  1  0
 10 11  1  0
 10 40  1  1
 11 12  1  0
 13 12  1  1
 12 41  1  0
 12 42  1  0
 13 14  1  0
 13 18  1  0
 15 14  1  6
 14 43  1  0
 14 44  1  0
 15 16  1  0
 16 17  1  0
 16 45  1  1
 17 46  1  0
 18 26  1  0
 18 19  1  6
 18 20  1  0
 19 47  1  0
 20 21  1  0
 20 22  1  0
 20 48  1  6
 21 49  1  0
 22 23  1  0
 22 50  1  0
 22 51  1  0
 23 24  1  0
 23 25  1  6
 23 26  1  0
 24 52  1  0
 24 53  1  0
 24 54  1  0
 25 55  1  0
 26 27  1  0
 26 56  1  6
 27 28  1  0
 27 57  1  6
 28 58  1  0
M  END
>  <i_m_ct_stereo_status>  (141) 
1

>  <s_m_source_file>  (141) 
/var/tmp/pbs.5076255.sched01/tmp1pt1fpgk/39zsbf0m6x.sdf

>  <i_m_source_file_index>  (141) 
18

>  <i_lp_mmshare_version>  (141) 
48012

>  <i_f3d_flags>  (141) 
0

>  <s_epik_input>  (141) 
W0NAXTEyM1tDQEBIXTRDKD1bQ0gyXSlbQ0BIXShbT0hdKVtDQF01KFtDSDJdMilDKFtPSF0pKFtDQEhdNU9bQ0gyXTEpW0NIMl1bQ0BdKFtDSDJdNCkoW0NIM10pW0NASF0oW09IXSlbQ0BIXTZbQ0BdMyhbT0hdKVtDQEBIXShbT0hdKVtDSDJdW0NAQF02KFtDSDNdKVtPSF0=

>  <s_epik_cmdline>  (141) 
J2VwaWtfcHl0aG9uJywgJy1waHQnLCAnMi4wJywgJy1waCcsICc3LjAnLCAnLXRuJywgJzgnLCAnLW1hJywgJzIwMCcsICctaW1hZScsICc8aW5maWxlLm1hZT4nLCAnLW9tYWUnLCAnPG91dGZpbGUubWFlPic=

>  <r_lp_tautomer_probability>  (141) 
1

>  <r_epik_Ionization_Penalty>  (141) 
2.07179e-06

>  <r_epik_Ionization_Penalty_Charging>  (141) 
0

>  <r_epik_Ionization_Penalty_Neutral>  (141) 
2.07179e-06

>  <r_epik_State_Penalty>  (141) 
-0

>  <r_epik_Charging_Adjusted_Penalty>  (141) 
0

>  <i_epik_Tot_Q>  (141) 
0

>  <i_epik_Tot_abs_Q>  (141) 
0

>  <s_lp_Force_Field>  (141) 
OPLS3e

>  <r_lp_Energy>  (141) 
284.583

>  <b_lp_Chiralities_Consistent>  (141) 
1

>  <s_lp_Variant>  (141) 
49:0-1

>  <s_i_glide_gridfile>  (141) 
pfpi4k_grid

>  <i_i_glide_lignum>  (141) 
18

>  <i_i_glide_rotatable_bonds>  (141) 
6

>  <r_i_docking_score>  (141) 
-2.64174

>  <r_i_glide_ligand_efficiency>  (141) 
-0.0943479

>  <r_i_glide_ligand_efficiency_sa>  (141) 
-0.286496

>  <r_i_glide_ligand_efficiency_ln>  (141) 
-0.609791

>  <r_i_glide_gscore>  (141) 
-2.64174

>  <r_i_glide_lipo>  (141) 
-0.228146

>  <r_i_glide_hbond>  (141) 
-0.0346552

>  <r_i_glide_metal>  (141) 
-0

>  <r_i_glide_rewards>  (141) 
-0.7196

>  <r_i_glide_evdw>  (141) 
-21.4923

>  <r_i_glide_ecoul>  (141) 
-3.89818

>  <r_i_glide_erotb>  (141) 
0

>  <r_i_glide_esite>  (141) 
0

>  <r_i_glide_emodel>  (141) 
-28.7202

>  <r_i_glide_energy>  (141) 
-25.3904

>  <r_i_glide_einternal>  (141) 
2.04059

>  <r_i_glide_intrahb_reward>  (141) 
-0

>  <i_i_glide_confnum>  (141) 
2

>  <i_i_glide_posenum>  (141) 
34

>  <r_i_glide_eff_state_penalty>  (141) 
0

>  <ligand_id>  (141) 
49

>  <original_smiles>  (141) 
C=C1C2CC3(C)CC4(O)C5OCC2(CC54C1O)C1(O)C(O)CC(C)(O)C1C3O

>  <smiles>  (141) 
[H]OC1([H])C(=C([H])[H])C2([H])C([H])([H])C3(C([H])([H])[H])C([H])([H])C4(O[H])C5([H])OC([H])([H])C2(C([H])([H])C154)C1(O[H])C([H])(O[H])C([H])([H])C(O[H])(C([H])([H])[H])C1([H])C3([H])O[H]

$$$$
49:2:0
     RDKit          3D

 58 63  0  0  1  0  0  0  0  0999 V2000
    1.6839   -0.0245    5.2459 C   0  0  0  0  0  0  0  0  0  0  0  0
    2.2840   -1.1296    4.7477 C   0  0  0  0  0  0  0  0  0  0  0  0
    2.3801   -1.4672    3.3057 C   0  0  2  0  0  0  0  0  0  0  0  0
    1.6618   -2.8574    3.1252 C   0  0  0  0  0  0  0  0  0  0  0  0
    2.4743   -4.2101    3.0005 C   0  0  2  0  0  0  0  0  0  0  0  0
    1.3980   -5.3281    2.9935 C   0  0  0  0  0  0  0  0  0  0  0  0
    3.3998   -4.7396    4.2937 C   0  0  0  0  0  0  0  0  0  0  0  0
    4.6526   -4.0167    5.0110 C   0  0  2  0  0  0  0  0  0  0  0  0
    5.8000   -4.6259    4.4547 O   0  0  0  0  0  0  0  0  0  0  0  0
    5.4072   -2.5182    5.4469 C   0  0  2  0  0  0  0  0  0  0  0  0
    5.1948   -1.0351    5.0940 O   0  0  0  0  0  0  0  0  0  0  0  0
    4.8017   -0.4168    3.7467 C   0  0  0  0  0  0  0  0  0  0  0  0
    3.8872   -1.3697    2.8452 C   0  0  1  0  0  0  0  0  0  0  0  0
    4.6340   -2.4987    3.3092 C   0  0  0  0  0  0  0  0  0  0  0  0
    4.2699   -2.7246    4.7587 C   0  0  1  0  0  0  0  0  0  0  0  0
    2.9868   -2.1966    5.5236 C   0  0  1  0  0  0  0  0  0  0  0  0
    3.1819   -1.8037    6.8823 O   0  0  0  0  0  0  0  0  0  0  0  0
    3.9212   -1.4813    1.2870 C   0  0  1  0  0  0  0  0  0  0  0  0
    3.1361   -0.3797    0.8361 O   0  0  0  0  0  0  0  0  0  0  0  0
    5.2360   -1.2704    0.4889 C   0  0  1  0  0  0  0  0  0  0  0  0
    6.3320   -2.0762    0.8777 O   0  0  0  0  0  0  0  0  0  0  0  0
    4.8561   -1.7308   -0.9299 C   0  0  0  0  0  0  0  0  0  0  0  0
    3.9213   -2.9560   -0.7608 C   0  0  1  0  0  0  0  0  0  0  0  0
    2.9013   -3.0402   -1.9084 C   0  0  0  0  0  0  0  0  0  0  0  0
    4.7307   -4.1144   -0.8774 O   0  0  0  0  0  0  0  0  0  0  0  0
    3.2758   -2.8171    0.6698 C   0  0  1  0  0  0  0  0  0  0  0  0
    3.0195   -4.2152    1.4856 C   0  0  1  0  0  0  0  0  0  0  0  0
    4.0269   -5.2184    1.4291 O   0  0  0  0  0  0  0  0  0  0  0  0
    1.6594    0.1593    6.3076 H   0  0  0  0  0  0  0  0  0  0  0  0
    1.2031    0.6832    4.5840 H   0  0  0  0  0  0  0  0  0  0  0  0
    1.7704   -0.7075    2.8011 H   0  0  0  0  0  0  0  0  0  0  0  0
    0.9164   -2.9849    3.9145 H   0  0  0  0  0  0  0  0  0  0  0  0
    1.0434   -2.7290    2.2409 H   0  0  0  0  0  0  0  0  0  0  0  0
    1.8539   -6.3082    2.7999 H   0  0  0  0  0  0  0  0  0  0  0  0
    0.6239   -5.1610    2.2428 H   0  0  0  0  0  0  0  0  0  0  0  0
    0.8918   -5.3840    3.9607 H   0  0  0  0  0  0  0  0  0  0  0  0
    2.6930   -4.9751    5.0923 H   0  0  0  0  0  0  0  0  0  0  0  0
    3.7398   -5.7433    4.0178 H   0  0  0  0  0  0  0  0  0  0  0  0
    5.7553   -5.5582    4.6017 H   0  0  0  0  0  0  0  0  0  0  0  0
    5.5031   -2.5411    6.5332 H   0  0  0  0  0  0  0  0  0  0  0  0
    4.2859    0.5229    3.9769 H   0  0  0  0  0  0  0  0  0  0  0  0
    5.7062   -0.1407    3.1946 H   0  0  0  0  0  0  0  0  0  0  0  0
    4.7030   -3.3634    2.7017 H   0  0  0  0  0  0  0  0  0  0  0  0
    5.7126   -2.3459    3.1947 H   0  0  0  0  0  0  0  0  0  0  0  0
    2.2507   -2.9927    5.6091 H   0  0  0  0  0  0  0  0  0  0  0  0
    3.8388   -1.1247    6.8766 H   0  0  0  0  0  0  0  0  0  0  0  0
    2.3952   -0.6895    0.3256 H   0  0  0  0  0  0  0  0  0  0  0  0
    5.5546   -0.2259    0.5067 H   0  0  0  0  0  0  0  0  0  0  0  0
    6.0527   -2.9756    0.8090 H   0  0  0  0  0  0  0  0  0  0  0  0
    4.3057   -0.9123   -1.4056 H   0  0  0  0  0  0  0  0  0  0  0  0
    5.7185   -1.9267   -1.5686 H   0  0  0  0  0  0  0  0  0  0  0  0
    2.2417   -2.1765   -1.9470 H   0  0  0  0  0  0  0  0  0  0  0  0
    2.2629   -3.9134   -1.8023 H   0  0  0  0  0  0  0  0  0  0  0  0
    3.3969   -3.1020   -2.8775 H   0  0  0  0  0  0  0  0  0  0  0  0
    4.2754   -4.7202   -1.4468 H   0  0  0  0  0  0  0  0  0  0  0  0
    2.2513   -2.5109    0.4569 H   0  0  0  0  0  0  0  0  0  0  0  0
    2.2465   -4.6623    0.8572 H   0  0  0  0  0  0  0  0  0  0  0  0
    4.3982   -5.2050    0.5574 H   0  0  0  0  0  0  0  0  0  0  0  0
  1  2  2  0
  1 29  1  0
  1 30  1  0
  2 16  1  0
  2  3  1  0
  3 13  1  0
  3  4  1  0
  3 31  1  6
  4  5  1  0
  4 32  1  0
  4 33  1  0
  5 27  1  0
  5  6  1  6
  5  7  1  0
  6 34  1  0
  6 35  1  0
  6 36  1  0
  7  8  1  0
  7 37  1  0
  7 38  1  0
  8 15  1  0
  8  9  1  6
  8 10  1  0
  9 39  1  0
 10 15  1  0
 10 11  1  0
 10 40  1  1
 11 12  1  0
 13 12  1  6
 12 41  1  0
 12 42  1  0
 13 14  1  0
 13 18  1  0
 15 14  1  6
 14 43  1  0
 14 44  1  0
 15 16  1  0
 16 17  1  0
 16 45  1  1
 17 46  1  0
 18 26  1  0
 18 19  1  6
 18 20  1  0
 19 47  1  0
 20 21  1  0
 20 22  1  0
 20 48  1  6
 21 49  1  0
 22 23  1  0
 22 50  1  0
 22 51  1  0
 23 24  1  0
 23 25  1  1
 23 26  1  0
 24 52  1  0
 24 53  1  0
 24 54  1  0
 25 55  1  0
 26 27  1  0
 26 56  1  6
 27 28  1  0
 27 57  1  6
 28 58  1  0
M  END
>  <i_m_ct_stereo_status>  (142) 
1

>  <s_m_source_file>  (142) 
/var/tmp/pbs.5076255.sched01/tmp1pt1fpgk/39zsbf0m6x.sdf

>  <i_m_source_file_index>  (142) 
20

>  <i_lp_mmshare_version>  (142) 
48012

>  <i_f3d_flags>  (142) 
0

>  <s_epik_input>  (142) 
W0NAXTEyM1tDQEBIXTRDKD1bQ0gyXSlbQ0BIXShbT0hdKVtDQF01KFtDSDJdMilDKFtPSF0pKFtDQEhdNU9bQ0gyXTEpW0NIMl1bQ0BdKFtDSDJdNCkoW0NIM10pW0NASF0oW09IXSlbQ0BIXTZbQ0BdMyhbT0hdKVtDQEBIXShbT0hdKVtDSDJdW0NAQF02KFtDSDNdKVtPSF0=

>  <s_epik_cmdline>  (142) 
J2VwaWtfcHl0aG9uJywgJy1waHQnLCAnMi4wJywgJy1waCcsICc3LjAnLCAnLXRuJywgJzgnLCAnLW1hJywgJzIwMCcsICctaW1hZScsICc8aW5maWxlLm1hZT4nLCAnLW9tYWUnLCAnPG91dGZpbGUubWFlPic=

>  <r_lp_tautomer_probability>  (142) 
1

>  <r_epik_Ionization_Penalty>  (142) 
2.07179e-06

>  <r_epik_Ionization_Penalty_Charging>  (142) 
0

>  <r_epik_Ionization_Penalty_Neutral>  (142) 
2.07179e-06

>  <r_epik_State_Penalty>  (142) 
-0

>  <r_epik_Charging_Adjusted_Penalty>  (142) 
0

>  <i_epik_Tot_Q>  (142) 
0

>  <i_epik_Tot_abs_Q>  (142) 
0

>  <s_lp_Force_Field>  (142) 
OPLS3e

>  <r_lp_Energy>  (142) 
277.482

>  <b_lp_Chiralities_Consistent>  (142) 
1

>  <s_lp_Variant>  (142) 
49:0-3

>  <s_i_glide_gridfile>  (142) 
pfpi4k_grid

>  <i_i_glide_lignum>  (142) 
20

>  <i_i_glide_rotatable_bonds>  (142) 
6

>  <r_i_docking_score>  (142) 
-3.79096

>  <r_i_glide_ligand_efficiency>  (142) 
-0.135392

>  <r_i_glide_ligand_efficiency_sa>  (142) 
-0.411128

>  <r_i_glide_ligand_efficiency_ln>  (142) 
-0.875065

>  <r_i_glide_gscore>  (142) 
-3.79096

>  <r_i_glide_lipo>  (142) 
-0.254277

>  <r_i_glide_hbond>  (142) 
-0.16

>  <r_i_glide_metal>  (142) 
-0

>  <r_i_glide_rewards>  (142) 
-1.2196

>  <r_i_glide_evdw>  (142) 
-21.988

>  <r_i_glide_ecoul>  (142) 
-7.05125

>  <r_i_glide_erotb>  (142) 
0

>  <r_i_glide_esite>  (142) 
0

>  <r_i_glide_emodel>  (142) 
-39.9611

>  <r_i_glide_energy>  (142) 
-29.0392

>  <r_i_glide_einternal>  (142) 
2.49816

>  <r_i_glide_intrahb_reward>  (142) 
-0.5

>  <i_i_glide_confnum>  (142) 
1

>  <i_i_glide_posenum>  (142) 
5

>  <r_i_glide_eff_state_penalty>  (142) 
0

>  <ligand_id>  (142) 
49

>  <original_smiles>  (142) 
C=C1C2CC3(C)CC4(O)C5OCC2(CC54C1O)C1(O)C(O)CC(C)(O)C1C3O

>  <smiles>  (142) 
[H]OC1([H])C(=C([H])[H])C2([H])C([H])([H])C3(C([H])([H])[H])C([H])([H])C4(O[H])C5([H])OC([H])([H])C2(C([H])([H])C154)C1(O[H])C([H])(O[H])C([H])([H])C(O[H])(C([H])([H])[H])C1([H])C3([H])O[H]

$$$$
49:2:1
     RDKit          3D

 58 63  0  0  1  0  0  0  0  0999 V2000
    1.5527   -3.3684    5.5497 C   0  0  0  0  0  0  0  0  0  0  0  0
    2.3231   -3.9843    4.6339 C   0  0  0  0  0  0  0  0  0  0  0  0
    2.2389   -3.7763    3.1606 C   0  0  2  0  0  0  0  0  0  0  0  0
    1.9093   -5.1826    2.5206 C   0  0  0  0  0  0  0  0  0  0  0  0
    3.0248   -6.0613    1.8424 C   0  0  2  0  0  0  0  0  0  0  0  0
    2.2816   -7.3825    1.5004 C   0  0  0  0  0  0  0  0  0  0  0  0
    4.2965   -6.6527    2.7682 C   0  0  0  0  0  0  0  0  0  0  0  0
    5.4384   -5.8303    3.5860 C   0  0  2  0  0  0  0  0  0  0  0  0
    6.6166   -5.7757    2.7931 O   0  0  0  0  0  0  0  0  0  0  0  0
    5.7719   -4.4468    4.5581 C   0  0  2  0  0  0  0  0  0  0  0  0
    5.2021   -3.0288    4.7491 O   0  0  0  0  0  0  0  0  0  0  0  0
    4.3358   -2.1953    3.7979 C   0  0  0  0  0  0  0  0  0  0  0  0
    3.5517   -3.0312    2.6726 C   0  0  1  0  0  0  0  0  0  0  0  0
    4.6506   -3.9438    2.6215 C   0  0  0  0  0  0  0  0  0  0  0  0
    4.6346   -4.7586    3.9018 C   0  0  1  0  0  0  0  0  0  0  0  0
    3.4195   -4.9615    4.9005 C   0  0  1  0  0  0  0  0  0  0  0  0
    3.7326   -5.0242    6.2892 O   0  0  0  0  0  0  0  0  0  0  0  0
    3.3451   -2.5866    1.1823 C   0  0  1  0  0  0  0  0  0  0  0  0
    2.2119   -1.7213    1.2813 O   0  0  0  0  0  0  0  0  0  0  0  0
    4.3848   -1.7076    0.4330 C   0  0  1  0  0  0  0  0  0  0  0  0
    5.7096   -2.2099    0.4117 O   0  0  0  0  0  0  0  0  0  0  0  0
    3.8827   -1.7492   -1.0214 C   0  0  0  0  0  0  0  0  0  0  0  0
    3.3717   -3.1862   -1.2681 C   0  0  1  0  0  0  0  0  0  0  0  0
    2.2243   -3.2257   -2.2935 C   0  0  0  0  0  0  0  0  0  0  0  0
    4.4452   -3.8516   -1.8920 O   0  0  0  0  0  0  0  0  0  0  0  0
    2.9934   -3.7653    0.1531 C   0  0  1  0  0  0  0  0  0  0  0  0
    3.2759   -5.3618    0.4119 C   0  0  1  0  0  0  0  0  0  0  0  0
    4.5033   -5.8909   -0.0656 O   0  0  0  0  0  0  0  0  0  0  0  0
    1.6749   -3.5579    6.6069 H   0  0  0  0  0  0  0  0  0  0  0  0
    0.7950   -2.6620    5.2489 H   0  0  0  0  0  0  0  0  0  0  0  0
    1.3647   -3.1373    3.0306 H   0  0  0  0  0  0  0  0  0  0  0  0
    1.3784   -5.7901    3.2573 H   0  0  0  0  0  0  0  0  0  0  0  0
    1.1327   -5.0414    1.7738 H   0  0  0  0  0  0  0  0  0  0  0  0
    2.9216   -8.0451    0.9100 H   0  0  0  0  0  0  0  0  0  0  0  0
    1.3654   -7.2196    0.9236 H   0  0  0  0  0  0  0  0  0  0  0  0
    1.9911   -7.9297    2.3989 H   0  0  0  0  0  0  0  0  0  0  0  0
    3.8570   -7.3432    3.4891 H   0  0  0  0  0  0  0  0  0  0  0  0
    4.8332   -7.3459    2.1208 H   0  0  0  0  0  0  0  0  0  0  0  0
    6.8903   -6.6598    2.6153 H   0  0  0  0  0  0  0  0  0  0  0  0
    6.0505   -4.7841    5.5525 H   0  0  0  0  0  0  0  0  0  0  0  0
    3.6351   -1.6323    4.4133 H   0  0  0  0  0  0  0  0  0  0  0  0
    4.9630   -1.4406    3.3182 H   0  0  0  0  0  0  0  0  0  0  0  0
    4.8581   -4.4752    1.7310 H   0  0  0  0  0  0  0  0  0  0  0  0
    5.6126   -3.4248    2.4968 H   0  0  0  0  0  0  0  0  0  0  0  0
    2.9657   -5.9311    4.7322 H   0  0  0  0  0  0  0  0  0  0  0  0
    4.1886   -5.8337    6.4450 H   0  0  0  0  0  0  0  0  0  0  0  0
    1.9066   -1.4558    0.4066 H   0  0  0  0  0  0  0  0  0  0  0  0
    4.4201   -0.6873    0.8204 H   0  0  0  0  0  0  0  0  0  0  0  0
    5.6773   -3.0893    0.0627 H   0  0  0  0  0  0  0  0  0  0  0  0
    3.0459   -1.0562   -1.1147 H   0  0  0  0  0  0  0  0  0  0  0  0
    4.6306   -1.4116   -1.7431 H   0  0  0  0  0  0  0  0  0  0  0  0
    1.3645   -2.6707   -1.9380 H   0  0  0  0  0  0  0  0  0  0  0  0
    1.8573   -4.2325   -2.4708 H   0  0  0  0  0  0  0  0  0  0  0  0
    2.5146   -2.7808   -3.2450 H   0  0  0  0  0  0  0  0  0  0  0  0
    4.0797   -4.6315   -2.3022 H   0  0  0  0  0  0  0  0  0  0  0  0
    1.9063   -3.7487    0.1408 H   0  0  0  0  0  0  0  0  0  0  0  0
    2.5602   -5.8020   -0.2834 H   0  0  0  0  0  0  0  0  0  0  0  0
    4.4752   -5.8787   -1.0092 H   0  0  0  0  0  0  0  0  0  0  0  0
  1  2  2  0
  1 29  1  0
  1 30  1  0
  2 16  1  0
  2  3  1  0
  3 13  1  0
  3  4  1  0
  3 31  1  1
  4  5  1  0
  4 32  1  0
  4 33  1  0
  5 27  1  0
  5  6  1  6
  5  7  1  0
  6 34  1  0
  6 35  1  0
  6 36  1  0
  7  8  1  0
  7 37  1  0
  7 38  1  0
  8 15  1  0
  8  9  1  6
  8 10  1  0
  9 39  1  0
 10 15  1  0
 10 11  1  0
 10 40  1  1
 11 12  1  0
 13 12  1  1
 12 41  1  0
 12 42  1  0
 13 14  1  0
 13 18  1  0
 15 14  1  6
 14 43  1  0
 14 44  1  0
 15 16  1  0
 16 17  1  0
 16 45  1  6
 17 46  1  0
 18 26  1  0
 18 19  1  1
 18 20  1  0
 19 47  1  0
 20 21  1  0
 20 22  1  0
 20 48  1  1
 21 49  1  0
 22 23  1  0
 22 50  1  0
 22 51  1  0
 23 24  1  0
 23 25  1  6
 23 26  1  0
 24 52  1  0
 24 53  1  0
 24 54  1  0
 25 55  1  0
 26 27  1  0
 26 56  1  6
 27 28  1  0
 27 57  1  6
 28 58  1  0
M  END
>  <i_m_ct_stereo_status>  (143) 
1

>  <s_m_source_file>  (143) 
/var/tmp/pbs.5076255.sched01/tmp1pt1fpgk/39zsbf0m6x.sdf

>  <i_m_source_file_index>  (143) 
20

>  <i_lp_mmshare_version>  (143) 
48012

>  <i_f3d_flags>  (143) 
0

>  <s_epik_input>  (143) 
W0NAXTEyM1tDQEBIXTRDKD1bQ0gyXSlbQ0BIXShbT0hdKVtDQF01KFtDSDJdMilDKFtPSF0pKFtDQEhdNU9bQ0gyXTEpW0NIMl1bQ0BdKFtDSDJdNCkoW0NIM10pW0NASF0oW09IXSlbQ0BIXTZbQ0BdMyhbT0hdKVtDQEBIXShbT0hdKVtDSDJdW0NAQF02KFtDSDNdKVtPSF0=

>  <s_epik_cmdline>  (143) 
J2VwaWtfcHl0aG9uJywgJy1waHQnLCAnMi4wJywgJy1waCcsICc3LjAnLCAnLXRuJywgJzgnLCAnLW1hJywgJzIwMCcsICctaW1hZScsICc8aW5maWxlLm1hZT4nLCAnLW9tYWUnLCAnPG91dGZpbGUubWFlPic=

>  <r_lp_tautomer_probability>  (143) 
1

>  <r_epik_Ionization_Penalty>  (143) 
2.07179e-06

>  <r_epik_Ionization_Penalty_Charging>  (143) 
0

>  <r_epik_Ionization_Penalty_Neutral>  (143) 
2.07179e-06

>  <r_epik_State_Penalty>  (143) 
-0

>  <r_epik_Charging_Adjusted_Penalty>  (143) 
0

>  <i_epik_Tot_Q>  (143) 
0

>  <i_epik_Tot_abs_Q>  (143) 
0

>  <s_lp_Force_Field>  (143) 
OPLS3e

>  <r_lp_Energy>  (143) 
277.482

>  <b_lp_Chiralities_Consistent>  (143) 
1

>  <s_lp_Variant>  (143) 
49:0-3

>  <s_i_glide_gridfile>  (143) 
pfpi4k_grid

>  <i_i_glide_lignum>  (143) 
20

>  <i_i_glide_rotatable_bonds>  (143) 
6

>  <r_i_docking_score>  (143) 
-3.57264

>  <r_i_glide_ligand_efficiency>  (143) 
-0.127594

>  <r_i_glide_ligand_efficiency_sa>  (143) 
-0.387451

>  <r_i_glide_ligand_efficiency_ln>  (143) 
-0.82467

>  <r_i_glide_gscore>  (143) 
-3.57264

>  <r_i_glide_lipo>  (143) 
-0.24665

>  <r_i_glide_hbond>  (143) 
-0.148331

>  <r_i_glide_metal>  (143) 
-0

>  <r_i_glide_rewards>  (143) 
-0.7196

>  <r_i_glide_evdw>  (143) 
-19.2049

>  <r_i_glide_ecoul>  (143) 
-9.98542

>  <r_i_glide_erotb>  (143) 
0

>  <r_i_glide_esite>  (143) 
0

>  <r_i_glide_emodel>  (143) 
-35.1425

>  <r_i_glide_energy>  (143) 
-29.1904

>  <r_i_glide_einternal>  (143) 
1.68228

>  <r_i_glide_intrahb_reward>  (143) 
-0

>  <i_i_glide_confnum>  (143) 
2

>  <i_i_glide_posenum>  (143) 
32

>  <r_i_glide_eff_state_penalty>  (143) 
0

>  <ligand_id>  (143) 
49

>  <original_smiles>  (143) 
C=C1C2CC3(C)CC4(O)C5OCC2(CC54C1O)C1(O)C(O)CC(C)(O)C1C3O

>  <smiles>  (143) 
[H]OC1([H])C(=C([H])[H])C2([H])C([H])([H])C3(C([H])([H])[H])C([H])([H])C4(O[H])C5([H])OC([H])([H])C2(C([H])([H])C154)C1(O[H])C([H])(O[H])C([H])([H])C(O[H])(C([H])([H])[H])C1([H])C3([H])O[H]

$$$$
49:2:2
     RDKit          3D

 58 63  0  0  1  0  0  0  0  0999 V2000
    1.5469   -2.8083    5.4445 C   0  0  0  0  0  0  0  0  0  0  0  0
    2.3710   -3.4875    4.6260 C   0  0  0  0  0  0  0  0  0  0  0  0
    2.4544   -3.2996    3.1483 C   0  0  2  0  0  0  0  0  0  0  0  0
    2.1194   -4.6927    2.4936 C   0  0  0  0  0  0  0  0  0  0  0  0
    3.2394   -5.6485    1.9323 C   0  0  2  0  0  0  0  0  0  0  0  0
    2.4606   -6.9316    1.5354 C   0  0  0  0  0  0  0  0  0  0  0  0
    4.3568   -6.3018    3.0034 C   0  0  0  0  0  0  0  0  0  0  0  0
    5.4557   -5.5318    3.9278 C   0  0  2  0  0  0  0  0  0  0  0  0
    6.6829   -5.5724    3.2152 O   0  0  0  0  0  0  0  0  0  0  0  0
    5.7798   -4.1558    4.9143 C   0  0  2  0  0  0  0  0  0  0  0  0
    5.2337   -2.7204    5.0501 O   0  0  0  0  0  0  0  0  0  0  0  0
    4.5600   -1.8341    3.9892 C   0  0  0  0  0  0  0  0  0  0  0  0
    3.8527   -2.6411    2.7970 C   0  0  1  0  0  0  0  0  0  0  0  0
    4.8926   -3.6173    2.8669 C   0  0  0  0  0  0  0  0  0  0  0  0
    4.6990   -4.4065    4.1504 C   0  0  1  0  0  0  0  0  0  0  0  0
    3.3754   -4.5249    5.0150 C   0  0  1  0  0  0  0  0  0  0  0  0
    3.5442   -4.5765    6.4272 O   0  0  0  0  0  0  0  0  0  0  0  0
    3.8223   -2.2122    1.2844 C   0  0  1  0  0  0  0  0  0  0  0  0
    2.7509   -1.2695    1.2612 O   0  0  0  0  0  0  0  0  0  0  0  0
    4.9876   -1.4103    0.6381 C   0  0  1  0  0  0  0  0  0  0  0  0
    6.2730   -1.9845    0.7733 O   0  0  0  0  0  0  0  0  0  0  0  0
    4.6370   -1.4485   -0.8591 C   0  0  0  0  0  0  0  0  0  0  0  0
    4.0760   -2.8554   -1.1406 C   0  0  1  0  0  0  0  0  0  0  0  0
    3.0420   -2.8501   -2.2789 C   0  0  0  0  0  0  0  0  0  0  0  0
    5.1738   -3.5830   -1.6490 O   0  0  0  0  0  0  0  0  0  0  0  0
    3.5068   -3.3900    0.2324 C   0  0  1  0  0  0  0  0  0  0  0  0
    3.6778   -4.9924    0.5240 C   0  0  1  0  0  0  0  0  0  0  0  0
    4.9202   -5.5832    0.1520 O   0  0  0  0  0  0  0  0  0  0  0  0
    1.5402   -2.9893    6.5088 H   0  0  0  0  0  0  0  0  0  0  0  0
    0.8643   -2.0678    5.0540 H   0  0  0  0  0  0  0  0  0  0  0  0
    1.6412   -2.6143    2.9162 H   0  0  0  0  0  0  0  0  0  0  0  0
    1.4794   -5.2569    3.1716 H   0  0  0  0  0  0  0  0  0  0  0  0
    1.4352   -4.4914    1.6755 H   0  0  0  0  0  0  0  0  0  0  0  0
    3.1150   -7.6411    1.0203 H   0  0  0  0  0  0  0  0  0  0  0  0
    1.6195   -6.7240    0.8686 H   0  0  0  0  0  0  0  0  0  0  0  0
    2.0479   -7.4444    2.4044 H   0  0  0  0  0  0  0  0  0  0  0  0
    3.8080   -6.9523    3.6852 H   0  0  0  0  0  0  0  0  0  0  0  0
    4.9240   -7.0431    2.4312 H   0  0  0  0  0  0  0  0  0  0  0  0
    7.0393   -6.4431    3.2871 H   0  0  0  0  0  0  0  0  0  0  0  0
    5.9421   -4.5021    5.9370 H   0  0  0  0  0  0  0  0  0  0  0  0
    3.8350   -1.2075    4.5098 H   0  0  0  0  0  0  0  0  0  0  0  0
    5.2988   -1.1443    3.5776 H   0  0  0  0  0  0  0  0  0  0  0  0
    5.1495   -4.1714    2.0070 H   0  0  0  0  0  0  0  0  0  0  0  0
    5.8909   -3.1588    2.8431 H   0  0  0  0  0  0  0  0  0  0  0  0
    2.8799   -5.4713    4.8160 H   0  0  0  0  0  0  0  0  0  0  0  0
    4.0546   -3.8231    6.6821 H   0  0  0  0  0  0  0  0  0  0  0  0
    2.4310   -1.1317    0.3731 H   0  0  0  0  0  0  0  0  0  0  0  0
    5.0422   -0.3868    1.0102 H   0  0  0  0  0  0  0  0  0  0  0  0
    6.2343   -2.8710    0.4412 H   0  0  0  0  0  0  0  0  0  0  0  0
    3.8659   -0.7008   -1.0512 H   0  0  0  0  0  0  0  0  0  0  0  0
    5.4781   -1.1789   -1.5035 H   0  0  0  0  0  0  0  0  0  0  0  0
    2.1809   -2.2400   -2.0253 H   0  0  0  0  0  0  0  0  0  0  0  0
    2.6672   -3.8502   -2.4942 H   0  0  0  0  0  0  0  0  0  0  0  0
    3.4603   -2.4459   -3.2017 H   0  0  0  0  0  0  0  0  0  0  0  0
    4.8749   -4.4626   -1.8431 H   0  0  0  0  0  0  0  0  0  0  0  0
    2.4276   -3.3094    0.1152 H   0  0  0  0  0  0  0  0  0  0  0  0
    3.0170   -5.4080   -0.2355 H   0  0  0  0  0  0  0  0  0  0  0  0
    5.5960   -5.2807    0.7428 H   0  0  0  0  0  0  0  0  0  0  0  0
  1  2  2  0
  1 29  1  0
  1 30  1  0
  2 16  1  0
  2  3  1  0
  3 13  1  0
  3  4  1  0
  3 31  1  6
  4  5  1  0
  4 32  1  0
  4 33  1  0
  5 27  1  0
  5  6  1  6
  5  7  1  0
  6 34  1  0
  6 35  1  0
  6 36  1  0
  7  8  1  0
  7 37  1  0
  7 38  1  0
  8 15  1  0
  8  9  1  6
  8 10  1  0
  9 39  1  0
 10 15  1  0
 10 11  1  0
 10 40  1  1
 11 12  1  0
 13 12  1  1
 12 41  1  0
 12 42  1  0
 13 14  1  0
 13 18  1  0
 15 14  1  6
 14 43  1  0
 14 44  1  0
 15 16  1  0
 16 17  1  0
 16 45  1  6
 17 46  1  0
 18 26  1  0
 18 19  1  1
 18 20  1  0
 19 47  1  0
 20 21  1  0
 20 22  1  0
 20 48  1  1
 21 49  1  0
 22 23  1  0
 22 50  1  0
 22 51  1  0
 23 24  1  0
 23 25  1  6
 23 26  1  0
 24 52  1  0
 24 53  1  0
 24 54  1  0
 25 55  1  0
 26 27  1  0
 26 56  1  6
 27 28  1  0
 27 57  1  6
 28 58  1  0
M  END
>  <i_m_ct_stereo_status>  (144) 
1

>  <s_m_source_file>  (144) 
/var/tmp/pbs.5076255.sched01/tmp1pt1fpgk/39zsbf0m6x.sdf

>  <i_m_source_file_index>  (144) 
20

>  <i_lp_mmshare_version>  (144) 
48012

>  <i_f3d_flags>  (144) 
0

>  <s_epik_input>  (144) 
W0NAXTEyM1tDQEBIXTRDKD1bQ0gyXSlbQ0BIXShbT0hdKVtDQF01KFtDSDJdMilDKFtPSF0pKFtDQEhdNU9bQ0gyXTEpW0NIMl1bQ0BdKFtDSDJdNCkoW0NIM10pW0NASF0oW09IXSlbQ0BIXTZbQ0BdMyhbT0hdKVtDQEBIXShbT0hdKVtDSDJdW0NAQF02KFtDSDNdKVtPSF0=

>  <s_epik_cmdline>  (144) 
J2VwaWtfcHl0aG9uJywgJy1waHQnLCAnMi4wJywgJy1waCcsICc3LjAnLCAnLXRuJywgJzgnLCAnLW1hJywgJzIwMCcsICctaW1hZScsICc8aW5maWxlLm1hZT4nLCAnLW9tYWUnLCAnPG91dGZpbGUubWFlPic=

>  <r_lp_tautomer_probability>  (144) 
1

>  <r_epik_Ionization_Penalty>  (144) 
2.07179e-06

>  <r_epik_Ionization_Penalty_Charging>  (144) 
0

>  <r_epik_Ionization_Penalty_Neutral>  (144) 
2.07179e-06

>  <r_epik_State_Penalty>  (144) 
-0

>  <r_epik_Charging_Adjusted_Penalty>  (144) 
0

>  <i_epik_Tot_Q>  (144) 
0

>  <i_epik_Tot_abs_Q>  (144) 
0

>  <s_lp_Force_Field>  (144) 
OPLS3e

>  <r_lp_Energy>  (144) 
277.482

>  <b_lp_Chiralities_Consistent>  (144) 
1

>  <s_lp_Variant>  (144) 
49:0-3

>  <s_i_glide_gridfile>  (144) 
pfpi4k_grid

>  <i_i_glide_lignum>  (144) 
20

>  <i_i_glide_rotatable_bonds>  (144) 
6

>  <r_i_docking_score>  (144) 
-2.74026

>  <r_i_glide_ligand_efficiency>  (144) 
-0.0978664

>  <r_i_glide_ligand_efficiency_sa>  (144) 
-0.29718

>  <r_i_glide_ligand_efficiency_ln>  (144) 
-0.632532

>  <r_i_glide_gscore>  (144) 
-2.74026

>  <r_i_glide_lipo>  (144) 
-0.128829

>  <r_i_glide_hbond>  (144) 
-0.125821

>  <r_i_glide_metal>  (144) 
-0

>  <r_i_glide_rewards>  (144) 
-0.7196

>  <r_i_glide_evdw>  (144) 
-22.8667

>  <r_i_glide_ecoul>  (144) 
-4.15118

>  <r_i_glide_erotb>  (144) 
0

>  <r_i_glide_esite>  (144) 
0

>  <r_i_glide_emodel>  (144) 
-31.7945

>  <r_i_glide_energy>  (144) 
-27.0178

>  <r_i_glide_einternal>  (144) 
0.953655

>  <r_i_glide_intrahb_reward>  (144) 
-0

>  <i_i_glide_confnum>  (144) 
2

>  <i_i_glide_posenum>  (144) 
12

>  <r_i_glide_eff_state_penalty>  (144) 
0

>  <ligand_id>  (144) 
49

>  <original_smiles>  (144) 
C=C1C2CC3(C)CC4(O)C5OCC2(CC54C1O)C1(O)C(O)CC(C)(O)C1C3O

>  <smiles>  (144) 
[H]OC1([H])C(=C([H])[H])C2([H])C([H])([H])C3(C([H])([H])[H])C([H])([H])C4(O[H])C5([H])OC([H])([H])C2(C([H])([H])C154)C1(O[H])C([H])(O[H])C([H])([H])C(O[H])(C([H])([H])[H])C1([H])C3([H])O[H]

$$$$
49:3:0
     RDKit          3D

 58 63  0  0  1  0  0  0  0  0999 V2000
    1.5169   -8.1870    1.9302 C   0  0  0  0  0  0  0  0  0  0  0  0
    2.5606   -7.4057    2.2629 C   0  0  0  0  0  0  0  0  0  0  0  0
    3.2521   -6.4605    1.3352 C   0  0  2  0  0  0  0  0  0  0  0  0
    4.7821   -6.8940    1.2615 C   0  0  0  0  0  0  0  0  0  0  0  0
    5.9469   -5.9957    1.8481 C   0  0  2  0  0  0  0  0  0  0  0  0
    7.2496   -6.7878    1.5418 C   0  0  0  0  0  0  0  0  0  0  0  0
    6.0748   -5.7681    3.5157 C   0  0  0  0  0  0  0  0  0  0  0  0
    4.8775   -5.7548    4.6152 C   0  0  1  0  0  0  0  0  0  0  0  0
    5.1277   -6.7333    5.6061 O   0  0  0  0  0  0  0  0  0  0  0  0
    3.3349   -5.1061    4.9882 C   0  0  0  0  0  0  0  0  0  0  0  0
    1.9624   -5.0638    4.2898 O   0  0  0  0  0  0  0  0  0  0  0  0
    1.6799   -4.7560    2.8143 C   0  0  0  0  0  0  0  0  0  0  0  0
    2.9202   -4.9799    1.8047 C   0  0  1  0  0  0  0  0  0  0  0  0
    3.7922   -4.6581    2.8781 C   0  0  0  0  0  0  0  0  0  0  0  0
    3.7476   -5.8412    3.8789 C   0  0  1  0  0  0  0  0  0  0  0  0
    3.1913   -7.2910    3.6156 C   0  0  1  0  0  0  0  0  0  0  0  0
    2.3503   -7.8067    4.6367 O   0  0  0  0  0  0  0  0  0  0  0  0
    3.2914   -4.0152    0.6237 C   0  0  1  0  0  0  0  0  0  0  0  0
    2.2944   -4.3175   -0.3448 O   0  0  0  0  0  0  0  0  0  0  0  0
    3.1897   -2.4695    0.7352 C   0  0  1  0  0  0  0  0  0  0  0  0
    3.9515   -1.8746    1.7646 O   0  0  0  0  0  0  0  0  0  0  0  0
    3.8106   -1.9779   -0.5837 C   0  0  0  0  0  0  0  0  0  0  0  0
    4.9314   -2.9798   -0.9530 C   0  0  1  0  0  0  0  0  0  0  0  0
    4.8883   -3.3558   -2.4470 C   0  0  0  0  0  0  0  0  0  0  0  0
    6.1561   -2.2803   -0.8048 O   0  0  0  0  0  0  0  0  0  0  0  0
    4.7287   -4.2420   -0.0206 C   0  0  1  0  0  0  0  0  0  0  0  0
    6.0056   -4.7022    0.8613 C   0  0  1  0  0  0  0  0  0  0  0  0
    6.6499   -3.6137    1.5042 O   0  0  0  0  0  0  0  0  0  0  0  0
    1.0394   -8.8383    2.6476 H   0  0  0  0  0  0  0  0  0  0  0  0
    1.1222   -8.1855    0.9253 H   0  0  0  0  0  0  0  0  0  0  0  0
    2.8086   -6.6443    0.3612 H   0  0  0  0  0  0  0  0  0  0  0  0
    4.9080   -7.9075    1.6429 H   0  0  0  0  0  0  0  0  0  0  0  0
    4.9986   -7.0445    0.2047 H   0  0  0  0  0  0  0  0  0  0  0  0
    8.1354   -6.2206    1.8323 H   0  0  0  0  0  0  0  0  0  0  0  0
    7.3594   -7.0315    0.4848 H   0  0  0  0  0  0  0  0  0  0  0  0
    7.2777   -7.7358    2.0791 H   0  0  0  0  0  0  0  0  0  0  0  0
    6.7736   -6.5209    3.8871 H   0  0  0  0  0  0  0  0  0  0  0  0
    6.6129   -4.8534    3.6950 H   0  0  0  0  0  0  0  0  0  0  0  0
    5.0039   -7.5865    5.2158 H   0  0  0  0  0  0  0  0  0  0  0  0
    3.0568   -5.5276    5.9582 H   0  0  0  0  0  0  0  0  0  0  0  0
    0.8138   -5.3387    2.4988 H   0  0  0  0  0  0  0  0  0  0  0  0
    1.3723   -3.7097    2.7681 H   0  0  0  0  0  0  0  0  0  0  0  0
    4.7037   -4.1557    2.6845 H   0  0  0  0  0  0  0  0  0  0  0  0
    3.5190   -3.6831    3.3218 H   0  0  0  0  0  0  0  0  0  0  0  0
    4.0412   -7.9713    3.5992 H   0  0  0  0  0  0  0  0  0  0  0  0
    2.2180   -8.7339    4.4893 H   0  0  0  0  0  0  0  0  0  0  0  0
    2.6483   -4.9355   -0.9749 H   0  0  0  0  0  0  0  0  0  0  0  0
    2.1597   -2.1350    0.8466 H   0  0  0  0  0  0  0  0  0  0  0  0
    3.7804   -0.9428    1.7347 H   0  0  0  0  0  0  0  0  0  0  0  0
    3.0347   -1.9993   -1.3515 H   0  0  0  0  0  0  0  0  0  0  0  0
    4.1455   -0.9379   -0.5446 H   0  0  0  0  0  0  0  0  0  0  0  0
    3.9523   -3.8515   -2.7094 H   0  0  0  0  0  0  0  0  0  0  0  0
    5.7017   -4.0369   -2.6965 H   0  0  0  0  0  0  0  0  0  0  0  0
    4.9859   -2.4751   -3.0824 H   0  0  0  0  0  0  0  0  0  0  0  0
    6.3135   -2.1875    0.1291 H   0  0  0  0  0  0  0  0  0  0  0  0
    4.5960   -5.0810   -0.7036 H   0  0  0  0  0  0  0  0  0  0  0  0
    6.7188   -4.9552    0.0760 H   0  0  0  0  0  0  0  0  0  0  0  0
    6.0976   -3.3031    2.2079 H   0  0  0  0  0  0  0  0  0  0  0  0
  1  2  2  0
  1 29  1  0
  1 30  1  0
  2 16  1  0
  2  3  1  0
  3 13  1  0
  3  4  1  0
  3 31  1  6
  4  5  1  0
  4 32  1  0
  4 33  1  0
  5 27  1  0
  5  6  1  6
  5  7  1  0
  6 34  1  0
  6 35  1  0
  6 36  1  0
  7  8  1  0
  7 37  1  0
  7 38  1  0
  8 15  1  0
  8  9  1  1
  8 10  1  0
  9 39  1  0
 15 10  1  1
 10 11  1  0
 10 40  1  0
 11 12  1  0
 13 12  1  1
 12 41  1  0
 12 42  1  0
 13 14  1  0
 13 18  1  0
 14 15  1  0
 14 43  1  0
 14 44  1  0
 15 16  1  0
 16 17  1  0
 16 45  1  6
 17 46  1  0
 18 26  1  0
 18 19  1  6
 18 20  1  0
 19 47  1  0
 20 21  1  0
 20 22  1  0
 20 48  1  1
 21 49  1  0
 22 23  1  0
 22 50  1  0
 22 51  1  0
 23 24  1  0
 23 25  1  1
 23 26  1  0
 24 52  1  0
 24 53  1  0
 24 54  1  0
 25 55  1  0
 26 27  1  0
 26 56  1  6
 27 28  1  0
 27 57  1  6
 28 58  1  0
M  END
>  <i_m_ct_stereo_status>  (145) 
1

>  <s_m_source_file>  (145) 
/var/tmp/pbs.5076255.sched01/tmp1pt1fpgk/39zsbf0m6x.sdf

>  <i_m_source_file_index>  (145) 
21

>  <i_lp_mmshare_version>  (145) 
48012

>  <i_f3d_flags>  (145) 
0

>  <s_epik_input>  (145) 
W0NAXTEyM1tDQEBIXTRDKD1bQ0gyXSlbQ0BIXShbT0hdKVtDQF01KFtDSDJdMilDKFtPSF0pKFtDQEhdNU9bQ0gyXTEpW0NIMl1bQ0BdKFtDSDJdNCkoW0NIM10pW0NASF0oW09IXSlbQ0BIXTZbQ0BdMyhbT0hdKVtDQEBIXShbT0hdKVtDSDJdW0NAQF02KFtDSDNdKVtPSF0=

>  <s_epik_cmdline>  (145) 
J2VwaWtfcHl0aG9uJywgJy1waHQnLCAnMi4wJywgJy1waCcsICc3LjAnLCAnLXRuJywgJzgnLCAnLW1hJywgJzIwMCcsICctaW1hZScsICc8aW5maWxlLm1hZT4nLCAnLW9tYWUnLCAnPG91dGZpbGUubWFlPic=

>  <r_lp_tautomer_probability>  (145) 
1

>  <r_epik_Ionization_Penalty>  (145) 
2.07179e-06

>  <r_epik_Ionization_Penalty_Charging>  (145) 
0

>  <r_epik_Ionization_Penalty_Neutral>  (145) 
2.07179e-06

>  <r_epik_State_Penalty>  (145) 
-0

>  <r_epik_Charging_Adjusted_Penalty>  (145) 
0

>  <i_epik_Tot_Q>  (145) 
0

>  <i_epik_Tot_abs_Q>  (145) 
0

>  <s_lp_Force_Field>  (145) 
OPLS3e

>  <r_lp_Energy>  (145) 
267.99

>  <b_lp_Chiralities_Consistent>  (145) 
1

>  <s_lp_Variant>  (145) 
49:0-4

>  <s_i_glide_gridfile>  (145) 
pfpi4k_grid

>  <i_i_glide_lignum>  (145) 
21

>  <i_i_glide_rotatable_bonds>  (145) 
6

>  <r_i_docking_score>  (145) 
-4.13411

>  <r_i_glide_ligand_efficiency>  (145) 
-0.147647

>  <r_i_glide_ligand_efficiency_sa>  (145) 
-0.448343

>  <r_i_glide_ligand_efficiency_ln>  (145) 
-0.954274

>  <r_i_glide_gscore>  (145) 
-4.13411

>  <r_i_glide_lipo>  (145) 
-0.502406

>  <r_i_glide_hbond>  (145) 
-0.32

>  <r_i_glide_metal>  (145) 
-0

>  <r_i_glide_rewards>  (145) 
-1.2196

>  <r_i_glide_evdw>  (145) 
-23.9374

>  <r_i_glide_ecoul>  (145) 
-5.96825

>  <r_i_glide_erotb>  (145) 
0

>  <r_i_glide_esite>  (145) 
0

>  <r_i_glide_emodel>  (145) 
-41.9754

>  <r_i_glide_energy>  (145) 
-29.9056

>  <r_i_glide_einternal>  (145) 
1.73264

>  <r_i_glide_intrahb_reward>  (145) 
-0.5

>  <i_i_glide_confnum>  (145) 
1

>  <i_i_glide_posenum>  (145) 
2

>  <r_i_glide_eff_state_penalty>  (145) 
0

>  <ligand_id>  (145) 
49

>  <original_smiles>  (145) 
C=C1C2CC3(C)CC4(O)C5OCC2(CC54C1O)C1(O)C(O)CC(C)(O)C1C3O

>  <smiles>  (145) 
[H]OC1([H])C(=C([H])[H])C2([H])C([H])([H])C3(C([H])([H])[H])C([H])([H])C4(O[H])C5([H])OC([H])([H])C2(C([H])([H])C154)C1(O[H])C([H])(O[H])C([H])([H])C(O[H])(C([H])([H])[H])C1([H])C3([H])O[H]

$$$$
51:0:0
     RDKit          3D

 13 14  0  0  1  0  0  0  0  0999 V2000
   -1.4226   -1.0674    5.7114 O   0  0  0  0  0  0  0  0  0  0  0  0
   -1.3889    0.2015    5.2017 C   0  0  0  0  0  0  0  0  0  0  0  0
   -0.9834    0.4790    3.9178 C   0  0  0  0  0  0  0  0  0  0  0  0
   -1.0141    1.8273    3.4790 C   0  0  0  0  0  0  0  0  0  0  0  0
   -1.4069    2.8511    4.2322 N   0  0  0  0  0  0  0  0  0  0  0  0
   -1.7881    2.5651    5.4886 C   0  0  0  0  0  0  0  0  0  0  0  0
   -2.2223    3.3758    6.4492 N   0  0  0  0  0  0  0  0  0  0  0  0
   -2.4513    2.5313    7.4938 C   0  0  0  0  0  0  0  0  0  0  0  0
   -2.2066    1.2444    7.2779 N   0  0  0  0  0  0  0  0  0  0  0  0
   -1.7833    1.2474    5.9861 N   0  0  0  0  0  0  0  0  0  0  0  0
   -0.6484   -0.3119    3.2603 H   0  0  0  0  0  0  0  0  0  0  0  0
   -0.7013    2.0721    2.4656 H   0  0  0  0  0  0  0  0  0  0  0  0
   -2.8187    2.8766    8.4478 H   0  0  0  0  0  0  0  0  0  0  0  0
  1  2  1  0
  2 10  1  0
  2  3  2  0
  3  4  1  0
  3 11  1  0
  4  5  2  0
  4 12  1  0
  5  6  1  0
  6 10  1  0
  6  7  2  0
  7  8  1  0
  8  9  2  0
  8 13  1  0
  9 10  1  0
M  CHG  1   1  -1
M  END
>  <i_m_ct_stereo_status>  (146) 
1

>  <s_m_source_file>  (146) 
/var/tmp/pbs.5076255.sched01/tmp1pt1fpgk/39zsbf0m6x.sdf

>  <i_m_source_file_index>  (146) 
23

>  <i_lp_mmshare_version>  (146) 
48012

>  <i_f3d_flags>  (146) 
0

>  <s_epik_input>  (146) 
W25IXTFbY0hdW2NIXWMoPU8pbihjMTIpbltjSF1uMg==

>  <s_epik_cmdline>  (146) 
J2VwaWtfcHl0aG9uJywgJy1waHQnLCAnMi4wJywgJy1waCcsICc3LjAnLCAnLXRuJywgJzgnLCAnLW1hJywgJzIwMCcsICctaW1hZScsICc8aW5maWxlLm1hZT4nLCAnLW9tYWUnLCAnPG91dGZpbGUubWFlPic=

>  <r_epik_Ionization_Penalty>  (146) 
0.0650803

>  <r_epik_Ionization_Penalty_Charging>  (146) 
2.38502e-12

>  <r_epik_Ionization_Penalty_Neutral>  (146) 
0.0650803

>  <r_epik_State_Penalty>  (146) 
0.0567148

>  <r_epik_Charging_Adjusted_Penalty>  (146) 
0.0567148

>  <i_epik_Tot_Q>  (146) 
-1

>  <i_epik_Tot_abs_Q>  (146) 
1

>  <s_lp_Force_Field>  (146) 
OPLS3e

>  <r_lp_Energy>  (146) 
7.10548

>  <b_lp_Chiralities_Consistent>  (146) 
1

>  <s_lp_Variant>  (146) 
51:0-1

>  <s_i_glide_gridfile>  (146) 
pfpi4k_grid

>  <i_i_glide_lignum>  (146) 
23

>  <i_i_glide_rotatable_bonds>  (146) 
0

>  <r_i_docking_score>  (146) 
-4.03169

>  <r_i_glide_ligand_efficiency>  (146) 
-0.403169

>  <r_i_glide_ligand_efficiency_sa>  (146) 
-0.868601

>  <r_i_glide_ligand_efficiency_ln>  (146) 
-1.22077

>  <r_i_glide_gscore>  (146) 
-4.03169

>  <r_i_glide_lipo>  (146) 
0

>  <r_i_glide_hbond>  (146) 
-0.160934

>  <r_i_glide_metal>  (146) 
-0

>  <r_i_glide_rewards>  (146) 
-2.42848

>  <r_i_glide_evdw>  (146) 
-11.8498

>  <r_i_glide_ecoul>  (146) 
-5.39045

>  <r_i_glide_erotb>  (146) 
0

>  <r_i_glide_esite>  (146) 
-0.041221

>  <r_i_glide_emodel>  (146) 
-24.9021

>  <r_i_glide_energy>  (146) 
-17.2402

>  <r_i_glide_einternal>  (146) 
0

>  <r_i_glide_intrahb_reward>  (146) 
-0

>  <i_i_glide_confnum>  (146) 
1

>  <i_i_glide_posenum>  (146) 
2

>  <r_i_glide_eff_state_penalty>  (146) 
0

>  <ligand_id>  (146) 
51

>  <original_smiles>  (146) 
O=c1cc[nH]c2ncnn12

>  <smiles>  (146) 
[H]c1nc2nc([H])c([H])c([O-])n2n1

$$$$
51:0:1
     RDKit          3D

 13 14  0  0  1  0  0  0  0  0999 V2000
   -1.3805    4.3280    4.8231 O   0  0  0  0  0  0  0  0  0  0  0  0
   -1.6542    3.2552    5.6273 C   0  0  0  0  0  0  0  0  0  0  0  0
   -2.1411    3.3886    6.9039 C   0  0  0  0  0  0  0  0  0  0  0  0
   -2.3887    2.2124    7.6488 C   0  0  0  0  0  0  0  0  0  0  0  0
   -2.1855    0.9781    7.1976 N   0  0  0  0  0  0  0  0  0  0  0  0
   -1.7082    0.8661    5.9459 C   0  0  0  0  0  0  0  0  0  0  0  0
   -1.4304   -0.2313    5.2482 N   0  0  0  0  0  0  0  0  0  0  0  0
   -0.9776    0.2741    4.0641 C   0  0  0  0  0  0  0  0  0  0  0  0
   -0.9675    1.5951    3.9446 N   0  0  0  0  0  0  0  0  0  0  0  0
   -1.4393    1.9927    5.1539 N   0  0  0  0  0  0  0  0  0  0  0  0
   -2.3192    4.3654    7.3363 H   0  0  0  0  0  0  0  0  0  0  0  0
   -2.7779    2.2936    8.6597 H   0  0  0  0  0  0  0  0  0  0  0  0
   -0.6436   -0.3562    3.2564 H   0  0  0  0  0  0  0  0  0  0  0  0
  1  2  1  0
  2 10  1  0
  2  3  2  0
  3  4  1  0
  3 11  1  0
  4  5  2  0
  4 12  1  0
  5  6  1  0
  6 10  1  0
  6  7  2  0
  7  8  1  0
  8  9  2  0
  8 13  1  0
  9 10  1  0
M  CHG  1   1  -1
M  END
>  <i_m_ct_stereo_status>  (147) 
1

>  <s_m_source_file>  (147) 
/var/tmp/pbs.5076255.sched01/tmp1pt1fpgk/39zsbf0m6x.sdf

>  <i_m_source_file_index>  (147) 
23

>  <i_lp_mmshare_version>  (147) 
48012

>  <i_f3d_flags>  (147) 
0

>  <s_epik_input>  (147) 
W25IXTFbY0hdW2NIXWMoPU8pbihjMTIpbltjSF1uMg==

>  <s_epik_cmdline>  (147) 
J2VwaWtfcHl0aG9uJywgJy1waHQnLCAnMi4wJywgJy1waCcsICc3LjAnLCAnLXRuJywgJzgnLCAnLW1hJywgJzIwMCcsICctaW1hZScsICc8aW5maWxlLm1hZT4nLCAnLW9tYWUnLCAnPG91dGZpbGUubWFlPic=

>  <r_epik_Ionization_Penalty>  (147) 
0.0650803

>  <r_epik_Ionization_Penalty_Charging>  (147) 
2.38502e-12

>  <r_epik_Ionization_Penalty_Neutral>  (147) 
0.0650803

>  <r_epik_State_Penalty>  (147) 
0.0567148

>  <r_epik_Charging_Adjusted_Penalty>  (147) 
0.0567148

>  <i_epik_Tot_Q>  (147) 
-1

>  <i_epik_Tot_abs_Q>  (147) 
1

>  <s_lp_Force_Field>  (147) 
OPLS3e

>  <r_lp_Energy>  (147) 
7.10548

>  <b_lp_Chiralities_Consistent>  (147) 
1

>  <s_lp_Variant>  (147) 
51:0-1

>  <s_i_glide_gridfile>  (147) 
pfpi4k_grid

>  <i_i_glide_lignum>  (147) 
23

>  <i_i_glide_rotatable_bonds>  (147) 
0

>  <r_i_docking_score>  (147) 
-3.51467

>  <r_i_glide_ligand_efficiency>  (147) 
-0.351467

>  <r_i_glide_ligand_efficiency_sa>  (147) 
-0.757213

>  <r_i_glide_ligand_efficiency_ln>  (147) 
-1.06422

>  <r_i_glide_gscore>  (147) 
-3.51467

>  <r_i_glide_lipo>  (147) 
-0.081822

>  <r_i_glide_hbond>  (147) 
-0.16

>  <r_i_glide_metal>  (147) 
-0

>  <r_i_glide_rewards>  (147) 
-2.25

>  <r_i_glide_evdw>  (147) 
-9.37658

>  <r_i_glide_ecoul>  (147) 
-3.08105

>  <r_i_glide_erotb>  (147) 
0

>  <r_i_glide_esite>  (147) 
-0.0918611

>  <r_i_glide_emodel>  (147) 
-19.1382

>  <r_i_glide_energy>  (147) 
-12.4576

>  <r_i_glide_einternal>  (147) 
0

>  <r_i_glide_intrahb_reward>  (147) 
-0

>  <i_i_glide_confnum>  (147) 
1

>  <i_i_glide_posenum>  (147) 
3

>  <r_i_glide_eff_state_penalty>  (147) 
0

>  <ligand_id>  (147) 
51

>  <original_smiles>  (147) 
O=c1cc[nH]c2ncnn12

>  <smiles>  (147) 
[H]c1nc2nc([H])c([H])c([O-])n2n1

$$$$
51:0:2
     RDKit          3D

 13 14  0  0  1  0  0  0  0  0999 V2000
    1.8161   -2.6873    3.5295 O   0  0  0  0  0  0  0  0  0  0  0  0
    0.8758   -2.8452    4.5074 C   0  0  0  0  0  0  0  0  0  0  0  0
    0.8117   -3.9643    5.3013 C   0  0  0  0  0  0  0  0  0  0  0  0
   -0.2021   -4.0233    6.2880 C   0  0  0  0  0  0  0  0  0  0  0  0
   -1.1091   -3.0695    6.4914 N   0  0  0  0  0  0  0  0  0  0  0  0
   -1.0320   -1.9838    5.7012 C   0  0  0  0  0  0  0  0  0  0  0  0
   -1.8045   -0.9008    5.6793 N   0  0  0  0  0  0  0  0  0  0  0  0
   -1.2432   -0.1421    4.6929 C   0  0  0  0  0  0  0  0  0  0  0  0
   -0.1878   -0.6599    4.0801 N   0  0  0  0  0  0  0  0  0  0  0  0
   -0.0436   -1.8564    4.7152 N   0  0  0  0  0  0  0  0  0  0  0  0
    1.5214   -4.7736    5.1785 H   0  0  0  0  0  0  0  0  0  0  0  0
   -0.2769   -4.9005    6.9261 H   0  0  0  0  0  0  0  0  0  0  0  0
   -1.6344    0.8261    4.4146 H   0  0  0  0  0  0  0  0  0  0  0  0
  1  2  1  0
  2 10  1  0
  2  3  2  0
  3  4  1  0
  3 11  1  0
  4  5  2  0
  4 12  1  0
  5  6  1  0
  6 10  1  0
  6  7  2  0
  7  8  1  0
  8  9  2  0
  8 13  1  0
  9 10  1  0
M  CHG  1   1  -1
M  END
>  <i_m_ct_stereo_status>  (148) 
1

>  <s_m_source_file>  (148) 
/var/tmp/pbs.5076255.sched01/tmp1pt1fpgk/39zsbf0m6x.sdf

>  <i_m_source_file_index>  (148) 
23

>  <i_lp_mmshare_version>  (148) 
48012

>  <i_f3d_flags>  (148) 
0

>  <s_epik_input>  (148) 
W25IXTFbY0hdW2NIXWMoPU8pbihjMTIpbltjSF1uMg==

>  <s_epik_cmdline>  (148) 
J2VwaWtfcHl0aG9uJywgJy1waHQnLCAnMi4wJywgJy1waCcsICc3LjAnLCAnLXRuJywgJzgnLCAnLW1hJywgJzIwMCcsICctaW1hZScsICc8aW5maWxlLm1hZT4nLCAnLW9tYWUnLCAnPG91dGZpbGUubWFlPic=

>  <r_epik_Ionization_Penalty>  (148) 
0.0650803

>  <r_epik_Ionization_Penalty_Charging>  (148) 
2.38502e-12

>  <r_epik_Ionization_Penalty_Neutral>  (148) 
0.0650803

>  <r_epik_State_Penalty>  (148) 
0.0567148

>  <r_epik_Charging_Adjusted_Penalty>  (148) 
0.0567148

>  <i_epik_Tot_Q>  (148) 
-1

>  <i_epik_Tot_abs_Q>  (148) 
1

>  <s_lp_Force_Field>  (148) 
OPLS3e

>  <r_lp_Energy>  (148) 
7.10548

>  <b_lp_Chiralities_Consistent>  (148) 
1

>  <s_lp_Variant>  (148) 
51:0-1

>  <s_i_glide_gridfile>  (148) 
pfpi4k_grid

>  <i_i_glide_lignum>  (148) 
23

>  <i_i_glide_rotatable_bonds>  (148) 
0

>  <r_i_docking_score>  (148) 
-3.09032

>  <r_i_glide_ligand_efficiency>  (148) 
-0.309032

>  <r_i_glide_ligand_efficiency_sa>  (148) 
-0.665789

>  <r_i_glide_ligand_efficiency_ln>  (148) 
-0.935728

>  <r_i_glide_gscore>  (148) 
-3.09032

>  <r_i_glide_lipo>  (148) 
-0.0190906

>  <r_i_glide_hbond>  (148) 
-0.0346644

>  <r_i_glide_metal>  (148) 
-0

>  <r_i_glide_rewards>  (148) 
-2.25

>  <r_i_glide_evdw>  (148) 
-10.1019

>  <r_i_glide_ecoul>  (148) 
-1.32889

>  <r_i_glide_erotb>  (148) 
0

>  <r_i_glide_esite>  (148) 
-0.0821365

>  <r_i_glide_emodel>  (148) 
-17.3043

>  <r_i_glide_energy>  (148) 
-11.4308

>  <r_i_glide_einternal>  (148) 
0

>  <r_i_glide_intrahb_reward>  (148) 
-0

>  <i_i_glide_confnum>  (148) 
1

>  <i_i_glide_posenum>  (148) 
21

>  <r_i_glide_eff_state_penalty>  (148) 
0

>  <ligand_id>  (148) 
51

>  <original_smiles>  (148) 
O=c1cc[nH]c2ncnn12

>  <smiles>  (148) 
[H]c1nc2nc([H])c([H])c([O-])n2n1

$$$$
51:1:0
     RDKit          3D

 14 15  0  0  1  0  0  0  0  0999 V2000
   -1.2456   -0.5244    5.4014 O   0  0  0  0  0  0  0  0  0  0  0  0
   -0.9581    0.3540    4.6034 C   0  0  0  0  0  0  0  0  0  0  0  0
   -0.1615    0.1493    3.3927 C   0  0  0  0  0  0  0  0  0  0  0  0
    0.0404    1.2189    2.6055 C   0  0  0  0  0  0  0  0  0  0  0  0
   -0.4654    2.4758    2.9038 N   0  0  0  0  0  0  0  0  0  0  0  0
   -1.2288    2.6836    4.0672 C   0  0  0  0  0  0  0  0  0  0  0  0
   -1.7759    3.8150    4.4825 N   0  0  0  0  0  0  0  0  0  0  0  0
   -2.3553    3.3805    5.6586 C   0  0  0  0  0  0  0  0  0  0  0  0
   -2.1807    2.0985    5.9750 N   0  0  0  0  0  0  0  0  0  0  0  0
   -1.4607    1.6638    4.9083 N   0  0  0  0  0  0  0  0  0  0  0  0
   -0.2804    3.2591    2.2786 H   0  0  0  0  0  0  0  0  0  0  0  0
    0.2317   -0.8316    3.1502 H   0  0  0  0  0  0  0  0  0  0  0  0
    0.6043    1.1779    1.6820 H   0  0  0  0  0  0  0  0  0  0  0  0
   -2.9211    4.0244    6.3166 H   0  0  0  0  0  0  0  0  0  0  0  0
  1  2  2  0
  2 10  1  0
  2  3  1  0
  3  4  2  0
  3 12  1  0
  4  5  1  0
  4 13  1  0
  5 11  1  0
  5  6  1  0
  6 10  1  0
  6  7  2  0
  7  8  1  0
  8  9  2  0
  8 14  1  0
  9 10  1  0
M  END
>  <i_m_ct_stereo_status>  (149) 
1

>  <s_m_source_file>  (149) 
/var/tmp/pbs.5076255.sched01/tmp1pt1fpgk/39zsbf0m6x.sdf

>  <i_m_source_file_index>  (149) 
24

>  <i_lp_mmshare_version>  (149) 
48012

>  <i_f3d_flags>  (149) 
0

>  <s_epik_input>  (149) 
W25IXTFbY0hdW2NIXWMoPU8pbihjMTIpbltjSF1uMg==

>  <s_epik_cmdline>  (149) 
J2VwaWtfcHl0aG9uJywgJy1waHQnLCAnMi4wJywgJy1waCcsICc3LjAnLCAnLXRuJywgJzgnLCAnLW1hJywgJzIwMCcsICctaW1hZScsICc8aW5maWxlLm1hZT4nLCAnLW9tYWUnLCAnPG91dGZpbGUubWFlPic=

>  <r_epik_Ionization_Penalty>  (149) 
1.34103

>  <r_epik_Ionization_Penalty_Charging>  (149) 
1.34103

>  <r_epik_Ionization_Penalty_Neutral>  (149) 
1.82832e-07

>  <r_epik_State_Penalty>  (149) 
1.41828

>  <r_epik_Charging_Adjusted_Penalty>  (149) 
2.75931

>  <i_epik_Tot_Q>  (149) 
0

>  <i_epik_Tot_abs_Q>  (149) 
0

>  <s_lp_Force_Field>  (149) 
OPLS3e

>  <r_lp_Energy>  (149) 
12.0829

>  <b_lp_Chiralities_Consistent>  (149) 
1

>  <s_lp_Variant>  (149) 
51:0-2

>  <s_i_glide_gridfile>  (149) 
pfpi4k_grid

>  <i_i_glide_lignum>  (149) 
24

>  <i_i_glide_rotatable_bonds>  (149) 
0

>  <r_i_docking_score>  (149) 
-4.08302

>  <r_i_glide_ligand_efficiency>  (149) 
-0.408302

>  <r_i_glide_ligand_efficiency_sa>  (149) 
-0.879659

>  <r_i_glide_ligand_efficiency_ln>  (149) 
-1.23631

>  <r_i_glide_gscore>  (149) 
-4.08302

>  <r_i_glide_lipo>  (149) 
0

>  <r_i_glide_hbond>  (149) 
-0.16

>  <r_i_glide_metal>  (149) 
-0

>  <r_i_glide_rewards>  (149) 
-2.25

>  <r_i_glide_evdw>  (149) 
-13.1773

>  <r_i_glide_ecoul>  (149) 
-5.81905

>  <r_i_glide_erotb>  (149) 
0

>  <r_i_glide_esite>  (149) 
-0.141293

>  <r_i_glide_emodel>  (149) 
-25.0304

>  <r_i_glide_energy>  (149) 
-18.9964

>  <r_i_glide_einternal>  (149) 
0

>  <r_i_glide_intrahb_reward>  (149) 
-0

>  <i_i_glide_confnum>  (149) 
2

>  <i_i_glide_posenum>  (149) 
4

>  <r_i_glide_eff_state_penalty>  (149) 
0

>  <ligand_id>  (149) 
51

>  <original_smiles>  (149) 
O=c1cc[nH]c2ncnn12

>  <smiles>  (149) 
[H]c1nc2n([H])c([H])c([H])c(=O)n2n1

$$$$
51:1:1
     RDKit          3D

 14 15  0  0  1  0  0  0  0  0999 V2000
   -1.7827    0.1931    5.9475 O   0  0  0  0  0  0  0  0  0  0  0  0
   -1.4333    0.9581    5.0425 C   0  0  0  0  0  0  0  0  0  0  0  0
   -1.9628    2.2979    4.8341 C   0  0  0  0  0  0  0  0  0  0  0  0
   -1.4930    3.0142    3.7901 C   0  0  0  0  0  0  0  0  0  0  0  0
   -0.5245    2.5280    2.9216 N   0  0  0  0  0  0  0  0  0  0  0  0
    0.0021    1.2447    3.1071 C   0  0  0  0  0  0  0  0  0  0  0  0
    0.9353    0.6408    2.3815 N   0  0  0  0  0  0  0  0  0  0  0  0
    1.0186   -0.5583    3.0436 C   0  0  0  0  0  0  0  0  0  0  0  0
    0.2185   -0.7115    4.1005 N   0  0  0  0  0  0  0  0  0  0  0  0
   -0.4296    0.4764    4.1239 N   0  0  0  0  0  0  0  0  0  0  0  0
   -0.1866    3.1004    2.1463 H   0  0  0  0  0  0  0  0  0  0  0  0
   -2.7210    2.6901    5.4953 H   0  0  0  0  0  0  0  0  0  0  0  0
   -1.8395    4.0119    3.5574 H   0  0  0  0  0  0  0  0  0  0  0  0
    1.6890   -1.3496    2.7373 H   0  0  0  0  0  0  0  0  0  0  0  0
  1  2  2  0
  2 10  1  0
  2  3  1  0
  3  4  2  0
  3 12  1  0
  4  5  1  0
  4 13  1  0
  5 11  1  0
  5  6  1  0
  6 10  1  0
  6  7  2  0
  7  8  1  0
  8  9  2  0
  8 14  1  0
  9 10  1  0
M  END
>  <i_m_ct_stereo_status>  (150) 
1

>  <s_m_source_file>  (150) 
/var/tmp/pbs.5076255.sched01/tmp1pt1fpgk/39zsbf0m6x.sdf

>  <i_m_source_file_index>  (150) 
24

>  <i_lp_mmshare_version>  (150) 
48012

>  <i_f3d_flags>  (150) 
0

>  <s_epik_input>  (150) 
W25IXTFbY0hdW2NIXWMoPU8pbihjMTIpbltjSF1uMg==

>  <s_epik_cmdline>  (150) 
J2VwaWtfcHl0aG9uJywgJy1waHQnLCAnMi4wJywgJy1waCcsICc3LjAnLCAnLXRuJywgJzgnLCAnLW1hJywgJzIwMCcsICctaW1hZScsICc8aW5maWxlLm1hZT4nLCAnLW9tYWUnLCAnPG91dGZpbGUubWFlPic=

>  <r_epik_Ionization_Penalty>  (150) 
1.34103

>  <r_epik_Ionization_Penalty_Charging>  (150) 
1.34103

>  <r_epik_Ionization_Penalty_Neutral>  (150) 
1.82832e-07

>  <r_epik_State_Penalty>  (150) 
1.41828

>  <r_epik_Charging_Adjusted_Penalty>  (150) 
2.75931

>  <i_epik_Tot_Q>  (150) 
0

>  <i_epik_Tot_abs_Q>  (150) 
0

>  <s_lp_Force_Field>  (150) 
OPLS3e

>  <r_lp_Energy>  (150) 
12.0829

>  <b_lp_Chiralities_Consistent>  (150) 
1

>  <s_lp_Variant>  (150) 
51:0-2

>  <s_i_glide_gridfile>  (150) 
pfpi4k_grid

>  <i_i_glide_lignum>  (150) 
24

>  <i_i_glide_rotatable_bonds>  (150) 
0

>  <r_i_docking_score>  (150) 
-4.0209

>  <r_i_glide_ligand_efficiency>  (150) 
-0.40209

>  <r_i_glide_ligand_efficiency_sa>  (150) 
-0.866277

>  <r_i_glide_ligand_efficiency_ln>  (150) 
-1.2175

>  <r_i_glide_gscore>  (150) 
-4.0209

>  <r_i_glide_lipo>  (150) 
0

>  <r_i_glide_hbond>  (150) 
-0.257004

>  <r_i_glide_metal>  (150) 
-0

>  <r_i_glide_rewards>  (150) 
-2.25

>  <r_i_glide_evdw>  (150) 
-13.2398

>  <r_i_glide_ecoul>  (150) 
-4.54971

>  <r_i_glide_erotb>  (150) 
0

>  <r_i_glide_esite>  (150) 
-0.16945

>  <r_i_glide_emodel>  (150) 
-23.7388

>  <r_i_glide_energy>  (150) 
-17.7895

>  <r_i_glide_einternal>  (150) 
0

>  <r_i_glide_intrahb_reward>  (150) 
-0

>  <i_i_glide_confnum>  (150) 
1

>  <i_i_glide_posenum>  (150) 
10

>  <r_i_glide_eff_state_penalty>  (150) 
0

>  <ligand_id>  (150) 
51

>  <original_smiles>  (150) 
O=c1cc[nH]c2ncnn12

>  <smiles>  (150) 
[H]c1nc2n([H])c([H])c([H])c(=O)n2n1

$$$$
51:1:2
     RDKit          3D

 14 15  0  0  1  0  0  0  0  0999 V2000
    1.9315   -3.8169   -1.1584 O   0  0  0  0  0  0  0  0  0  0  0  0
    2.6376   -3.0727   -1.8447 C   0  0  0  0  0  0  0  0  0  0  0  0
    2.3485   -2.6622   -3.2116 C   0  0  0  0  0  0  0  0  0  0  0  0
    3.2246   -1.8413   -3.8280 C   0  0  0  0  0  0  0  0  0  0  0  0
    4.3866   -1.3970   -3.2171 N   0  0  0  0  0  0  0  0  0  0  0  0
    4.6911   -1.7853   -1.9095 C   0  0  0  0  0  0  0  0  0  0  0  0
    5.7697   -1.4570   -1.2029 N   0  0  0  0  0  0  0  0  0  0  0  0
    5.4955   -2.1235   -0.0345 C   0  0  0  0  0  0  0  0  0  0  0  0
    4.3646   -2.8299   -0.0028 N   0  0  0  0  0  0  0  0  0  0  0  0
    3.8560   -2.5913   -1.2348 N   0  0  0  0  0  0  0  0  0  0  0  0
    5.0129   -0.7714   -3.6969 H   0  0  0  0  0  0  0  0  0  0  0  0
    1.4456   -2.9967   -3.7001 H   0  0  0  0  0  0  0  0  0  0  0  0
    3.0721   -1.4678   -4.8321 H   0  0  0  0  0  0  0  0  0  0  0  0
    6.1534   -2.0945    0.8225 H   0  0  0  0  0  0  0  0  0  0  0  0
  1  2  2  0
  2 10  1  0
  2  3  1  0
  3  4  2  0
  3 12  1  0
  4  5  1  0
  4 13  1  0
  5 11  1  0
  5  6  1  0
  6 10  1  0
  6  7  2  0
  7  8  1  0
  8  9  2  0
  8 14  1  0
  9 10  1  0
M  END
>  <i_m_ct_stereo_status>  (151) 
1

>  <s_m_source_file>  (151) 
/var/tmp/pbs.5076255.sched01/tmp1pt1fpgk/39zsbf0m6x.sdf

>  <i_m_source_file_index>  (151) 
24

>  <i_lp_mmshare_version>  (151) 
48012

>  <i_f3d_flags>  (151) 
0

>  <s_epik_input>  (151) 
W25IXTFbY0hdW2NIXWMoPU8pbihjMTIpbltjSF1uMg==

>  <s_epik_cmdline>  (151) 
J2VwaWtfcHl0aG9uJywgJy1waHQnLCAnMi4wJywgJy1waCcsICc3LjAnLCAnLXRuJywgJzgnLCAnLW1hJywgJzIwMCcsICctaW1hZScsICc8aW5maWxlLm1hZT4nLCAnLW9tYWUnLCAnPG91dGZpbGUubWFlPic=

>  <r_epik_Ionization_Penalty>  (151) 
1.34103

>  <r_epik_Ionization_Penalty_Charging>  (151) 
1.34103

>  <r_epik_Ionization_Penalty_Neutral>  (151) 
1.82832e-07

>  <r_epik_State_Penalty>  (151) 
1.41828

>  <r_epik_Charging_Adjusted_Penalty>  (151) 
2.75931

>  <i_epik_Tot_Q>  (151) 
0

>  <i_epik_Tot_abs_Q>  (151) 
0

>  <s_lp_Force_Field>  (151) 
OPLS3e

>  <r_lp_Energy>  (151) 
12.0829

>  <b_lp_Chiralities_Consistent>  (151) 
1

>  <s_lp_Variant>  (151) 
51:0-2

>  <s_i_glide_gridfile>  (151) 
pfpi4k_grid

>  <i_i_glide_lignum>  (151) 
24

>  <i_i_glide_rotatable_bonds>  (151) 
0

>  <r_i_docking_score>  (151) 
-3.78532

>  <r_i_glide_ligand_efficiency>  (151) 
-0.378532

>  <r_i_glide_ligand_efficiency_sa>  (151) 
-0.815523

>  <r_i_glide_ligand_efficiency_ln>  (151) 
-1.14617

>  <r_i_glide_gscore>  (151) 
-3.78532

>  <r_i_glide_lipo>  (151) 
-0.296678

>  <r_i_glide_hbond>  (151) 
-0.0562589

>  <r_i_glide_metal>  (151) 
-0

>  <r_i_glide_rewards>  (151) 
-2.25

>  <r_i_glide_evdw>  (151) 
-16.7956

>  <r_i_glide_ecoul>  (151) 
-1.91107

>  <r_i_glide_erotb>  (151) 
0

>  <r_i_glide_esite>  (151) 
-0.0559495

>  <r_i_glide_emodel>  (151) 
-24.3061

>  <r_i_glide_energy>  (151) 
-18.7066

>  <r_i_glide_einternal>  (151) 
0

>  <r_i_glide_intrahb_reward>  (151) 
-0

>  <i_i_glide_confnum>  (151) 
1

>  <i_i_glide_posenum>  (151) 
3

>  <r_i_glide_eff_state_penalty>  (151) 
0

>  <ligand_id>  (151) 
51

>  <original_smiles>  (151) 
O=c1cc[nH]c2ncnn12

>  <smiles>  (151) 
[H]c1nc2n([H])c([H])c([H])c(=O)n2n1

$$$$
52:0:0
     RDKit          3D

 59 63  0  0  1  0  0  0  0  0999 V2000
   -2.8959    3.1710    3.8656 C   0  0  0  0  0  0  0  0  0  0  0  0
   -1.6331    3.2221    4.2539 C   0  0  0  0  0  0  0  0  0  0  0  0
   -0.5724    3.9861    3.5274 C   0  0  1  0  0  0  0  0  0  0  0  0
   -0.8979    5.3376    3.2754 O   0  0  0  0  0  0  0  0  0  0  0  0
    0.7629    3.6412    4.2261 C   0  0  1  0  0  0  0  0  0  0  0  0
    1.7098    4.6563    4.8865 C   0  0  1  0  0  0  0  0  0  0  0  0
    1.1026    5.8065    5.6864 C   0  0  1  0  0  0  0  0  0  0  0  0
    0.9405    6.9530    4.8798 O   0  0  0  0  0  0  0  0  0  0  0  0
   -0.2250    5.4665    6.3117 C   0  0  0  0  0  0  0  0  0  0  0  0
   -0.2749    4.2386    7.2558 C   0  0  2  0  0  0  0  0  0  0  0  0
   -0.8282    4.9324    8.5736 C   0  0  0  0  0  0  0  0  0  0  0  0
    1.0467    3.5390    7.6623 C   0  0  0  0  0  0  0  0  0  0  0  0
    2.2814    3.4052    7.0477 C   0  0  0  0  0  0  0  0  0  0  0  0
    3.2671    2.6234    7.6018 O   0  0  0  0  0  0  0  0  0  0  0  0
    3.6040    2.9110    8.9591 C   0  0  0  0  0  0  0  0  0  0  0  0
    2.7833    3.8740    5.6316 C   0  0  2  0  0  0  0  0  0  0  0  0
    4.0171    4.7872    5.8776 C   0  0  0  0  0  0  0  0  0  0  0  0
    3.3274    2.6973    4.6922 C   0  0  0  0  0  0  0  0  0  0  0  0
    2.7414    1.8231    3.7872 C   0  0  0  0  0  0  0  0  0  0  0  0
    1.2407    1.5447    3.6733 C   0  0  0  0  0  0  0  0  0  0  0  0
    0.6592    0.8914    2.8051 O   0  0  0  0  0  0  0  0  0  0  0  0
    0.5100    2.1660    4.8753 C   0  0  1  0  0  0  0  0  0  0  0  0
    1.1140    0.9889    5.8010 C   0  0  0  0  0  0  0  0  0  0  0  0
   -0.9954    2.3569    5.3252 C   0  0  1  0  0  0  0  0  0  0  0  0
   -1.1984    3.0030    6.8126 C   0  0  2  0  0  0  0  0  0  0  0  0
   -2.6963    3.2597    7.0599 C   0  0  0  0  0  0  0  0  0  0  0  0
   -0.7402    2.0344    7.9224 C   0  0  0  0  0  0  0  0  0  0  0  0
   -1.3180    0.9856    8.1601 O   0  0  0  0  0  0  0  0  0  0  0  0
    0.5495    2.4775    8.6426 C   0  0  0  0  0  0  0  0  0  0  0  0
   -3.6106    2.5409    4.3779 H   0  0  0  0  0  0  0  0  0  0  0  0
   -3.2816    3.7677    3.0404 H   0  0  0  0  0  0  0  0  0  0  0  0
   -0.6123    3.4823    2.5607 H   0  0  0  0  0  0  0  0  0  0  0  0
   -0.5900    5.4997    2.3819 H   0  0  0  0  0  0  0  0  0  0  0  0
    1.2797    3.7038    3.2543 H   0  0  0  0  0  0  0  0  0  0  0  0
    2.2499    5.1481    4.0766 H   0  0  0  0  0  0  0  0  0  0  0  0
    1.7532    6.1303    6.4950 H   0  0  0  0  0  0  0  0  0  0  0  0
    0.5811    6.7033    4.0355 H   0  0  0  0  0  0  0  0  0  0  0  0
   -0.4979    6.3823    6.8358 H   0  0  0  0  0  0  0  0  0  0  0  0
   -1.0319    5.3797    5.6105 H   0  0  0  0  0  0  0  0  0  0  0  0
   -1.7069    5.5627    8.3913 H   0  0  0  0  0  0  0  0  0  0  0  0
   -0.0609    5.5794    9.0238 H   0  0  0  0  0  0  0  0  0  0  0  0
   -1.1550    4.2637    9.3746 H   0  0  0  0  0  0  0  0  0  0  0  0
    4.3503    2.1896    9.2974 H   0  0  0  0  0  0  0  0  0  0  0  0
    2.7934    2.8712    9.6813 H   0  0  0  0  0  0  0  0  0  0  0  0
    4.0316    3.9099    9.0056 H   0  0  0  0  0  0  0  0  0  0  0  0
    4.8592    4.2306    6.2934 H   0  0  0  0  0  0  0  0  0  0  0  0
    3.8181    5.5891    6.5886 H   0  0  0  0  0  0  0  0  0  0  0  0
    4.3728    5.2502    4.9586 H   0  0  0  0  0  0  0  0  0  0  0  0
    4.4026    2.6814    4.6679 H   0  0  0  0  0  0  0  0  0  0  0  0
    3.4103    1.2136    3.1881 H   0  0  0  0  0  0  0  0  0  0  0  0
    1.4253    1.1844    6.7956 H   0  0  0  0  0  0  0  0  0  0  0  0
    1.9408    0.3428    5.4909 H   0  0  0  0  0  0  0  0  0  0  0  0
    0.3216    0.2452    5.9083 H   0  0  0  0  0  0  0  0  0  0  0  0
   -1.5166    1.4040    5.2798 H   0  0  0  0  0  0  0  0  0  0  0  0
   -3.0207    4.1408    6.5357 H   0  0  0  0  0  0  0  0  0  0  0  0
   -2.9384    3.3912    8.1090 H   0  0  0  0  0  0  0  0  0  0  0  0
   -3.2999    2.4298    6.7207 H   0  0  0  0  0  0  0  0  0  0  0  0
    1.2128    1.6266    8.7702 H   0  0  0  0  0  0  0  0  0  0  0  0
    0.3484    2.8980    9.6235 H   0  0  0  0  0  0  0  0  0  0  0  0
  1  2  2  0
  1 30  1  0
  1 31  1  0
  2 24  1  0
  2  3  1  0
  3  4  1  0
  3  5  1  0
  3 32  1  6
  4 33  1  0
  5 22  1  0
  5  6  1  0
  5 34  1  6
  6 16  1  0
  6  7  1  0
  6 35  1  6
  7  8  1  0
  7  9  1  0
  7 36  1  1
  8 37  1  0
  9 10  1  0
  9 38  1  0
  9 39  1  0
 10 25  1  0
 10 11  1  1
 10 12  1  0
 11 40  1  0
 11 41  1  0
 11 42  1  0
 12 29  1  0
 12 13  2  0
 13 14  1  0
 13 16  1  0
 14 15  1  0
 15 43  1  0
 15 44  1  0
 15 45  1  0
 16 17  1  1
 16 18  1  0
 17 46  1  0
 17 47  1  0
 17 48  1  0
 18 19  2  0
 18 49  1  0
 19 20  1  0
 19 50  1  0
 20 21  2  0
 20 22  1  0
 22 23  1  1
 22 24  1  0
 23 51  1  0
 23 52  1  0
 23 53  1  0
 24 25  1  0
 24 54  1  1
 25 26  1  1
 25 27  1  0
 26 55  1  0
 26 56  1  0
 26 57  1  0
 27 28  2  0
 27 29  1  0
 29 58  1  0
 29 59  1  0
M  END
>  <i_m_ct_stereo_status>  (152) 
1

>  <s_m_source_file>  (152) 
/var/tmp/pbs.5076255.sched01/tmp1pt1fpgk/39zsbf0m6x.sdf

>  <i_m_source_file_index>  (152) 
25

>  <i_lp_mmshare_version>  (152) 
48012

>  <i_f3d_flags>  (152) 
0

>  <s_epik_input>  (152) 
W09IXVtDQEBIXTFDKD1bQ0gyXSlbQ0BIXShbQ0BAXTIoW0NIM10pQyg9TylbQ0gyXTMpQyhbQ0gzXSkoQyg9TylbQ0hdPVtDSF00KVtDQEBIXTFbQ0BASF0oW0NAQEhdKFtPSF0pW0NIMl01KVtDQEBdNChbQ0gzXSlDKE9bQ0gzXSk9QzNbQ0BdMjVbQ0gzXQ==

>  <s_epik_cmdline>  (152) 
J2VwaWtfcHl0aG9uJywgJy1waHQnLCAnMi4wJywgJy1waCcsICc3LjAnLCAnLXRuJywgJzgnLCAnLW1hJywgJzIwMCcsICctaW1hZScsICc8aW5maWxlLm1hZT4nLCAnLW9tYWUnLCAnPG91dGZpbGUubWFlPic=

>  <r_lp_tautomer_probability>  (152) 
1

>  <r_epik_Ionization_Penalty>  (152) 
8.87225e-07

>  <r_epik_Ionization_Penalty_Charging>  (152) 
0

>  <r_epik_Ionization_Penalty_Neutral>  (152) 
8.87225e-07

>  <r_epik_State_Penalty>  (152) 
-0

>  <r_epik_Charging_Adjusted_Penalty>  (152) 
0

>  <i_epik_Tot_Q>  (152) 
0

>  <i_epik_Tot_abs_Q>  (152) 
0

>  <s_lp_Force_Field>  (152) 
OPLS3e

>  <r_lp_Energy>  (152) 
212.156

>  <b_lp_Chiralities_Consistent>  (152) 
1

>  <s_lp_Variant>  (152) 
52:0-1

>  <s_i_glide_gridfile>  (152) 
pfpi4k_grid

>  <i_i_glide_lignum>  (152) 
25

>  <i_i_glide_rotatable_bonds>  (152) 
3

>  <r_i_docking_score>  (152) 
-3.41821

>  <r_i_glide_ligand_efficiency>  (152) 
-0.117869

>  <r_i_glide_ligand_efficiency_sa>  (152) 
-0.362132

>  <r_i_glide_ligand_efficiency_ln>  (152) 
-0.782685

>  <r_i_glide_gscore>  (152) 
-3.41821

>  <r_i_glide_lipo>  (152) 
-0.158036

>  <r_i_glide_hbond>  (152) 
-0.0801523

>  <r_i_glide_metal>  (152) 
-0

>  <r_i_glide_rewards>  (152) 
-1.1921

>  <r_i_glide_evdw>  (152) 
-15.4994

>  <r_i_glide_ecoul>  (152) 
-7.88745

>  <r_i_glide_erotb>  (152) 
0

>  <r_i_glide_esite>  (152) 
-0.029837

>  <r_i_glide_emodel>  (152) 
-33.8261

>  <r_i_glide_energy>  (152) 
-23.3869

>  <r_i_glide_einternal>  (152) 
1.00091

>  <r_i_glide_intrahb_reward>  (152) 
-0.5

>  <i_i_glide_confnum>  (152) 
2

>  <i_i_glide_posenum>  (152) 
1

>  <r_i_glide_eff_state_penalty>  (152) 
0

>  <ligand_id>  (152) 
52

>  <original_smiles>  (152) 
C=C1C(O)C2C3C(O)CC4(C)C5=C(OC)C3(C)C=CC(=O)C2(C)C1C4(C)C(=O)C5

>  <smiles>  (152) 
[H]OC1([H])C(=C([H])[H])C2([H])C3(C([H])([H])[H])C(=O)C([H])=C([H])C4(C([H])([H])[H])C(OC([H])([H])[H])=C5C([H])([H])C(=O)C2(C([H])([H])[H])C5(C([H])([H])[H])C([H])([H])C([H])(O[H])C4([H])C13[H]

$$$$
52:0:1
     RDKit          3D

 59 63  0  0  1  0  0  0  0  0999 V2000
    0.6893    0.2923    2.1171 C   0  0  0  0  0  0  0  0  0  0  0  0
    0.3423    0.8201    3.3023 C   0  0  0  0  0  0  0  0  0  0  0  0
   -0.6854    0.2383    4.2324 C   0  0  1  0  0  0  0  0  0  0  0  0
   -0.5126   -1.1336    4.5236 O   0  0  0  0  0  0  0  0  0  0  0  0
   -0.7981    1.2507    5.4047 C   0  0  1  0  0  0  0  0  0  0  0  0
   -0.5492    0.9408    6.8925 C   0  0  1  0  0  0  0  0  0  0  0  0
    0.6176    0.0184    7.2531 C   0  0  1  0  0  0  0  0  0  0  0  0
    0.1752   -1.3209    7.3495 O   0  0  0  0  0  0  0  0  0  0  0  0
    1.7643    0.0876    6.2711 C   0  0  0  0  0  0  0  0  0  0  0  0
    2.3916    1.4801    6.0276 C   0  0  2  0  0  0  0  0  0  0  0  0
    3.9005    1.1729    6.4102 C   0  0  0  0  0  0  0  0  0  0  0  0
    1.9402    2.6887    6.8885 C   0  0  0  0  0  0  0  0  0  0  0  0
    0.7858    2.9963    7.5954 C   0  0  0  0  0  0  0  0  0  0  0  0
    0.6582    4.2220    8.2054 O   0  0  0  0  0  0  0  0  0  0  0  0
    1.6828    4.5664    9.1353 C   0  0  0  0  0  0  0  0  0  0  0  0
   -0.5821    2.2566    7.6772 C   0  0  2  0  0  0  0  0  0  0  0  0
   -0.8429    1.9654    9.1797 C   0  0  0  0  0  0  0  0  0  0  0  0
   -1.8436    3.1046    7.2082 C   0  0  0  0  0  0  0  0  0  0  0  0
   -2.4475    3.3344    5.9854 C   0  0  0  0  0  0  0  0  0  0  0  0
   -1.8517    3.0411    4.6042 C   0  0  0  0  0  0  0  0  0  0  0  0
   -2.4388    3.1106    3.5273 O   0  0  0  0  0  0  0  0  0  0  0  0
   -0.3684    2.6862    4.7558 C   0  0  1  0  0  0  0  0  0  0  0  0
   -0.0669    4.2508    5.0451 C   0  0  0  0  0  0  0  0  0  0  0  0
    0.7979    2.1718    3.8256 C   0  0  1  0  0  0  0  0  0  0  0  0
    2.2679    2.0839    4.5462 C   0  0  2  0  0  0  0  0  0  0  0  0
    3.2644    1.4107    3.5734 C   0  0  0  0  0  0  0  0  0  0  0  0
    2.8386    3.4882    4.8700 C   0  0  0  0  0  0  0  0  0  0  0  0
    3.2055    4.2988    4.0196 O   0  0  0  0  0  0  0  0  0  0  0  0
    2.8651    3.7870    6.3786 C   0  0  0  0  0  0  0  0  0  0  0  0
    1.3815    0.8015    1.4615 H   0  0  0  0  0  0  0  0  0  0  0  0
    0.2883   -0.6507    1.7760 H   0  0  0  0  0  0  0  0  0  0  0  0
   -1.6015    0.2841    3.6385 H   0  0  0  0  0  0  0  0  0  0  0  0
   -0.2465   -1.5615    3.7205 H   0  0  0  0  0  0  0  0  0  0  0  0
   -1.8733    1.0164    5.4900 H   0  0  0  0  0  0  0  0  0  0  0  0
   -1.4293    0.4057    7.2513 H   0  0  0  0  0  0  0  0  0  0  0  0
    1.0156    0.2530    8.2394 H   0  0  0  0  0  0  0  0  0  0  0  0
    0.1452   -1.6726    6.4673 H   0  0  0  0  0  0  0  0  0  0  0  0
    2.4858   -0.6120    6.6936 H   0  0  0  0  0  0  0  0  0  0  0  0
    1.5775   -0.3837    5.3175 H   0  0  0  0  0  0  0  0  0  0  0  0
    4.2767    0.2629    5.9327 H   0  0  0  0  0  0  0  0  0  0  0  0
    3.9955    1.0326    7.4918 H   0  0  0  0  0  0  0  0  0  0  0  0
    4.6306    1.9316    6.1342 H   0  0  0  0  0  0  0  0  0  0  0  0
    1.4847    5.5685    9.5248 H   0  0  0  0  0  0  0  0  0  0  0  0
    2.6954    4.5835    8.7354 H   0  0  0  0  0  0  0  0  0  0  0  0
    1.6664    3.8600    9.9666 H   0  0  0  0  0  0  0  0  0  0  0  0
   -0.9927    2.8878    9.7448 H   0  0  0  0  0  0  0  0  0  0  0  0
   -0.0148    1.4534    9.6708 H   0  0  0  0  0  0  0  0  0  0  0  0
   -1.7371    1.3630    9.3248 H   0  0  0  0  0  0  0  0  0  0  0  0
   -2.4105    3.4795    8.0447 H   0  0  0  0  0  0  0  0  0  0  0  0
   -3.3787    3.8762    6.0000 H   0  0  0  0  0  0  0  0  0  0  0  0
    0.6571    4.5475    5.7634 H   0  0  0  0  0  0  0  0  0  0  0  0
   -0.8447    4.9820    5.2933 H   0  0  0  0  0  0  0  0  0  0  0  0
    0.3020    4.6729    4.1090 H   0  0  0  0  0  0  0  0  0  0  0  0
    0.8731    2.8172    2.9509 H   0  0  0  0  0  0  0  0  0  0  0  0
    3.1554    0.3277    3.5402 H   0  0  0  0  0  0  0  0  0  0  0  0
    4.3010    1.6138    3.8366 H   0  0  0  0  0  0  0  0  0  0  0  0
    3.1401    1.7936    2.5602 H   0  0  0  0  0  0  0  0  0  0  0  0
    2.5170    4.8004    6.5662 H   0  0  0  0  0  0  0  0  0  0  0  0
    3.8728    3.7157    6.7911 H   0  0  0  0  0  0  0  0  0  0  0  0
  1  2  2  0
  1 30  1  0
  1 31  1  0
  2 24  1  0
  2  3  1  0
  3  4  1  0
  3  5  1  0
  3 32  1  6
  4 33  1  0
  5 22  1  0
  5  6  1  0
  5 34  1  1
  6 16  1  0
  6  7  1  0
  6 35  1  1
  7  8  1  0
  7  9  1  0
  7 36  1  1
  8 37  1  0
  9 10  1  0
  9 38  1  0
  9 39  1  0
 10 25  1  0
 10 11  1  1
 10 12  1  0
 11 40  1  0
 11 41  1  0
 11 42  1  0
 12 29  1  0
 12 13  2  0
 13 14  1  0
 13 16  1  0
 14 15  1  0
 15 43  1  0
 15 44  1  0
 15 45  1  0
 16 17  1  1
 16 18  1  0
 17 46  1  0
 17 47  1  0
 17 48  1  0
 18 19  2  0
 18 49  1  0
 19 20  1  0
 19 50  1  0
 20 21  2  0
 20 22  1  0
 22 23  1  1
 22 24  1  0
 23 51  1  0
 23 52  1  0
 23 53  1  0
 24 25  1  0
 24 54  1  6
 25 26  1  6
 25 27  1  0
 26 55  1  0
 26 56  1  0
 26 57  1  0
 27 28  2  0
 27 29  1  0
 29 58  1  0
 29 59  1  0
M  END
>  <i_m_ct_stereo_status>  (153) 
1

>  <s_m_source_file>  (153) 
/var/tmp/pbs.5076255.sched01/tmp1pt1fpgk/39zsbf0m6x.sdf

>  <i_m_source_file_index>  (153) 
25

>  <i_lp_mmshare_version>  (153) 
48012

>  <i_f3d_flags>  (153) 
0

>  <s_epik_input>  (153) 
W09IXVtDQEBIXTFDKD1bQ0gyXSlbQ0BIXShbQ0BAXTIoW0NIM10pQyg9TylbQ0gyXTMpQyhbQ0gzXSkoQyg9TylbQ0hdPVtDSF00KVtDQEBIXTFbQ0BASF0oW0NAQEhdKFtPSF0pW0NIMl01KVtDQEBdNChbQ0gzXSlDKE9bQ0gzXSk9QzNbQ0BdMjVbQ0gzXQ==

>  <s_epik_cmdline>  (153) 
J2VwaWtfcHl0aG9uJywgJy1waHQnLCAnMi4wJywgJy1waCcsICc3LjAnLCAnLXRuJywgJzgnLCAnLW1hJywgJzIwMCcsICctaW1hZScsICc8aW5maWxlLm1hZT4nLCAnLW9tYWUnLCAnPG91dGZpbGUubWFlPic=

>  <r_lp_tautomer_probability>  (153) 
1

>  <r_epik_Ionization_Penalty>  (153) 
8.87225e-07

>  <r_epik_Ionization_Penalty_Charging>  (153) 
0

>  <r_epik_Ionization_Penalty_Neutral>  (153) 
8.87225e-07

>  <r_epik_State_Penalty>  (153) 
-0

>  <r_epik_Charging_Adjusted_Penalty>  (153) 
0

>  <i_epik_Tot_Q>  (153) 
0

>  <i_epik_Tot_abs_Q>  (153) 
0

>  <s_lp_Force_Field>  (153) 
OPLS3e

>  <r_lp_Energy>  (153) 
212.156

>  <b_lp_Chiralities_Consistent>  (153) 
1

>  <s_lp_Variant>  (153) 
52:0-1

>  <s_i_glide_gridfile>  (153) 
pfpi4k_grid

>  <i_i_glide_lignum>  (153) 
25

>  <i_i_glide_rotatable_bonds>  (153) 
3

>  <r_i_docking_score>  (153) 
-2.70962

>  <r_i_glide_ligand_efficiency>  (153) 
-0.093435

>  <r_i_glide_ligand_efficiency_sa>  (153) 
-0.287062

>  <r_i_glide_ligand_efficiency_ln>  (153) 
-0.620433

>  <r_i_glide_gscore>  (153) 
-2.70962

>  <r_i_glide_lipo>  (153) 
-0.0966481

>  <r_i_glide_hbond>  (153) 
0

>  <r_i_glide_metal>  (153) 
-0

>  <r_i_glide_rewards>  (153) 
-1.1921

>  <r_i_glide_evdw>  (153) 
-20.3595

>  <r_i_glide_ecoul>  (153) 
-2.48805

>  <r_i_glide_erotb>  (153) 
0

>  <r_i_glide_esite>  (153) 
-0.0296866

>  <r_i_glide_emodel>  (153) 
-32.0311

>  <r_i_glide_energy>  (153) 
-22.8475

>  <r_i_glide_einternal>  (153) 
1.09381

>  <r_i_glide_intrahb_reward>  (153) 
-0.5

>  <i_i_glide_confnum>  (153) 
2

>  <i_i_glide_posenum>  (153) 
12

>  <r_i_glide_eff_state_penalty>  (153) 
0

>  <ligand_id>  (153) 
52

>  <original_smiles>  (153) 
C=C1C(O)C2C3C(O)CC4(C)C5=C(OC)C3(C)C=CC(=O)C2(C)C1C4(C)C(=O)C5

>  <smiles>  (153) 
[H]OC1([H])C(=C([H])[H])C2([H])C3(C([H])([H])[H])C(=O)C([H])=C([H])C4(C([H])([H])[H])C(OC([H])([H])[H])=C5C([H])([H])C(=O)C2(C([H])([H])[H])C5(C([H])([H])[H])C([H])([H])C([H])(O[H])C4([H])C13[H]

$$$$
52:0:2
     RDKit          3D

 59 63  0  0  1  0  0  0  0  0999 V2000
    1.4173    0.3140    2.1384 C   0  0  0  0  0  0  0  0  0  0  0  0
    0.7519    0.8650    3.1658 C   0  0  0  0  0  0  0  0  0  0  0  0
   -0.3224    0.1741    3.9627 C   0  0  1  0  0  0  0  0  0  0  0  0
    0.0303   -1.1053    4.4506 O   0  0  0  0  0  0  0  0  0  0  0  0
   -0.8533    1.2408    4.9548 C   0  0  1  0  0  0  0  0  0  0  0  0
   -0.8611    1.1167    6.4876 C   0  0  1  0  0  0  0  0  0  0  0  0
    0.3564    0.4872    7.1686 C   0  0  1  0  0  0  0  0  0  0  0  0
    0.1520   -0.8988    7.3410 O   0  0  0  0  0  0  0  0  0  0  0  0
    1.6464    0.7079    6.4116 C   0  0  0  0  0  0  0  0  0  0  0  0
    2.0441    2.1739    6.1137 C   0  0  2  0  0  0  0  0  0  0  0  0
    3.4733    2.2188    6.8004 C   0  0  0  0  0  0  0  0  0  0  0  0
    1.2104    3.3355    6.7205 C   0  0  0  0  0  0  0  0  0  0  0  0
   -0.0966    3.4572    7.1587 C   0  0  0  0  0  0  0  0  0  0  0  0
   -0.5757    4.6795    7.5749 O   0  0  0  0  0  0  0  0  0  0  0  0
    0.1542    5.3066    8.6269 C   0  0  0  0  0  0  0  0  0  0  0  0
   -1.2946    2.4618    7.0816 C   0  0  2  0  0  0  0  0  0  0  0  0
   -1.7952    2.2524    8.5378 C   0  0  0  0  0  0  0  0  0  0  0  0
   -2.5654    2.9876    6.2891 C   0  0  0  0  0  0  0  0  0  0  0  0
   -2.9312    2.9855    4.9524 C   0  0  0  0  0  0  0  0  0  0  0  0
   -2.0223    2.7048    3.7559 C   0  0  0  0  0  0  0  0  0  0  0  0
   -2.3728    2.5594    2.5867 O   0  0  0  0  0  0  0  0  0  0  0  0
   -0.5672    2.6702    4.2204 C   0  0  1  0  0  0  0  0  0  0  0  0
   -0.6241    4.2833    4.3565 C   0  0  0  0  0  0  0  0  0  0  0  0
    0.8345    2.3249    3.5884 C   0  0  1  0  0  0  0  0  0  0  0  0
    2.1137    2.6051    4.5708 C   0  0  2  0  0  0  0  0  0  0  0  0
    3.3921    2.0686    3.8934 C   0  0  0  0  0  0  0  0  0  0  0  0
    2.3415    4.1189    4.8097 C   0  0  0  0  0  0  0  0  0  0  0  0
    2.7346    4.9040    3.9458 O   0  0  0  0  0  0  0  0  0  0  0  0
    2.0015    4.5520    6.2478 C   0  0  0  0  0  0  0  0  0  0  0  0
    2.1244    0.8945    1.5627 H   0  0  0  0  0  0  0  0  0  0  0  0
    1.2672   -0.7154    1.8463 H   0  0  0  0  0  0  0  0  0  0  0  0
   -1.0925   -0.0160    3.2123 H   0  0  0  0  0  0  0  0  0  0  0  0
    0.4032   -1.5919    3.7280 H   0  0  0  0  0  0  0  0  0  0  0  0
   -1.8638    0.8034    4.8689 H   0  0  0  0  0  0  0  0  0  0  0  0
   -1.6840    0.4430    6.7404 H   0  0  0  0  0  0  0  0  0  0  0  0
    0.4974    0.8833    8.1729 H   0  0  0  0  0  0  0  0  0  0  0  0
    0.2933   -1.3098    6.4953 H   0  0  0  0  0  0  0  0  0  0  0  0
    2.3858    0.2125    7.0432 H   0  0  0  0  0  0  0  0  0  0  0  0
    1.7501    0.1257    5.5068 H   0  0  0  0  0  0  0  0  0  0  0  0
    4.0988    1.3678    6.5165 H   0  0  0  0  0  0  0  0  0  0  0  0
    3.3714    2.1951    7.8894 H   0  0  0  0  0  0  0  0  0  0  0  0
    4.0905    3.0849    6.5668 H   0  0  0  0  0  0  0  0  0  0  0  0
   -0.3013    6.2760    8.8453 H   0  0  0  0  0  0  0  0  0  0  0  0
    1.2069    5.4956    8.4200 H   0  0  0  0  0  0  0  0  0  0  0  0
    0.0992    4.6856    9.5230 H   0  0  0  0  0  0  0  0  0  0  0  0
   -2.2308    3.1652    8.9442 H   0  0  0  0  0  0  0  0  0  0  0  0
   -1.0050    1.9695    9.2326 H   0  0  0  0  0  0  0  0  0  0  0  0
   -2.5726    1.4922    8.5900 H   0  0  0  0  0  0  0  0  0  0  0  0
   -3.3482    3.3073    6.9571 H   0  0  0  0  0  0  0  0  0  0  0  0
   -3.9334    3.3124    4.7246 H   0  0  0  0  0  0  0  0  0  0  0  0
   -0.1321    4.7863    5.1522 H   0  0  0  0  0  0  0  0  0  0  0  0
   -1.5555    4.8601    4.3630 H   0  0  0  0  0  0  0  0  0  0  0  0
   -0.1605    4.6852    3.4547 H   0  0  0  0  0  0  0  0  0  0  0  0
    0.9646    2.8929    2.6667 H   0  0  0  0  0  0  0  0  0  0  0  0
    3.4974    0.9880    3.9785 H   0  0  0  0  0  0  0  0  0  0  0  0
    4.2926    2.5110    4.3145 H   0  0  0  0  0  0  0  0  0  0  0  0
    3.4060    2.3266    2.8359 H   0  0  0  0  0  0  0  0  0  0  0  0
    1.4403    5.4832    6.2433 H   0  0  0  0  0  0  0  0  0  0  0  0
    2.8981    4.7260    6.8442 H   0  0  0  0  0  0  0  0  0  0  0  0
  1  2  2  0
  1 30  1  0
  1 31  1  0
  2 24  1  0
  2  3  1  0
  3  4  1  0
  3  5  1  0
  3 32  1  6
  4 33  1  0
  5 22  1  0
  5  6  1  0
  5 34  1  6
  6 16  1  0
  6  7  1  0
  6 35  1  6
  7  8  1  0
  7  9  1  0
  7 36  1  1
  8 37  1  0
  9 10  1  0
  9 38  1  0
  9 39  1  0
 10 25  1  0
 10 11  1  1
 10 12  1  0
 11 40  1  0
 11 41  1  0
 11 42  1  0
 12 29  1  0
 12 13  2  0
 13 14  1  0
 13 16  1  0
 14 15  1  0
 15 43  1  0
 15 44  1  0
 15 45  1  0
 16 17  1  1
 16 18  1  0
 17 46  1  0
 17 47  1  0
 17 48  1  0
 18 19  2  0
 18 49  1  0
 19 20  1  0
 19 50  1  0
 20 21  2  0
 20 22  1  0
 22 23  1  1
 22 24  1  0
 23 51  1  0
 23 52  1  0
 23 53  1  0
 24 25  1  0
 24 54  1  6
 25 26  1  6
 25 27  1  0
 26 55  1  0
 26 56  1  0
 26 57  1  0
 27 28  2  0
 27 29  1  0
 29 58  1  0
 29 59  1  0
M  END
>  <i_m_ct_stereo_status>  (154) 
1

>  <s_m_source_file>  (154) 
/var/tmp/pbs.5076255.sched01/tmp1pt1fpgk/39zsbf0m6x.sdf

>  <i_m_source_file_index>  (154) 
25

>  <i_lp_mmshare_version>  (154) 
48012

>  <i_f3d_flags>  (154) 
0

>  <s_epik_input>  (154) 
W09IXVtDQEBIXTFDKD1bQ0gyXSlbQ0BIXShbQ0BAXTIoW0NIM10pQyg9TylbQ0gyXTMpQyhbQ0gzXSkoQyg9TylbQ0hdPVtDSF00KVtDQEBIXTFbQ0BASF0oW0NAQEhdKFtPSF0pW0NIMl01KVtDQEBdNChbQ0gzXSlDKE9bQ0gzXSk9QzNbQ0BdMjVbQ0gzXQ==

>  <s_epik_cmdline>  (154) 
J2VwaWtfcHl0aG9uJywgJy1waHQnLCAnMi4wJywgJy1waCcsICc3LjAnLCAnLXRuJywgJzgnLCAnLW1hJywgJzIwMCcsICctaW1hZScsICc8aW5maWxlLm1hZT4nLCAnLW9tYWUnLCAnPG91dGZpbGUubWFlPic=

>  <r_lp_tautomer_probability>  (154) 
1

>  <r_epik_Ionization_Penalty>  (154) 
8.87225e-07

>  <r_epik_Ionization_Penalty_Charging>  (154) 
0

>  <r_epik_Ionization_Penalty_Neutral>  (154) 
8.87225e-07

>  <r_epik_State_Penalty>  (154) 
-0

>  <r_epik_Charging_Adjusted_Penalty>  (154) 
0

>  <i_epik_Tot_Q>  (154) 
0

>  <i_epik_Tot_abs_Q>  (154) 
0

>  <s_lp_Force_Field>  (154) 
OPLS3e

>  <r_lp_Energy>  (154) 
212.156

>  <b_lp_Chiralities_Consistent>  (154) 
1

>  <s_lp_Variant>  (154) 
52:0-1

>  <s_i_glide_gridfile>  (154) 
pfpi4k_grid

>  <i_i_glide_lignum>  (154) 
25

>  <i_i_glide_rotatable_bonds>  (154) 
3

>  <r_i_docking_score>  (154) 
-2.55647

>  <r_i_glide_ligand_efficiency>  (154) 
-0.0881542

>  <r_i_glide_ligand_efficiency_sa>  (154) 
-0.270838

>  <r_i_glide_ligand_efficiency_ln>  (154) 
-0.585367

>  <r_i_glide_gscore>  (154) 
-2.55647

>  <r_i_glide_lipo>  (154) 
-0.12946

>  <r_i_glide_hbond>  (154) 
0

>  <r_i_glide_metal>  (154) 
-0

>  <r_i_glide_rewards>  (154) 
-1.1921

>  <r_i_glide_evdw>  (154) 
-19.5585

>  <r_i_glide_ecoul>  (154) 
-1.43333

>  <r_i_glide_erotb>  (154) 
0

>  <r_i_glide_esite>  (154) 
-0.0419907

>  <r_i_glide_emodel>  (154) 
-30.143

>  <r_i_glide_energy>  (154) 
-20.9918

>  <r_i_glide_einternal>  (154) 
0.729591

>  <r_i_glide_intrahb_reward>  (154) 
-0.5

>  <i_i_glide_confnum>  (154) 
1

>  <i_i_glide_posenum>  (154) 
4

>  <r_i_glide_eff_state_penalty>  (154) 
0

>  <ligand_id>  (154) 
52

>  <original_smiles>  (154) 
C=C1C(O)C2C3C(O)CC4(C)C5=C(OC)C3(C)C=CC(=O)C2(C)C1C4(C)C(=O)C5

>  <smiles>  (154) 
[H]OC1([H])C(=C([H])[H])C2([H])C3(C([H])([H])[H])C(=O)C([H])=C([H])C4(C([H])([H])[H])C(OC([H])([H])[H])=C5C([H])([H])C(=O)C2(C([H])([H])[H])C5(C([H])([H])[H])C([H])([H])C([H])(O[H])C4([H])C13[H]

$$$$
52:1:0
     RDKit          3D

 59 63  0  0  1  0  0  0  0  0999 V2000
   -2.6010    2.5537    7.2116 C   0  0  0  0  0  0  0  0  0  0  0  0
   -1.8086    1.9942    6.2783 C   0  0  0  0  0  0  0  0  0  0  0  0
   -1.9645    2.2402    4.7814 C   0  0  1  0  0  0  0  0  0  0  0  0
   -2.1844    3.5841    4.4386 O   0  0  0  0  0  0  0  0  0  0  0  0
   -0.8515    1.4132    4.0923 C   0  0  1  0  0  0  0  0  0  0  0  0
    0.4457    2.1914    3.5737 C   0  0  1  0  0  0  0  0  0  0  0  0
    0.8852    3.5267    4.2162 C   0  0  1  0  0  0  0  0  0  0  0  0
    0.2279    4.6372    3.6456 O   0  0  0  0  0  0  0  0  0  0  0  0
    0.8340    3.5861    5.7259 C   0  0  0  0  0  0  0  0  0  0  0  0
    1.5219    2.4396    6.5283 C   0  0  2  0  0  0  0  0  0  0  0  0
    2.4506    3.2417    7.5158 C   0  0  0  0  0  0  0  0  0  0  0  0
    2.4544    1.4392    5.8128 C   0  0  0  0  0  0  0  0  0  0  0  0
    2.6259    1.0824    4.5039 C   0  0  0  0  0  0  0  0  0  0  0  0
    3.5769    0.1433    4.1721 O   0  0  0  0  0  0  0  0  0  0  0  0
    4.9071    0.4241    4.6009 C   0  0  0  0  0  0  0  0  0  0  0  0
    1.7283    1.3527    3.2833 C   0  0  2  0  0  0  0  0  0  0  0  0
    2.5924    2.0228    2.1814 C   0  0  0  0  0  0  0  0  0  0  0  0
    1.3207    0.0023    2.7003 C   0  0  0  0  0  0  0  0  0  0  0  0
    0.7518   -1.0189    3.3647 C   0  0  0  0  0  0  0  0  0  0  0  0
    0.2973   -0.8905    4.7618 C   0  0  0  0  0  0  0  0  0  0  0  0
    0.5914   -1.7362    5.6024 O   0  0  0  0  0  0  0  0  0  0  0  0
   -0.7379    0.2103    5.1059 C   0  0  2  0  0  0  0  0  0  0  0  0
   -2.0430   -0.6658    5.0465 C   0  0  0  0  0  0  0  0  0  0  0  0
   -0.7439    0.9134    6.5215 C   0  0  1  0  0  0  0  0  0  0  0  0
    0.5540    1.4560    7.2921 C   0  0  2  0  0  0  0  0  0  0  0  0
    0.1307    2.0189    8.6788 C   0  0  0  0  0  0  0  0  0  0  0  0
    1.5219    0.3006    7.6031 C   0  0  0  0  0  0  0  0  0  0  0  0
    1.2381   -0.6518    8.3278 O   0  0  0  0  0  0  0  0  0  0  0  0
    2.8590    0.4549    6.8898 C   0  0  0  0  0  0  0  0  0  0  0  0
   -2.5128    2.3115    8.2587 H   0  0  0  0  0  0  0  0  0  0  0  0
   -3.3566    3.2705    6.9289 H   0  0  0  0  0  0  0  0  0  0  0  0
   -2.9055    1.8025    4.4627 H   0  0  0  0  0  0  0  0  0  0  0  0
   -1.9846    3.6800    3.5178 H   0  0  0  0  0  0  0  0  0  0  0  0
   -1.3006    1.0080    3.1793 H   0  0  0  0  0  0  0  0  0  0  0  0
    0.1180    2.4915    2.5764 H   0  0  0  0  0  0  0  0  0  0  0  0
    1.9262    3.7408    3.9871 H   0  0  0  0  0  0  0  0  0  0  0  0
    0.3042    4.5766    2.6950 H   0  0  0  0  0  0  0  0  0  0  0  0
    1.3263    4.5344    5.9495 H   0  0  0  0  0  0  0  0  0  0  0  0
   -0.1608    3.7975    6.0973 H   0  0  0  0  0  0  0  0  0  0  0  0
    1.9167    4.0486    8.0251 H   0  0  0  0  0  0  0  0  0  0  0  0
    3.2796    3.7006    6.9703 H   0  0  0  0  0  0  0  0  0  0  0  0
    2.9023    2.6499    8.3104 H   0  0  0  0  0  0  0  0  0  0  0  0
    5.5642   -0.3992    4.3138 H   0  0  0  0  0  0  0  0  0  0  0  0
    5.0418    0.5672    5.6729 H   0  0  0  0  0  0  0  0  0  0  0  0
    5.2508    1.3322    4.1073 H   0  0  0  0  0  0  0  0  0  0  0  0
    3.3691    1.3481    1.8182 H   0  0  0  0  0  0  0  0  0  0  0  0
    3.1087    2.9237    2.5103 H   0  0  0  0  0  0  0  0  0  0  0  0
    1.9840    2.3022    1.3190 H   0  0  0  0  0  0  0  0  0  0  0  0
    1.5887   -0.1624    1.6701 H   0  0  0  0  0  0  0  0  0  0  0  0
    0.5768   -1.9572    2.8457 H   0  0  0  0  0  0  0  0  0  0  0  0
   -2.9658   -0.1803    5.3646 H   0  0  0  0  0  0  0  0  0  0  0  0
   -1.9686   -1.5425    5.6905 H   0  0  0  0  0  0  0  0  0  0  0  0
   -2.2208   -1.0339    4.0389 H   0  0  0  0  0  0  0  0  0  0  0  0
   -1.2024    0.2101    7.2164 H   0  0  0  0  0  0  0  0  0  0  0  0
   -0.2740    3.0275    8.6079 H   0  0  0  0  0  0  0  0  0  0  0  0
    0.9602    2.0620    9.3870 H   0  0  0  0  0  0  0  0  0  0  0  0
   -0.6152    1.3846    9.1567 H   0  0  0  0  0  0  0  0  0  0  0  0
    3.1961   -0.5096    6.5064 H   0  0  0  0  0  0  0  0  0  0  0  0
    3.6200    0.8501    7.5646 H   0  0  0  0  0  0  0  0  0  0  0  0
  1  2  2  0
  1 30  1  0
  1 31  1  0
  2 24  1  0
  2  3  1  0
  3  4  1  0
  3  5  1  0
  3 32  1  6
  4 33  1  0
  5 22  1  0
  5  6  1  0
  5 34  1  6
  6 16  1  0
  6  7  1  0
  6 35  1  6
  7  8  1  0
  7  9  1  0
  7 36  1  1
  8 37  1  0
  9 10  1  0
  9 38  1  0
  9 39  1  0
 10 25  1  0
 10 11  1  1
 10 12  1  0
 11 40  1  0
 11 41  1  0
 11 42  1  0
 12 29  1  0
 12 13  2  0
 13 14  1  0
 13 16  1  0
 14 15  1  0
 15 43  1  0
 15 44  1  0
 15 45  1  0
 16 17  1  6
 16 18  1  0
 17 46  1  0
 17 47  1  0
 17 48  1  0
 18 19  2  0
 18 49  1  0
 19 20  1  0
 19 50  1  0
 20 21  2  0
 20 22  1  0
 22 23  1  1
 22 24  1  0
 23 51  1  0
 23 52  1  0
 23 53  1  0
 24 25  1  0
 24 54  1  1
 25 26  1  1
 25 27  1  0
 26 55  1  0
 26 56  1  0
 26 57  1  0
 27 28  2  0
 27 29  1  0
 29 58  1  0
 29 59  1  0
M  END
>  <i_m_ct_stereo_status>  (155) 
1

>  <s_m_source_file>  (155) 
/var/tmp/pbs.5076255.sched01/tmp1pt1fpgk/39zsbf0m6x.sdf

>  <i_m_source_file_index>  (155) 
26

>  <i_lp_mmshare_version>  (155) 
48012

>  <i_f3d_flags>  (155) 
0

>  <s_epik_input>  (155) 
W09IXVtDQEBIXTFDKD1bQ0gyXSlbQ0BIXShbQ0BAXTIoW0NIM10pQyg9TylbQ0gyXTMpQyhbQ0gzXSkoQyg9TylbQ0hdPVtDSF00KVtDQEBIXTFbQ0BASF0oW0NAQEhdKFtPSF0pW0NIMl01KVtDQEBdNChbQ0gzXSlDKE9bQ0gzXSk9QzNbQ0BdMjVbQ0gzXQ==

>  <s_epik_cmdline>  (155) 
J2VwaWtfcHl0aG9uJywgJy1waHQnLCAnMi4wJywgJy1waCcsICc3LjAnLCAnLXRuJywgJzgnLCAnLW1hJywgJzIwMCcsICctaW1hZScsICc8aW5maWxlLm1hZT4nLCAnLW9tYWUnLCAnPG91dGZpbGUubWFlPic=

>  <r_lp_tautomer_probability>  (155) 
1

>  <r_epik_Ionization_Penalty>  (155) 
8.87225e-07

>  <r_epik_Ionization_Penalty_Charging>  (155) 
0

>  <r_epik_Ionization_Penalty_Neutral>  (155) 
8.87225e-07

>  <r_epik_State_Penalty>  (155) 
-0

>  <r_epik_Charging_Adjusted_Penalty>  (155) 
0

>  <i_epik_Tot_Q>  (155) 
0

>  <i_epik_Tot_abs_Q>  (155) 
0

>  <s_lp_Force_Field>  (155) 
OPLS3e

>  <r_lp_Energy>  (155) 
122.728

>  <b_lp_Chiralities_Consistent>  (155) 
1

>  <s_lp_Variant>  (155) 
52:0-2

>  <s_i_glide_gridfile>  (155) 
pfpi4k_grid

>  <i_i_glide_lignum>  (155) 
26

>  <i_i_glide_rotatable_bonds>  (155) 
3

>  <r_i_docking_score>  (155) 
-2.86748

>  <r_i_glide_ligand_efficiency>  (155) 
-0.0988787

>  <r_i_glide_ligand_efficiency_sa>  (155) 
-0.303787

>  <r_i_glide_ligand_efficiency_ln>  (155) 
-0.656581

>  <r_i_glide_gscore>  (155) 
-2.86748

>  <r_i_glide_lipo>  (155) 
-0.204869

>  <r_i_glide_hbond>  (155) 
0

>  <r_i_glide_metal>  (155) 
-0

>  <r_i_glide_rewards>  (155) 
-0.6921

>  <r_i_glide_evdw>  (155) 
-19.5349

>  <r_i_glide_ecoul>  (155) 
-6.55438

>  <r_i_glide_erotb>  (155) 
0

>  <r_i_glide_esite>  (155) 
-0.0106081

>  <r_i_glide_emodel>  (155) 
-30.5998

>  <r_i_glide_energy>  (155) 
-26.0893

>  <r_i_glide_einternal>  (155) 
1.14252

>  <r_i_glide_intrahb_reward>  (155) 
-0

>  <i_i_glide_confnum>  (155) 
2

>  <i_i_glide_posenum>  (155) 
6

>  <r_i_glide_eff_state_penalty>  (155) 
0

>  <ligand_id>  (155) 
52

>  <original_smiles>  (155) 
C=C1C(O)C2C3C(O)CC4(C)C5=C(OC)C3(C)C=CC(=O)C2(C)C1C4(C)C(=O)C5

>  <smiles>  (155) 
[H]OC1([H])C(=C([H])[H])C2([H])C3(C([H])([H])[H])C(=O)C([H])=C([H])C4(C([H])([H])[H])C(OC([H])([H])[H])=C5C([H])([H])C(=O)C2(C([H])([H])[H])C5(C([H])([H])[H])C([H])([H])C([H])(O[H])C4([H])C13[H]

$$$$
52:1:1
     RDKit          3D

 59 63  0  0  1  0  0  0  0  0999 V2000
    4.3683    0.6611    4.3608 C   0  0  0  0  0  0  0  0  0  0  0  0
    3.3191    1.4997    4.3373 C   0  0  0  0  0  0  0  0  0  0  0  0
    2.6576    1.9796    3.0496 C   0  0  1  0  0  0  0  0  0  0  0  0
    2.4674    0.9663    2.0900 O   0  0  0  0  0  0  0  0  0  0  0  0
    1.5092    2.9268    3.4783 C   0  0  1  0  0  0  0  0  0  0  0  0
    0.0273    2.3429    3.4327 C   0  0  1  0  0  0  0  0  0  0  0  0
   -0.2228    0.8343    3.5196 C   0  0  1  0  0  0  0  0  0  0  0  0
    0.0075    0.2395    2.2618 O   0  0  0  0  0  0  0  0  0  0  0  0
    0.5517    0.0819    4.5785 C   0  0  0  0  0  0  0  0  0  0  0  0
    0.5567    0.6586    6.0242 C   0  0  2  0  0  0  0  0  0  0  0  0
    0.1334   -0.6074    6.8700 C   0  0  0  0  0  0  0  0  0  0  0  0
   -0.4358    1.7496    6.4383 C   0  0  0  0  0  0  0  0  0  0  0  0
   -1.1793    2.6507    5.7313 C   0  0  0  0  0  0  0  0  0  0  0  0
   -2.0257    3.5303    6.3731 O   0  0  0  0  0  0  0  0  0  0  0  0
   -2.9408    2.9581    7.3129 C   0  0  0  0  0  0  0  0  0  0  0  0
   -1.0690    3.0547    4.2396 C   0  0  2  0  0  0  0  0  0  0  0  0
   -2.4623    2.8999    3.5779 C   0  0  0  0  0  0  0  0  0  0  0  0
   -0.7727    4.5615    4.1962 C   0  0  0  0  0  0  0  0  0  0  0  0
    0.1962    5.2412    4.8333 C   0  0  0  0  0  0  0  0  0  0  0  0
    1.2369    4.5229    5.5882 C   0  0  0  0  0  0  0  0  0  0  0  0
    1.5330    4.8323    6.7452 O   0  0  0  0  0  0  0  0  0  0  0  0
    2.1145    3.5010    4.8193 C   0  0  2  0  0  0  0  0  0  0  0  0
    3.3186    4.4281    4.4723 C   0  0  0  0  0  0  0  0  0  0  0  0
    2.7335    2.2357    5.5424 C   0  0  1  0  0  0  0  0  0  0  0  0
    1.9301    1.2636    6.5310 C   0  0  2  0  0  0  0  0  0  0  0  0
    2.8812    0.1690    7.0733 C   0  0  0  0  0  0  0  0  0  0  0  0
    1.4473    2.0340    7.7754 C   0  0  0  0  0  0  0  0  0  0  0  0
    2.1915    2.5422    8.5872 O   0  0  0  0  0  0  0  0  0  0  0  0
   -0.0724    2.1001    7.8689 C   0  0  0  0  0  0  0  0  0  0  0  0
    4.8701    0.3952    5.2761 H   0  0  0  0  0  0  0  0  0  0  0  0
    4.7540    0.2324    3.4435 H   0  0  0  0  0  0  0  0  0  0  0  0
    3.3350    2.6263    2.5387 H   0  0  0  0  0  0  0  0  0  0  0  0
    1.5751    0.6153    2.1751 H   0  0  0  0  0  0  0  0  0  0  0  0
    1.5039    3.7353    2.7532 H   0  0  0  0  0  0  0  0  0  0  0  0
   -0.2386    2.5707    2.3995 H   0  0  0  0  0  0  0  0  0  0  0  0
   -1.2618    0.6132    3.7382 H   0  0  0  0  0  0  0  0  0  0  0  0
   -0.4440    0.7411    1.5911 H   0  0  0  0  0  0  0  0  0  0  0  0
    0.0874   -0.8984    4.5732 H   0  0  0  0  0  0  0  0  0  0  0  0
    1.5509   -0.1836    4.2502 H   0  0  0  0  0  0  0  0  0  0  0  0
    0.7154   -1.4971    6.6097 H   0  0  0  0  0  0  0  0  0  0  0  0
   -0.9164   -0.8438    6.6765 H   0  0  0  0  0  0  0  0  0  0  0  0
    0.2350   -0.4971    7.9462 H   0  0  0  0  0  0  0  0  0  0  0  0
   -3.4757    3.7678    7.8084 H   0  0  0  0  0  0  0  0  0  0  0  0
   -2.5362    2.3627    8.1229 H   0  0  0  0  0  0  0  0  0  0  0  0
   -3.6457    2.3314    6.7814 H   0  0  0  0  0  0  0  0  0  0  0  0
   -3.2007    3.5734    4.0094 H   0  0  0  0  0  0  0  0  0  0  0  0
   -2.8948    1.9042    3.7056 H   0  0  0  0  0  0  0  0  0  0  0  0
   -2.4439    3.1037    2.5047 H   0  0  0  0  0  0  0  0  0  0  0  0
   -1.4599    5.1151    3.5862 H   0  0  0  0  0  0  0  0  0  0  0  0
    0.2560    6.3162    4.7363 H   0  0  0  0  0  0  0  0  0  0  0  0
    4.1555    3.9125    4.0200 H   0  0  0  0  0  0  0  0  0  0  0  0
    3.7540    4.8837    5.3795 H   0  0  0  0  0  0  0  0  0  0  0  0
    3.0480    5.2549    3.8111 H   0  0  0  0  0  0  0  0  0  0  0  0
    3.5913    2.5822    6.1115 H   0  0  0  0  0  0  0  0  0  0  0  0
    3.0274   -0.6467    6.3676 H   0  0  0  0  0  0  0  0  0  0  0  0
    2.5188   -0.2783    8.0037 H   0  0  0  0  0  0  0  0  0  0  0  0
    3.8541    0.5870    7.3247 H   0  0  0  0  0  0  0  0  0  0  0  0
   -0.3611    3.1017    8.1755 H   0  0  0  0  0  0  0  0  0  0  0  0
   -0.4413    1.3670    8.5890 H   0  0  0  0  0  0  0  0  0  0  0  0
  1  2  2  0
  1 30  1  0
  1 31  1  0
  2 24  1  0
  2  3  1  0
  3  4  1  0
  3  5  1  0
  3 32  1  6
  4 33  1  0
  5 22  1  0
  5  6  1  0
  5 34  1  6
  6 16  1  0
  6  7  1  0
  6 35  1  6
  7  8  1  0
  7  9  1  0
  7 36  1  1
  8 37  1  0
  9 10  1  0
  9 38  1  0
  9 39  1  0
 10 25  1  0
 10 11  1  1
 10 12  1  0
 11 40  1  0
 11 41  1  0
 11 42  1  0
 12 29  1  0
 12 13  2  0
 13 14  1  0
 13 16  1  0
 14 15  1  0
 15 43  1  0
 15 44  1  0
 15 45  1  0
 16 17  1  6
 16 18  1  0
 17 46  1  0
 17 47  1  0
 17 48  1  0
 18 19  2  0
 18 49  1  0
 19 20  1  0
 19 50  1  0
 20 21  2  0
 20 22  1  0
 22 23  1  6
 22 24  1  0
 23 51  1  0
 23 52  1  0
 23 53  1  0
 24 25  1  0
 24 54  1  1
 25 26  1  1
 25 27  1  0
 26 55  1  0
 26 56  1  0
 26 57  1  0
 27 28  2  0
 27 29  1  0
 29 58  1  0
 29 59  1  0
M  END
>  <i_m_ct_stereo_status>  (156) 
1

>  <s_m_source_file>  (156) 
/var/tmp/pbs.5076255.sched01/tmp1pt1fpgk/39zsbf0m6x.sdf

>  <i_m_source_file_index>  (156) 
26

>  <i_lp_mmshare_version>  (156) 
48012

>  <i_f3d_flags>  (156) 
0

>  <s_epik_input>  (156) 
W09IXVtDQEBIXTFDKD1bQ0gyXSlbQ0BIXShbQ0BAXTIoW0NIM10pQyg9TylbQ0gyXTMpQyhbQ0gzXSkoQyg9TylbQ0hdPVtDSF00KVtDQEBIXTFbQ0BASF0oW0NAQEhdKFtPSF0pW0NIMl01KVtDQEBdNChbQ0gzXSlDKE9bQ0gzXSk9QzNbQ0BdMjVbQ0gzXQ==

>  <s_epik_cmdline>  (156) 
J2VwaWtfcHl0aG9uJywgJy1waHQnLCAnMi4wJywgJy1waCcsICc3LjAnLCAnLXRuJywgJzgnLCAnLW1hJywgJzIwMCcsICctaW1hZScsICc8aW5maWxlLm1hZT4nLCAnLW9tYWUnLCAnPG91dGZpbGUubWFlPic=

>  <r_lp_tautomer_probability>  (156) 
1

>  <r_epik_Ionization_Penalty>  (156) 
8.87225e-07

>  <r_epik_Ionization_Penalty_Charging>  (156) 
0

>  <r_epik_Ionization_Penalty_Neutral>  (156) 
8.87225e-07

>  <r_epik_State_Penalty>  (156) 
-0

>  <r_epik_Charging_Adjusted_Penalty>  (156) 
0

>  <i_epik_Tot_Q>  (156) 
0

>  <i_epik_Tot_abs_Q>  (156) 
0

>  <s_lp_Force_Field>  (156) 
OPLS3e

>  <r_lp_Energy>  (156) 
122.728

>  <b_lp_Chiralities_Consistent>  (156) 
1

>  <s_lp_Variant>  (156) 
52:0-2

>  <s_i_glide_gridfile>  (156) 
pfpi4k_grid

>  <i_i_glide_lignum>  (156) 
26

>  <i_i_glide_rotatable_bonds>  (156) 
3

>  <r_i_docking_score>  (156) 
-2.28883

>  <r_i_glide_ligand_efficiency>  (156) 
-0.0789253

>  <r_i_glide_ligand_efficiency_sa>  (156) 
-0.242484

>  <r_i_glide_ligand_efficiency_ln>  (156) 
-0.524085

>  <r_i_glide_gscore>  (156) 
-2.28883

>  <r_i_glide_lipo>  (156) 
-0.221329

>  <r_i_glide_hbond>  (156) 
0

>  <r_i_glide_metal>  (156) 
-0

>  <r_i_glide_rewards>  (156) 
-1.1921

>  <r_i_glide_evdw>  (156) 
-18.4223

>  <r_i_glide_ecoul>  (156) 
0.318394

>  <r_i_glide_erotb>  (156) 
0

>  <r_i_glide_esite>  (156) 
-0.00205138

>  <r_i_glide_emodel>  (156) 
-26.0538

>  <r_i_glide_energy>  (156) 
-18.1039

>  <r_i_glide_einternal>  (156) 
1.44332

>  <r_i_glide_intrahb_reward>  (156) 
-0.5

>  <i_i_glide_confnum>  (156) 
2

>  <i_i_glide_posenum>  (156) 
3

>  <r_i_glide_eff_state_penalty>  (156) 
0

>  <ligand_id>  (156) 
52

>  <original_smiles>  (156) 
C=C1C(O)C2C3C(O)CC4(C)C5=C(OC)C3(C)C=CC(=O)C2(C)C1C4(C)C(=O)C5

>  <smiles>  (156) 
[H]OC1([H])C(=C([H])[H])C2([H])C3(C([H])([H])[H])C(=O)C([H])=C([H])C4(C([H])([H])[H])C(OC([H])([H])[H])=C5C([H])([H])C(=O)C2(C([H])([H])[H])C5(C([H])([H])[H])C([H])([H])C([H])(O[H])C4([H])C13[H]

$$$$
52:1:2
     RDKit          3D

 59 63  0  0  1  0  0  0  0  0999 V2000
    4.5764    1.1977    4.8956 C   0  0  0  0  0  0  0  0  0  0  0  0
    3.4357    1.8970    4.7544 C   0  0  0  0  0  0  0  0  0  0  0  0
    2.7482    2.1284    3.4163 C   0  0  1  0  0  0  0  0  0  0  0  0
    2.6407    0.9900    2.5987 O   0  0  0  0  0  0  0  0  0  0  0  0
    1.4874    2.9716    3.7155 C   0  0  1  0  0  0  0  0  0  0  0  0
    0.0804    2.2113    3.7463 C   0  0  1  0  0  0  0  0  0  0  0  0
    0.0033    0.7002    4.0599 C   0  0  1  0  0  0  0  0  0  0  0  0
    0.2186   -0.0904    2.9140 O   0  0  0  0  0  0  0  0  0  0  0  0
    0.8549    0.2071    5.2062 C   0  0  0  0  0  0  0  0  0  0  0  0
    0.7642    0.9737    6.5608 C   0  0  2  0  0  0  0  0  0  0  0  0
    0.4774   -0.2014    7.5761 C   0  0  0  0  0  0  0  0  0  0  0  0
   -0.3590    2.0020    6.8054 C   0  0  0  0  0  0  0  0  0  0  0  0
   -1.1971    2.7009    5.9822 C   0  0  0  0  0  0  0  0  0  0  0  0
   -2.1442    3.5467    6.5209 O   0  0  0  0  0  0  0  0  0  0  0  0
   -3.0063    2.9786    7.5103 C   0  0  0  0  0  0  0  0  0  0  0  0
   -1.1143    2.9167    4.4565 C   0  0  2  0  0  0  0  0  0  0  0  0
   -2.4689    2.4971    3.8299 C   0  0  0  0  0  0  0  0  0  0  0  0
   -1.0062    4.4175    4.2045 C   0  0  0  0  0  0  0  0  0  0  0  0
   -0.1081    5.2676    4.7368 C   0  0  0  0  0  0  0  0  0  0  0  0
    1.0023    4.8010    5.5757 C   0  0  0  0  0  0  0  0  0  0  0  0
    1.2159    5.2948    6.6795 O   0  0  0  0  0  0  0  0  0  0  0  0
    2.0015    3.7952    4.9585 C   0  0  2  0  0  0  0  0  0  0  0  0
    3.0996    4.8104    4.4891 C   0  0  0  0  0  0  0  0  0  0  0  0
    2.7364    2.7177    5.8483 C   0  0  1  0  0  0  0  0  0  0  0  0
    2.0401    1.8093    6.9715 C   0  0  2  0  0  0  0  0  0  0  0  0
    3.1107    0.9221    7.6621 C   0  0  0  0  0  0  0  0  0  0  0  0
    1.4531    2.6804    8.0981 C   0  0  0  0  0  0  0  0  0  0  0  0
    2.1249    3.3940    8.8390 O   0  0  0  0  0  0  0  0  0  0  0  0
   -0.0626    2.5675    8.1800 C   0  0  0  0  0  0  0  0  0  0  0  0
    5.0792    1.1234    5.8477 H   0  0  0  0  0  0  0  0  0  0  0  0
    5.0255    0.7008    4.0498 H   0  0  0  0  0  0  0  0  0  0  0  0
    3.4066    2.7638    2.8443 H   0  0  0  0  0  0  0  0  0  0  0  0
    3.2647    1.0830    1.8921 H   0  0  0  0  0  0  0  0  0  0  0  0
    1.3901    3.6728    2.8823 H   0  0  0  0  0  0  0  0  0  0  0  0
   -0.1985    2.2560    2.6896 H   0  0  0  0  0  0  0  0  0  0  0  0
   -1.0032    0.4167    4.3545 H   0  0  0  0  0  0  0  0  0  0  0  0
    1.0426    0.1985    2.5279 H   0  0  0  0  0  0  0  0  0  0  0  0
    0.5095   -0.8192    5.3409 H   0  0  0  0  0  0  0  0  0  0  0  0
    1.8817    0.0225    4.9129 H   0  0  0  0  0  0  0  0  0  0  0  0
    1.1646   -1.0430    7.4402 H   0  0  0  0  0  0  0  0  0  0  0  0
   -0.5364   -0.5845    7.4233 H   0  0  0  0  0  0  0  0  0  0  0  0
    0.5537    0.0686    8.6296 H   0  0  0  0  0  0  0  0  0  0  0  0
   -3.6606    3.7510    7.9145 H   0  0  0  0  0  0  0  0  0  0  0  0
   -2.5237    2.5453    8.3839 H   0  0  0  0  0  0  0  0  0  0  0  0
   -3.6267    2.2090    7.0497 H   0  0  0  0  0  0  0  0  0  0  0  0
   -3.2919    3.1216    4.1757 H   0  0  0  0  0  0  0  0  0  0  0  0
   -2.7458    1.4733    4.0782 H   0  0  0  0  0  0  0  0  0  0  0  0
   -2.4603    2.5510    2.7420 H   0  0  0  0  0  0  0  0  0  0  0  0
   -1.7623    4.8126    3.5533 H   0  0  0  0  0  0  0  0  0  0  0  0
   -0.1663    6.3270    4.5107 H   0  0  0  0  0  0  0  0  0  0  0  0
    4.0065    4.3557    4.0960 H   0  0  0  0  0  0  0  0  0  0  0  0
    3.4515    5.4268    5.3233 H   0  0  0  0  0  0  0  0  0  0  0  0
    2.7285    5.4936    3.7192 H   0  0  0  0  0  0  0  0  0  0  0  0
    3.5394    3.2396    6.3688 H   0  0  0  0  0  0  0  0  0  0  0  0
    3.3632    0.0410    7.0760 H   0  0  0  0  0  0  0  0  0  0  0  0
    2.7935    0.5638    8.6439 H   0  0  0  0  0  0  0  0  0  0  0  0
    4.0258    1.4817    7.8475 H   0  0  0  0  0  0  0  0  0  0  0  0
   -0.4906    3.5515    8.3557 H   0  0  0  0  0  0  0  0  0  0  0  0
   -0.3592    1.9077    8.9976 H   0  0  0  0  0  0  0  0  0  0  0  0
  1  2  2  0
  1 30  1  0
  1 31  1  0
  2 24  1  0
  2  3  1  0
  3  4  1  0
  3  5  1  0
  3 32  1  6
  4 33  1  0
  5 22  1  0
  5  6  1  0
  5 34  1  6
  6 16  1  0
  6  7  1  0
  6 35  1  6
  7  8  1  0
  7  9  1  0
  7 36  1  1
  8 37  1  0
  9 10  1  0
  9 38  1  0
  9 39  1  0
 10 25  1  0
 10 11  1  1
 10 12  1  0
 11 40  1  0
 11 41  1  0
 11 42  1  0
 12 29  1  0
 12 13  2  0
 13 14  1  0
 13 16  1  0
 14 15  1  0
 15 43  1  0
 15 44  1  0
 15 45  1  0
 16 17  1  6
 16 18  1  0
 17 46  1  0
 17 47  1  0
 17 48  1  0
 18 19  2  0
 18 49  1  0
 19 20  1  0
 19 50  1  0
 20 21  2  0
 20 22  1  0
 22 23  1  6
 22 24  1  0
 23 51  1  0
 23 52  1  0
 23 53  1  0
 24 25  1  0
 24 54  1  1
 25 26  1  1
 25 27  1  0
 26 55  1  0
 26 56  1  0
 26 57  1  0
 27 28  2  0
 27 29  1  0
 29 58  1  0
 29 59  1  0
M  END
>  <i_m_ct_stereo_status>  (157) 
1

>  <s_m_source_file>  (157) 
/var/tmp/pbs.5076255.sched01/tmp1pt1fpgk/39zsbf0m6x.sdf

>  <i_m_source_file_index>  (157) 
26

>  <i_lp_mmshare_version>  (157) 
48012

>  <i_f3d_flags>  (157) 
0

>  <s_epik_input>  (157) 
W09IXVtDQEBIXTFDKD1bQ0gyXSlbQ0BIXShbQ0BAXTIoW0NIM10pQyg9TylbQ0gyXTMpQyhbQ0gzXSkoQyg9TylbQ0hdPVtDSF00KVtDQEBIXTFbQ0BASF0oW0NAQEhdKFtPSF0pW0NIMl01KVtDQEBdNChbQ0gzXSlDKE9bQ0gzXSk9QzNbQ0BdMjVbQ0gzXQ==

>  <s_epik_cmdline>  (157) 
J2VwaWtfcHl0aG9uJywgJy1waHQnLCAnMi4wJywgJy1waCcsICc3LjAnLCAnLXRuJywgJzgnLCAnLW1hJywgJzIwMCcsICctaW1hZScsICc8aW5maWxlLm1hZT4nLCAnLW9tYWUnLCAnPG91dGZpbGUubWFlPic=

>  <r_lp_tautomer_probability>  (157) 
1

>  <r_epik_Ionization_Penalty>  (157) 
8.87225e-07

>  <r_epik_Ionization_Penalty_Charging>  (157) 
0

>  <r_epik_Ionization_Penalty_Neutral>  (157) 
8.87225e-07

>  <r_epik_State_Penalty>  (157) 
-0

>  <r_epik_Charging_Adjusted_Penalty>  (157) 
0

>  <i_epik_Tot_Q>  (157) 
0

>  <i_epik_Tot_abs_Q>  (157) 
0

>  <s_lp_Force_Field>  (157) 
OPLS3e

>  <r_lp_Energy>  (157) 
122.728

>  <b_lp_Chiralities_Consistent>  (157) 
1

>  <s_lp_Variant>  (157) 
52:0-2

>  <s_i_glide_gridfile>  (157) 
pfpi4k_grid

>  <i_i_glide_lignum>  (157) 
26

>  <i_i_glide_rotatable_bonds>  (157) 
3

>  <r_i_docking_score>  (157) 
-2.10582

>  <r_i_glide_ligand_efficiency>  (157) 
-0.0726144

>  <r_i_glide_ligand_efficiency_sa>  (157) 
-0.223095

>  <r_i_glide_ligand_efficiency_ln>  (157) 
-0.482179

>  <r_i_glide_gscore>  (157) 
-2.10582

>  <r_i_glide_lipo>  (157) 
-0.184571

>  <r_i_glide_hbond>  (157) 
0

>  <r_i_glide_metal>  (157) 
-0

>  <r_i_glide_rewards>  (157) 
-1.1921

>  <r_i_glide_evdw>  (157) 
-17.8019

>  <r_i_glide_ecoul>  (157) 
1.1032

>  <r_i_glide_erotb>  (157) 
0

>  <r_i_glide_esite>  (157) 
-0.00453217

>  <r_i_glide_emodel>  (157) 
-24.6455

>  <r_i_glide_energy>  (157) 
-16.6987

>  <r_i_glide_einternal>  (157) 
1.1781

>  <r_i_glide_intrahb_reward>  (157) 
-0.5

>  <i_i_glide_confnum>  (157) 
2

>  <i_i_glide_posenum>  (157) 
39

>  <r_i_glide_eff_state_penalty>  (157) 
0

>  <ligand_id>  (157) 
52

>  <original_smiles>  (157) 
C=C1C(O)C2C3C(O)CC4(C)C5=C(OC)C3(C)C=CC(=O)C2(C)C1C4(C)C(=O)C5

>  <smiles>  (157) 
[H]OC1([H])C(=C([H])[H])C2([H])C3(C([H])([H])[H])C(=O)C([H])=C([H])C4(C([H])([H])[H])C(OC([H])([H])[H])=C5C([H])([H])C(=O)C2(C([H])([H])[H])C5(C([H])([H])[H])C([H])([H])C([H])(O[H])C4([H])C13[H]

$$$$
54:0:0
     RDKit          3D

 67 73  0  0  1  0  0  0  0  0999 V2000
    1.1702  -11.1394    3.9612 C   0  0  0  0  0  0  0  0  0  0  0  0
    1.3391   -9.6398    4.2588 C   0  0  0  0  0  0  0  0  0  0  0  0
    1.2473   -8.6519    3.0365 C   0  0  2  0  0  0  0  0  0  0  0  0
    1.8867   -9.1365    1.6877 C   0  0  0  0  0  0  0  0  0  0  0  0
    3.4130   -9.3289    1.5214 C   0  0  0  0  0  0  0  0  0  0  0  0
    4.3319   -8.4209    2.3455 C   0  0  2  0  0  0  0  0  0  0  0  0
    4.1451   -9.0688    3.6205 O   0  0  0  0  0  0  0  0  0  0  0  0
    4.2873   -8.2689    4.7140 C   0  0  0  0  0  0  0  0  0  0  0  0
    4.9052   -8.7027    5.8960 C   0  0  0  0  0  0  0  0  0  0  0  0
    4.9759  -10.0251    6.2004 O   0  0  0  0  0  0  0  0  0  0  0  0
    5.5739   -7.7647    6.7120 C   0  0  0  0  0  0  0  0  0  0  0  0
    5.7749   -6.4706    6.1928 C   0  0  0  0  0  0  0  0  0  0  0  0
    5.1425   -6.0844    4.9859 C   0  0  0  0  0  0  0  0  0  0  0  0
    4.0611   -6.9016    4.5741 C   0  0  0  0  0  0  0  0  0  0  0  0
    3.1291   -6.4726    3.3962 C   0  0  1  0  0  0  0  0  0  0  0  0
    2.8874   -4.8996    3.4120 C   0  0  0  0  0  0  0  0  0  0  0  0
    4.0766   -3.9538    3.2495 C   0  0  0  0  0  0  0  0  0  0  0  0
    4.9826   -4.4379    2.1859 N   0  0  2  0  0  0  0  0  0  0  0  0
    4.6124   -3.9130    0.8414 C   0  0  0  0  0  0  0  0  0  0  0  0
    5.6239   -4.2182   -0.2426 C   0  0  0  0  0  0  0  0  0  0  0  0
    6.6978   -3.2132   -0.5964 C   0  0  0  0  0  0  0  0  0  0  0  0
    5.5673   -3.4686   -1.5571 C   0  0  0  0  0  0  0  0  0  0  0  0
    5.3070   -5.8977    2.3516 C   0  0  1  0  0  0  0  0  0  0  0  0
    6.0320   -5.9769    3.7268 C   0  0  0  0  0  0  0  0  0  0  0  0
    4.0465   -6.8564    2.2294 C   0  0  1  0  0  0  0  0  0  0  0  0
    3.4739   -6.6145    0.9604 O   0  0  0  0  0  0  0  0  0  0  0  0
    1.6346   -7.1394    3.3586 C   0  0  1  0  0  0  0  0  0  0  0  0
    0.6135   -6.3408    2.4752 C   0  0  0  0  0  0  0  0  0  0  0  0
   -0.5578   -7.2273    2.0819 C   0  0  0  0  0  0  0  0  0  0  0  0
   -0.3043   -8.5205    2.8147 C   0  0  1  0  0  0  0  0  0  0  0  0
   -0.9893   -9.5661    2.1472 O   0  0  0  0  0  0  0  0  0  0  0  0
    1.1979  -11.7057    4.8934 H   0  0  0  0  0  0  0  0  0  0  0  0
    1.9714  -11.5179    3.3239 H   0  0  0  0  0  0  0  0  0  0  0  0
    0.2164  -11.3732    3.4921 H   0  0  0  0  0  0  0  0  0  0  0  0
    0.5866   -9.3592    4.9966 H   0  0  0  0  0  0  0  0  0  0  0  0
    2.2373   -9.5659    4.8466 H   0  0  0  0  0  0  0  0  0  0  0  0
    1.4406  -10.0903    1.4171 H   0  0  0  0  0  0  0  0  0  0  0  0
    1.5773   -8.4570    0.8944 H   0  0  0  0  0  0  0  0  0  0  0  0
    3.6559  -10.3657    1.7674 H   0  0  0  0  0  0  0  0  0  0  0  0
    3.6713   -9.2341    0.4686 H   0  0  0  0  0  0  0  0  0  0  0  0
    5.3690   -8.6198    2.0603 H   0  0  0  0  0  0  0  0  0  0  0  0
    4.4605  -10.5641    5.6180 H   0  0  0  0  0  0  0  0  0  0  0  0
    6.1087   -8.1004    7.5848 H   0  0  0  0  0  0  0  0  0  0  0  0
    6.5959   -5.8819    6.5965 H   0  0  0  0  0  0  0  0  0  0  0  0
    2.2771   -4.5992    2.5653 H   0  0  0  0  0  0  0  0  0  0  0  0
    2.3227   -4.6152    4.2969 H   0  0  0  0  0  0  0  0  0  0  0  0
    3.7311   -2.9478    3.0272 H   0  0  0  0  0  0  0  0  0  0  0  0
    4.6039   -3.8183    4.1880 H   0  0  0  0  0  0  0  0  0  0  0  0
    3.6290   -4.2396    0.5259 H   0  0  0  0  0  0  0  0  0  0  0  0
    4.5286   -2.8311    0.9096 H   0  0  0  0  0  0  0  0  0  0  0  0
    5.8586   -5.2738   -0.3712 H   0  0  0  0  0  0  0  0  0  0  0  0
    6.7015   -2.2702   -0.0511 H   0  0  0  0  0  0  0  0  0  0  0  0
    7.6791   -3.6103   -0.8529 H   0  0  0  0  0  0  0  0  0  0  0  0
    5.8080   -4.0221   -2.4632 H   0  0  0  0  0  0  0  0  0  0  0  0
    4.8079   -2.6974   -1.6752 H   0  0  0  0  0  0  0  0  0  0  0  0
    6.0463   -6.1724    1.6052 H   0  0  0  0  0  0  0  0  0  0  0  0
    6.7007   -5.1233    3.8538 H   0  0  0  0  0  0  0  0  0  0  0  0
    6.6943   -6.8406    3.7074 H   0  0  0  0  0  0  0  0  0  0  0  0
    4.0814   -6.9003    0.2945 H   0  0  0  0  0  0  0  0  0  0  0  0
    1.2670   -6.9853    4.3704 H   0  0  0  0  0  0  0  0  0  0  0  0
    0.2451   -5.4593    3.0030 H   0  0  0  0  0  0  0  0  0  0  0  0
    1.0630   -6.0088    1.5393 H   0  0  0  0  0  0  0  0  0  0  0  0
   -1.5235   -6.8191    2.3760 H   0  0  0  0  0  0  0  0  0  0  0  0
   -0.5772   -7.3781    1.0011 H   0  0  0  0  0  0  0  0  0  0  0  0
   -0.8063   -8.4147    3.7817 H   0  0  0  0  0  0  0  0  0  0  0  0
   -0.5401   -9.7882    1.3382 H   0  0  0  0  0  0  0  0  0  0  0  0
    5.8569   -3.9654    2.3727 H   0  0  0  0  0  0  0  0  0  0  0  0
  1  2  1  0
  1 32  1  0
  1 33  1  0
  1 34  1  0
  3  2  1  1
  2 35  1  0
  2 36  1  0
  3 27  1  0
  3 30  1  0
  3  4  1  0
  4  5  1  0
  4 37  1  0
  4 38  1  0
  5  6  1  0
  5 39  1  0
  5 40  1  0
  6 25  1  0
  6  7  1  0
  6 41  1  6
  7  8  1  0
  8 14  2  0
  8  9  1  0
  9 10  1  0
  9 11  2  0
 10 42  1  0
 11 12  1  0
 11 43  1  0
 12 13  2  0
 12 44  1  0
 13 24  1  0
 13 14  1  0
 14 15  1  0
 15 25  1  0
 15 16  1  1
 15 27  1  0
 16 17  1  0
 16 45  1  0
 16 46  1  0
 17 18  1  0
 17 47  1  0
 17 48  1  0
 18 19  1  0
 18 23  1  0
 18 67  1  1
 19 20  1  0
 19 49  1  0
 19 50  1  0
 20 22  1  0
 20 21  1  0
 20 51  1  0
 21 22  1  0
 21 52  1  0
 21 53  1  0
 22 54  1  0
 22 55  1  0
 23 24  1  0
 23 25  1  0
 23 56  1  6
 24 57  1  0
 24 58  1  0
 25 26  1  6
 26 59  1  0
 27 28  1  0
 27 60  1  1
 28 29  1  0
 28 61  1  0
 28 62  1  0
 29 30  1  0
 29 63  1  0
 29 64  1  0
 30 31  1  0
 30 65  1  1
 31 66  1  0
M  CHG  1  18   1
M  END
>  <i_m_ct_stereo_status>  (158) 
1

>  <s_m_source_file>  (158) 
/var/tmp/pbs.5076255.sched01/tmp1pt1fpgk/39zsbf0m6x.sdf

>  <i_m_source_file_index>  (158) 
28

>  <i_lp_mmshare_version>  (158) 
48012

>  <i_f3d_flags>  (158) 
0

>  <s_epik_input>  (158) 
W09IXVtDQEBIXTFbQ0gyXVtDSDJdW0NASF0yW0NAXTEoW0NIMl1bQ0gzXSlbQ0gyXVtDSDJdW0NASF0oTzMpW0NAXTQoW09IXSlbQ0BASF0oTihbQ0gyXVtDSDJdNSlbQ0gyXVtDSF02W0NIMl1bQ0gyXTYpW0NIMl1jN1tjSF1bY0hdYyhbT0hdKWMzYzdbQ0BdMjQ1

>  <s_epik_cmdline>  (158) 
J2VwaWtfcHl0aG9uJywgJy1waHQnLCAnMi4wJywgJy1waCcsICc3LjAnLCAnLXRuJywgJzgnLCAnLW1hJywgJzIwMCcsICctaW1hZScsICc8aW5maWxlLm1hZT4nLCAnLW9tYWUnLCAnPG91dGZpbGUubWFlPic=

>  <r_lp_tautomer_probability>  (158) 
1

>  <r_epik_Ionization_Penalty>  (158) 
0.0250499

>  <r_epik_Ionization_Penalty_Charging>  (158) 
0.0240542

>  <r_epik_Ionization_Penalty_Neutral>  (158) 
0.000995712

>  <r_epik_State_Penalty>  (158) 
0.0195038

>  <r_epik_Charging_Adjusted_Penalty>  (158) 
0.043558

>  <i_epik_Tot_Q>  (158) 
1

>  <i_epik_Tot_abs_Q>  (158) 
1

>  <s_lp_Force_Field>  (158) 
OPLS3e

>  <r_lp_Energy>  (158) 
183.136

>  <b_lp_Chiralities_Consistent>  (158) 
1

>  <s_lp_Variant>  (158) 
54:0-1

>  <s_i_glide_gridfile>  (158) 
pfpi4k_grid

>  <i_i_glide_lignum>  (158) 
28

>  <i_i_glide_rotatable_bonds>  (158) 
6

>  <r_i_docking_score>  (158) 
-2.95751

>  <r_i_glide_ligand_efficiency>  (158) 
-0.0954036

>  <r_i_glide_ligand_efficiency_sa>  (158) 
-0.299699

>  <r_i_glide_ligand_efficiency_ln>  (158) 
-0.667009

>  <r_i_glide_gscore>  (158) 
-2.95751

>  <r_i_glide_lipo>  (158) 
-0.518363

>  <r_i_glide_hbond>  (158) 
-0.32

>  <r_i_glide_metal>  (158) 
-0

>  <r_i_glide_rewards>  (158) 
-0.50067

>  <r_i_glide_evdw>  (158) 
-20.5136

>  <r_i_glide_ecoul>  (158) 
-5.40629

>  <r_i_glide_erotb>  (158) 
0.218149

>  <r_i_glide_esite>  (158) 
0

>  <r_i_glide_emodel>  (158) 
-31.2402

>  <r_i_glide_energy>  (158) 
-25.9199

>  <r_i_glide_einternal>  (158) 
1.50821

>  <r_i_glide_intrahb_reward>  (158) 
-0

>  <i_i_glide_confnum>  (158) 
2

>  <i_i_glide_posenum>  (158) 
30

>  <r_i_glide_eff_state_penalty>  (158) 
0

>  <ligand_id>  (158) 
54

>  <original_smiles>  (158) 
CCC12CCC3Oc4c(O)ccc5c4C4(CCN(CC6CC6)C(C5)C34O)C1CCC2O

>  <smiles>  (158) 
[H]Oc1c([H])c([H])c2c3c1OC1([H])C([H])([H])C([H])([H])C4(C([H])([H])C([H])([H])[H])C([H])(O[H])C([H])([H])C([H])([H])C4([H])C34C([H])([H])C([H])([H])[N+]([H])(C([H])([H])C3([H])C([H])([H])C3([H])[H])C([H])(C2([H])[H])C14O[H]

$$$$
54:0:1
     RDKit          3D

 67 73  0  0  1  0  0  0  0  0999 V2000
    2.1808   -9.8950    4.7548 C   0  0  0  0  0  0  0  0  0  0  0  0
    2.7652   -8.4688    4.7483 C   0  0  0  0  0  0  0  0  0  0  0  0
    1.9422   -7.3548    4.0023 C   0  0  2  0  0  0  0  0  0  0  0  0
    1.2264   -7.7858    2.6685 C   0  0  0  0  0  0  0  0  0  0  0  0
    2.0292   -8.1504    1.3996 C   0  0  0  0  0  0  0  0  0  0  0  0
    3.3812   -7.4495    1.1962 C   0  0  2  0  0  0  0  0  0  0  0  0
    4.1339   -8.1964    2.1675 O   0  0  0  0  0  0  0  0  0  0  0  0
    5.1837   -7.5377    2.7288 C   0  0  0  0  0  0  0  0  0  0  0  0
    6.4029   -8.1683    3.0215 C   0  0  0  0  0  0  0  0  0  0  0  0
    6.4643   -9.5154    3.1843 O   0  0  0  0  0  0  0  0  0  0  0  0
    7.5965   -7.4091    3.0065 C   0  0  0  0  0  0  0  0  0  0  0  0
    7.5309   -6.1069    2.4779 C   0  0  0  0  0  0  0  0  0  0  0  0
    6.2791   -5.5156    2.1761 C   0  0  0  0  0  0  0  0  0  0  0  0
    5.1517   -6.1458    2.7691 C   0  0  0  0  0  0  0  0  0  0  0  0
    3.7393   -5.4802    2.7186 C   0  0  1  0  0  0  0  0  0  0  0  0
    3.8518   -3.9008    2.8704 C   0  0  0  0  0  0  0  0  0  0  0  0
    4.6238   -3.1025    1.8195 C   0  0  0  0  0  0  0  0  0  0  0  0
    4.2954   -3.5859    0.4702 N   0  0  2  0  0  0  0  0  0  0  0  0
    3.1407   -2.8754   -0.1306 C   0  0  0  0  0  0  0  0  0  0  0  0
    2.8370   -3.2968   -1.5479 C   0  0  0  0  0  0  0  0  0  0  0  0
    3.8409   -3.0585   -2.6544 C   0  0  0  0  0  0  0  0  0  0  0  0
    2.5643   -2.2664   -2.6251 C   0  0  0  0  0  0  0  0  0  0  0  0
    4.3963   -5.0761    0.3604 C   0  0  1  0  0  0  0  0  0  0  0  0
    5.8895   -5.3817    0.6869 C   0  0  0  0  0  0  0  0  0  0  0  0
    3.3610   -5.8573    1.2842 C   0  0  1  0  0  0  0  0  0  0  0  0
    2.0744   -5.4316    0.8759 O   0  0  0  0  0  0  0  0  0  0  0  0
    2.6672   -5.9427    3.8624 C   0  0  1  0  0  0  0  0  0  0  0  0
    1.4782   -4.9356    4.0559 C   0  0  0  0  0  0  0  0  0  0  0  0
    0.3111   -5.6252    4.7394 C   0  0  0  0  0  0  0  0  0  0  0  0
    0.8381   -7.0024    5.0535 C   0  0  1  0  0  0  0  0  0  0  0  0
   -0.2545   -7.8942    5.1053 O   0  0  0  0  0  0  0  0  0  0  0  0
    2.8210  -10.5517    5.3441 H   0  0  0  0  0  0  0  0  0  0  0  0
    2.1211  -10.3085    3.7471 H   0  0  0  0  0  0  0  0  0  0  0  0
    1.1953   -9.9693    5.2104 H   0  0  0  0  0  0  0  0  0  0  0  0
    2.9198   -8.1577    5.7819 H   0  0  0  0  0  0  0  0  0  0  0  0
    3.7820   -8.5867    4.4169 H   0  0  0  0  0  0  0  0  0  0  0  0
    0.5674   -8.6345    2.8536 H   0  0  0  0  0  0  0  0  0  0  0  0
    0.5410   -6.9912    2.3745 H   0  0  0  0  0  0  0  0  0  0  0  0
    2.1945   -9.2318    1.3811 H   0  0  0  0  0  0  0  0  0  0  0  0
    1.3882   -7.9564    0.5453 H   0  0  0  0  0  0  0  0  0  0  0  0
    3.8136   -7.7384    0.2313 H   0  0  0  0  0  0  0  0  0  0  0  0
    5.6187   -9.9283    3.0876 H   0  0  0  0  0  0  0  0  0  0  0  0
    8.5443   -7.8960    3.1601 H   0  0  0  0  0  0  0  0  0  0  0  0
    8.4513   -5.6723    2.0928 H   0  0  0  0  0  0  0  0  0  0  0  0
    2.8713   -3.4391    2.7873 H   0  0  0  0  0  0  0  0  0  0  0  0
    4.2158   -3.6395    3.8611 H   0  0  0  0  0  0  0  0  0  0  0  0
    4.3986   -2.0408    1.9097 H   0  0  0  0  0  0  0  0  0  0  0  0
    5.6922   -3.1302    2.0134 H   0  0  0  0  0  0  0  0  0  0  0  0
    2.2418   -2.9685    0.4733 H   0  0  0  0  0  0  0  0  0  0  0  0
    3.3624   -1.8094   -0.1427 H   0  0  0  0  0  0  0  0  0  0  0  0
    2.2325   -4.2020   -1.6168 H   0  0  0  0  0  0  0  0  0  0  0  0
    4.7667   -2.5578   -2.3753 H   0  0  0  0  0  0  0  0  0  0  0  0
    3.9327   -3.8400   -3.4075 H   0  0  0  0  0  0  0  0  0  0  0  0
    1.8137   -2.5064   -3.3757 H   0  0  0  0  0  0  0  0  0  0  0  0
    2.6205   -1.2149   -2.3424 H   0  0  0  0  0  0  0  0  0  0  0  0
    4.2346   -5.3493   -0.6820 H   0  0  0  0  0  0  0  0  0  0  0  0
    6.5487   -4.6382    0.2238 H   0  0  0  0  0  0  0  0  0  0  0  0
    6.1564   -6.3063    0.1856 H   0  0  0  0  0  0  0  0  0  0  0  0
    2.0159   -5.5810   -0.0546 H   0  0  0  0  0  0  0  0  0  0  0  0
    3.2291   -5.8481    4.7886 H   0  0  0  0  0  0  0  0  0  0  0  0
    1.7771   -4.0699    4.6507 H   0  0  0  0  0  0  0  0  0  0  0  0
    1.0941   -4.5637    3.1060 H   0  0  0  0  0  0  0  0  0  0  0  0
   -0.0118   -5.1135    5.6448 H   0  0  0  0  0  0  0  0  0  0  0  0
   -0.5524   -5.6680    4.0780 H   0  0  0  0  0  0  0  0  0  0  0  0
    1.2606   -6.9432    6.0604 H   0  0  0  0  0  0  0  0  0  0  0  0
    0.0640   -8.7525    5.3416 H   0  0  0  0  0  0  0  0  0  0  0  0
    5.0629   -3.2547   -0.1051 H   0  0  0  0  0  0  0  0  0  0  0  0
  1  2  1  0
  1 32  1  0
  1 33  1  0
  1 34  1  0
  3  2  1  1
  2 35  1  0
  2 36  1  0
  3 27  1  0
  3 30  1  0
  3  4  1  0
  4  5  1  0
  4 37  1  0
  4 38  1  0
  5  6  1  0
  5 39  1  0
  5 40  1  0
  6 25  1  0
  6  7  1  0
  6 41  1  6
  7  8  1  0
  8 14  2  0
  8  9  1  0
  9 10  1  0
  9 11  2  0
 10 42  1  0
 11 12  1  0
 11 43  1  0
 12 13  2  0
 12 44  1  0
 13 24  1  0
 13 14  1  0
 14 15  1  0
 15 25  1  0
 15 16  1  6
 15 27  1  0
 16 17  1  0
 16 45  1  0
 16 46  1  0
 17 18  1  0
 17 47  1  0
 17 48  1  0
 18 19  1  0
 18 23  1  0
 18 67  1  6
 19 20  1  0
 19 49  1  0
 19 50  1  0
 20 22  1  0
 20 21  1  0
 20 51  1  0
 21 22  1  0
 21 52  1  0
 21 53  1  0
 22 54  1  0
 22 55  1  0
 23 24  1  0
 23 25  1  0
 23 56  1  6
 24 57  1  0
 24 58  1  0
 25 26  1  6
 26 59  1  0
 27 28  1  0
 27 60  1  1
 28 29  1  0
 28 61  1  0
 28 62  1  0
 29 30  1  0
 29 63  1  0
 29 64  1  0
 30 31  1  0
 30 65  1  1
 31 66  1  0
M  CHG  1  18   1
M  END
>  <i_m_ct_stereo_status>  (159) 
1

>  <s_m_source_file>  (159) 
/var/tmp/pbs.5076255.sched01/tmp1pt1fpgk/39zsbf0m6x.sdf

>  <i_m_source_file_index>  (159) 
28

>  <i_lp_mmshare_version>  (159) 
48012

>  <i_f3d_flags>  (159) 
0

>  <s_epik_input>  (159) 
W09IXVtDQEBIXTFbQ0gyXVtDSDJdW0NASF0yW0NAXTEoW0NIMl1bQ0gzXSlbQ0gyXVtDSDJdW0NASF0oTzMpW0NAXTQoW09IXSlbQ0BASF0oTihbQ0gyXVtDSDJdNSlbQ0gyXVtDSF02W0NIMl1bQ0gyXTYpW0NIMl1jN1tjSF1bY0hdYyhbT0hdKWMzYzdbQ0BdMjQ1

>  <s_epik_cmdline>  (159) 
J2VwaWtfcHl0aG9uJywgJy1waHQnLCAnMi4wJywgJy1waCcsICc3LjAnLCAnLXRuJywgJzgnLCAnLW1hJywgJzIwMCcsICctaW1hZScsICc8aW5maWxlLm1hZT4nLCAnLW9tYWUnLCAnPG91dGZpbGUubWFlPic=

>  <r_lp_tautomer_probability>  (159) 
1

>  <r_epik_Ionization_Penalty>  (159) 
0.0250499

>  <r_epik_Ionization_Penalty_Charging>  (159) 
0.0240542

>  <r_epik_Ionization_Penalty_Neutral>  (159) 
0.000995712

>  <r_epik_State_Penalty>  (159) 
0.0195038

>  <r_epik_Charging_Adjusted_Penalty>  (159) 
0.043558

>  <i_epik_Tot_Q>  (159) 
1

>  <i_epik_Tot_abs_Q>  (159) 
1

>  <s_lp_Force_Field>  (159) 
OPLS3e

>  <r_lp_Energy>  (159) 
183.136

>  <b_lp_Chiralities_Consistent>  (159) 
1

>  <s_lp_Variant>  (159) 
54:0-1

>  <s_i_glide_gridfile>  (159) 
pfpi4k_grid

>  <i_i_glide_lignum>  (159) 
28

>  <i_i_glide_rotatable_bonds>  (159) 
6

>  <r_i_docking_score>  (159) 
-2.69474

>  <r_i_glide_ligand_efficiency>  (159) 
-0.0869271

>  <r_i_glide_ligand_efficiency_sa>  (159) 
-0.273071

>  <r_i_glide_ligand_efficiency_ln>  (159) 
-0.607746

>  <r_i_glide_gscore>  (159) 
-2.69474

>  <r_i_glide_lipo>  (159) 
-0.446591

>  <r_i_glide_hbond>  (159) 
-0.0365054

>  <r_i_glide_metal>  (159) 
-0

>  <r_i_glide_rewards>  (159) 
-0.50067

>  <r_i_glide_evdw>  (159) 
-22.2644

>  <r_i_glide_ecoul>  (159) 
-5.43935

>  <r_i_glide_erotb>  (159) 
0.218149

>  <r_i_glide_esite>  (159) 
0

>  <r_i_glide_emodel>  (159) 
-31.3065

>  <r_i_glide_energy>  (159) 
-27.7037

>  <r_i_glide_einternal>  (159) 
3.43405

>  <r_i_glide_intrahb_reward>  (159) 
-0

>  <i_i_glide_confnum>  (159) 
2

>  <i_i_glide_posenum>  (159) 
29

>  <r_i_glide_eff_state_penalty>  (159) 
0

>  <ligand_id>  (159) 
54

>  <original_smiles>  (159) 
CCC12CCC3Oc4c(O)ccc5c4C4(CCN(CC6CC6)C(C5)C34O)C1CCC2O

>  <smiles>  (159) 
[H]Oc1c([H])c([H])c2c3c1OC1([H])C([H])([H])C([H])([H])C4(C([H])([H])C([H])([H])[H])C([H])(O[H])C([H])([H])C([H])([H])C4([H])C34C([H])([H])C([H])([H])[N+]([H])(C([H])([H])C3([H])C([H])([H])C3([H])[H])C([H])(C2([H])[H])C14O[H]

$$$$
54:0:2
     RDKit          3D

 67 73  0  0  1  0  0  0  0  0999 V2000
    1.3993   -9.0390    7.6479 C   0  0  0  0  0  0  0  0  0  0  0  0
    0.2391   -8.3103    6.9220 C   0  0  0  0  0  0  0  0  0  0  0  0
    0.5849   -6.9097    6.2855 C   0  0  2  0  0  0  0  0  0  0  0  0
   -0.5166   -6.3370    5.3180 C   0  0  0  0  0  0  0  0  0  0  0  0
   -0.8352   -7.0177    3.9623 C   0  0  0  0  0  0  0  0  0  0  0  0
    0.3073   -7.7489    3.2361 C   0  0  2  0  0  0  0  0  0  0  0  0
    0.3419   -8.9253    4.0574 O   0  0  0  0  0  0  0  0  0  0  0  0
    1.5485   -9.5087    4.2298 C   0  0  0  0  0  0  0  0  0  0  0  0
    1.6811  -10.9092    4.2545 C   0  0  0  0  0  0  0  0  0  0  0  0
    0.6173  -11.6893    4.5769 O   0  0  0  0  0  0  0  0  0  0  0  0
    2.8581  -11.4932    3.7695 C   0  0  0  0  0  0  0  0  0  0  0  0
    3.7586  -10.6760    3.0534 C   0  0  0  0  0  0  0  0  0  0  0  0
    3.5444   -9.2823    3.0099 C   0  0  0  0  0  0  0  0  0  0  0  0
    2.7062   -8.7552    4.0206 C   0  0  0  0  0  0  0  0  0  0  0  0
    2.5713   -7.2128    4.2228 C   0  0  1  0  0  0  0  0  0  0  0  0
    3.9841   -6.5060    4.0433 C   0  0  0  0  0  0  0  0  0  0  0  0
    4.6990   -6.5862    2.6909 C   0  0  0  0  0  0  0  0  0  0  0  0
    3.7424   -6.3577    1.5863 N   0  0  2  0  0  0  0  0  0  0  0  0
    3.6081   -4.9129    1.2382 C   0  0  0  0  0  0  0  0  0  0  0  0
    3.0493   -4.6613   -0.1479 C   0  0  0  0  0  0  0  0  0  0  0  0
    3.8776   -3.8718   -1.1488 C   0  0  0  0  0  0  0  0  0  0  0  0
    2.6560   -3.2511   -0.5401 C   0  0  0  0  0  0  0  0  0  0  0  0
    2.5073   -7.2066    1.7383 C   0  0  1  0  0  0  0  0  0  0  0  0
    3.0340   -8.6738    1.6802 C   0  0  0  0  0  0  0  0  0  0  0  0
    1.6443   -6.9005    3.0411 C   0  0  1  0  0  0  0  0  0  0  0  0
    1.2451   -5.5452    2.9560 O   0  0  0  0  0  0  0  0  0  0  0  0
    2.0447   -6.7169    5.6779 C   0  0  1  0  0  0  0  0  0  0  0  0
    2.3675   -5.2237    6.0190 C   0  0  0  0  0  0  0  0  0  0  0  0
    1.4520   -4.7326    7.1313 C   0  0  0  0  0  0  0  0  0  0  0  0
    0.6503   -5.9569    7.5267 C   0  0  1  0  0  0  0  0  0  0  0  0
   -0.5824   -5.5853    8.1182 O   0  0  0  0  0  0  0  0  0  0  0  0
    1.0678  -10.0100    8.0112 H   0  0  0  0  0  0  0  0  0  0  0  0
    1.7667   -8.4871    8.5123 H   0  0  0  0  0  0  0  0  0  0  0  0
    2.2501   -9.2426    6.9973 H   0  0  0  0  0  0  0  0  0  0  0  0
   -0.2210   -9.0122    6.2358 H   0  0  0  0  0  0  0  0  0  0  0  0
   -0.5471   -8.1696    7.6720 H   0  0  0  0  0  0  0  0  0  0  0  0
   -1.4701   -6.2523    5.8318 H   0  0  0  0  0  0  0  0  0  0  0  0
   -0.2701   -5.2986    5.0920 H   0  0  0  0  0  0  0  0  0  0  0  0
   -1.6583   -7.7209    4.1052 H   0  0  0  0  0  0  0  0  0  0  0  0
   -1.2364   -6.2603    3.2966 H   0  0  0  0  0  0  0  0  0  0  0  0
   -0.0432   -8.0650    2.2485 H   0  0  0  0  0  0  0  0  0  0  0  0
   -0.1408  -11.2046    4.8912 H   0  0  0  0  0  0  0  0  0  0  0  0
    2.9456  -12.5613    3.7161 H   0  0  0  0  0  0  0  0  0  0  0  0
    4.4221  -11.1530    2.3403 H   0  0  0  0  0  0  0  0  0  0  0  0
    3.8880   -5.4296    4.1629 H   0  0  0  0  0  0  0  0  0  0  0  0
    4.6692   -6.8316    4.8282 H   0  0  0  0  0  0  0  0  0  0  0  0
    5.5147   -5.8611    2.6646 H   0  0  0  0  0  0  0  0  0  0  0  0
    5.2261   -7.5339    2.5800 H   0  0  0  0  0  0  0  0  0  0  0  0
    3.0483   -4.3275    1.9621 H   0  0  0  0  0  0  0  0  0  0  0  0
    4.5984   -4.4531    1.2530 H   0  0  0  0  0  0  0  0  0  0  0  0
    2.3714   -5.4247   -0.5373 H   0  0  0  0  0  0  0  0  0  0  0  0
    4.8536   -3.5052   -0.8310 H   0  0  0  0  0  0  0  0  0  0  0  0
    3.8163   -4.1763   -2.1903 H   0  0  0  0  0  0  0  0  0  0  0  0
    1.7991   -3.1337   -1.1991 H   0  0  0  0  0  0  0  0  0  0  0  0
    2.8054   -2.4459    0.1791 H   0  0  0  0  0  0  0  0  0  0  0  0
    1.8710   -7.0469    0.8706 H   0  0  0  0  0  0  0  0  0  0  0  0
    3.8215   -8.7698    0.9222 H   0  0  0  0  0  0  0  0  0  0  0  0
    2.2302   -9.3145    1.3170 H   0  0  0  0  0  0  0  0  0  0  0  0
    2.0163   -5.0051    3.0270 H   0  0  0  0  0  0  0  0  0  0  0  0
    2.7282   -7.2152    6.3583 H   0  0  0  0  0  0  0  0  0  0  0  0
    3.4058   -5.1233    6.3458 H   0  0  0  0  0  0  0  0  0  0  0  0
    2.2163   -4.5594    5.1686 H   0  0  0  0  0  0  0  0  0  0  0  0
    2.0088   -4.3414    7.9838 H   0  0  0  0  0  0  0  0  0  0  0  0
    0.8224   -3.9197    6.7657 H   0  0  0  0  0  0  0  0  0  0  0  0
    1.2114   -6.4275    8.3322 H   0  0  0  0  0  0  0  0  0  0  0  0
   -1.1362   -5.1835    7.4671 H   0  0  0  0  0  0  0  0  0  0  0  0
    4.2156   -6.7452    0.7803 H   0  0  0  0  0  0  0  0  0  0  0  0
  1  2  1  0
  1 32  1  0
  1 33  1  0
  1 34  1  0
  3  2  1  1
  2 35  1  0
  2 36  1  0
  3 27  1  0
  3 30  1  0
  3  4  1  0
  4  5  1  0
  4 37  1  0
  4 38  1  0
  5  6  1  0
  5 39  1  0
  5 40  1  0
  6 25  1  0
  6  7  1  0
  6 41  1  6
  7  8  1  0
  8 14  2  0
  8  9  1  0
  9 10  1  0
  9 11  2  0
 10 42  1  0
 11 12  1  0
 11 43  1  0
 12 13  2  0
 12 44  1  0
 13 24  1  0
 13 14  1  0
 14 15  1  0
 15 25  1  0
 15 16  1  6
 15 27  1  0
 16 17  1  0
 16 45  1  0
 16 46  1  0
 17 18  1  0
 17 47  1  0
 17 48  1  0
 18 19  1  0
 18 23  1  0
 18 67  1  6
 19 20  1  0
 19 49  1  0
 19 50  1  0
 20 22  1  0
 20 21  1  0
 20 51  1  0
 21 22  1  0
 21 52  1  0
 21 53  1  0
 22 54  1  0
 22 55  1  0
 23 24  1  0
 23 25  1  0
 23 56  1  6
 24 57  1  0
 24 58  1  0
 25 26  1  6
 26 59  1  0
 27 28  1  0
 27 60  1  1
 28 29  1  0
 28 61  1  0
 28 62  1  0
 29 30  1  0
 29 63  1  0
 29 64  1  0
 30 31  1  0
 30 65  1  1
 31 66  1  0
M  CHG  1  18   1
M  END
>  <i_m_ct_stereo_status>  (160) 
1

>  <s_m_source_file>  (160) 
/var/tmp/pbs.5076255.sched01/tmp1pt1fpgk/39zsbf0m6x.sdf

>  <i_m_source_file_index>  (160) 
28

>  <i_lp_mmshare_version>  (160) 
48012

>  <i_f3d_flags>  (160) 
0

>  <s_epik_input>  (160) 
W09IXVtDQEBIXTFbQ0gyXVtDSDJdW0NASF0yW0NAXTEoW0NIMl1bQ0gzXSlbQ0gyXVtDSDJdW0NASF0oTzMpW0NAXTQoW09IXSlbQ0BASF0oTihbQ0gyXVtDSDJdNSlbQ0gyXVtDSF02W0NIMl1bQ0gyXTYpW0NIMl1jN1tjSF1bY0hdYyhbT0hdKWMzYzdbQ0BdMjQ1

>  <s_epik_cmdline>  (160) 
J2VwaWtfcHl0aG9uJywgJy1waHQnLCAnMi4wJywgJy1waCcsICc3LjAnLCAnLXRuJywgJzgnLCAnLW1hJywgJzIwMCcsICctaW1hZScsICc8aW5maWxlLm1hZT4nLCAnLW9tYWUnLCAnPG91dGZpbGUubWFlPic=

>  <r_lp_tautomer_probability>  (160) 
1

>  <r_epik_Ionization_Penalty>  (160) 
0.0250499

>  <r_epik_Ionization_Penalty_Charging>  (160) 
0.0240542

>  <r_epik_Ionization_Penalty_Neutral>  (160) 
0.000995712

>  <r_epik_State_Penalty>  (160) 
0.0195038

>  <r_epik_Charging_Adjusted_Penalty>  (160) 
0.043558

>  <i_epik_Tot_Q>  (160) 
1

>  <i_epik_Tot_abs_Q>  (160) 
1

>  <s_lp_Force_Field>  (160) 
OPLS3e

>  <r_lp_Energy>  (160) 
183.136

>  <b_lp_Chiralities_Consistent>  (160) 
1

>  <s_lp_Variant>  (160) 
54:0-1

>  <s_i_glide_gridfile>  (160) 
pfpi4k_grid

>  <i_i_glide_lignum>  (160) 
28

>  <i_i_glide_rotatable_bonds>  (160) 
6

>  <r_i_docking_score>  (160) 
-2.00319

>  <r_i_glide_ligand_efficiency>  (160) 
-0.0646189

>  <r_i_glide_ligand_efficiency_sa>  (160) 
-0.202993

>  <r_i_glide_ligand_efficiency_ln>  (160) 
-0.45178

>  <r_i_glide_gscore>  (160) 
-2.00319

>  <r_i_glide_lipo>  (160) 
-0.00759704

>  <r_i_glide_hbond>  (160) 
0

>  <r_i_glide_metal>  (160) 
-0

>  <r_i_glide_rewards>  (160) 
-0.50067

>  <r_i_glide_evdw>  (160) 
-21.5273

>  <r_i_glide_ecoul>  (160) 
-4.24468

>  <r_i_glide_erotb>  (160) 
0.218149

>  <r_i_glide_esite>  (160) 
0

>  <r_i_glide_emodel>  (160) 
-27.6704

>  <r_i_glide_energy>  (160) 
-25.772

>  <r_i_glide_einternal>  (160) 
3.89907

>  <r_i_glide_intrahb_reward>  (160) 
-0

>  <i_i_glide_confnum>  (160) 
2

>  <i_i_glide_posenum>  (160) 
4

>  <r_i_glide_eff_state_penalty>  (160) 
0

>  <ligand_id>  (160) 
54

>  <original_smiles>  (160) 
CCC12CCC3Oc4c(O)ccc5c4C4(CCN(CC6CC6)C(C5)C34O)C1CCC2O

>  <smiles>  (160) 
[H]Oc1c([H])c([H])c2c3c1OC1([H])C([H])([H])C([H])([H])C4(C([H])([H])C([H])([H])[H])C([H])(O[H])C([H])([H])C([H])([H])C4([H])C34C([H])([H])C([H])([H])[N+]([H])(C([H])([H])C3([H])C([H])([H])C3([H])[H])C([H])(C2([H])[H])C14O[H]

$$$$
54:1:0
     RDKit          3D

 66 72  0  0  1  0  0  0  0  0999 V2000
    4.2243   -7.9088    4.4166 C   0  0  0  0  0  0  0  0  0  0  0  0
    4.6340   -6.4510    4.1386 C   0  0  0  0  0  0  0  0  0  0  0  0
    3.5908   -5.5385    3.3957 C   0  0  2  0  0  0  0  0  0  0  0  0
    2.7948   -6.2224    2.2194 C   0  0  0  0  0  0  0  0  0  0  0  0
    3.4772   -6.6354    0.8895 C   0  0  0  0  0  0  0  0  0  0  0  0
    4.6634   -5.7858    0.4175 C   0  0  2  0  0  0  0  0  0  0  0  0
    5.5922   -6.3430    1.3490 O   0  0  0  0  0  0  0  0  0  0  0  0
    6.6324   -5.5250    1.6815 C   0  0  0  0  0  0  0  0  0  0  0  0
    7.9499   -6.0015    1.7520 C   0  0  0  0  0  0  0  0  0  0  0  0
    8.2121   -7.3147    2.0052 O   0  0  0  0  0  0  0  0  0  0  0  0
    9.0069   -5.1529    1.3901 C   0  0  0  0  0  0  0  0  0  0  0  0
    8.6981   -3.9434    0.7370 C   0  0  0  0  0  0  0  0  0  0  0  0
    7.3605   -3.4885    0.7309 C   0  0  0  0  0  0  0  0  0  0  0  0
    6.4308   -4.1590    1.5604 C   0  0  0  0  0  0  0  0  0  0  0  0
    4.9689   -3.6289    1.7185 C   0  0  1  0  0  0  0  0  0  0  0  0
    5.0139   -2.0331    1.6921 C   0  0  0  0  0  0  0  0  0  0  0  0
    4.1811   -1.4194    0.5449 C   0  0  0  0  0  0  0  0  0  0  0  0
    4.5770   -1.9305   -0.7667 N   0  0  0  0  0  0  0  0  0  0  0  0
    3.5859   -1.6887   -1.8033 C   0  0  0  0  0  0  0  0  0  0  0  0
    4.0912   -1.9466   -3.2047 C   0  0  0  0  0  0  0  0  0  0  0  0
    3.2808   -1.4929   -4.3942 C   0  0  0  0  0  0  0  0  0  0  0  0
    3.4029   -2.9646   -4.0834 C   0  0  0  0  0  0  0  0  0  0  0  0
    5.1110   -3.3057   -0.6986 C   0  0  1  0  0  0  0  0  0  0  0  0
    6.6606   -3.0676   -0.5627 C   0  0  0  0  0  0  0  0  0  0  0  0
    4.4141   -4.2106    0.4109 C   0  0  1  0  0  0  0  0  0  0  0  0
    3.0237   -4.0424    0.2040 O   0  0  0  0  0  0  0  0  0  0  0  0
    4.1310   -4.0779    3.0384 C   0  0  1  0  0  0  0  0  0  0  0  0
    2.8963   -3.1525    3.3219 C   0  0  0  0  0  0  0  0  0  0  0  0
    1.8423   -3.9202    4.1048 C   0  0  0  0  0  0  0  0  0  0  0  0
    2.5601   -5.1849    4.5191 C   0  0  1  0  0  0  0  0  0  0  0  0
    1.5970   -6.1768    4.8058 O   0  0  0  0  0  0  0  0  0  0  0  0
    5.0175   -8.4151    4.9675 H   0  0  0  0  0  0  0  0  0  0  0  0
    4.0667   -8.4636    3.4904 H   0  0  0  0  0  0  0  0  0  0  0  0
    3.3305   -8.0034    5.0284 H   0  0  0  0  0  0  0  0  0  0  0  0
    4.8970   -5.9829    5.0880 H   0  0  0  0  0  0  0  0  0  0  0  0
    5.5943   -6.5186    3.6580 H   0  0  0  0  0  0  0  0  0  0  0  0
    2.2943   -7.1201    2.5845 H   0  0  0  0  0  0  0  0  0  0  0  0
    1.9674   -5.5682    1.9484 H   0  0  0  0  0  0  0  0  0  0  0  0
    3.7926   -7.6803    0.9632 H   0  0  0  0  0  0  0  0  0  0  0  0
    2.7230   -6.6211    0.1070 H   0  0  0  0  0  0  0  0  0  0  0  0
    4.9759   -6.1146   -0.5739 H   0  0  0  0  0  0  0  0  0  0  0  0
    9.1315   -7.5521    1.8340 H   0  0  0  0  0  0  0  0  0  0  0  0
   10.0012   -5.5597    1.3962 H   0  0  0  0  0  0  0  0  0  0  0  0
    9.4260   -3.4598    0.1037 H   0  0  0  0  0  0  0  0  0  0  0  0
    4.7207   -1.5835    2.6354 H   0  0  0  0  0  0  0  0  0  0  0  0
    6.0260   -1.6382    1.6067 H   0  0  0  0  0  0  0  0  0  0  0  0
    3.1171   -1.5876    0.7137 H   0  0  0  0  0  0  0  0  0  0  0  0
    4.2998   -0.3375    0.5568 H   0  0  0  0  0  0  0  0  0  0  0  0
    2.6784   -2.2621   -1.6235 H   0  0  0  0  0  0  0  0  0  0  0  0
    3.2897   -0.6483   -1.7718 H   0  0  0  0  0  0  0  0  0  0  0  0
    5.1677   -1.8516   -3.3218 H   0  0  0  0  0  0  0  0  0  0  0  0
    2.3245   -1.0151   -4.2000 H   0  0  0  0  0  0  0  0  0  0  0  0
    3.8209   -1.1007   -5.2526 H   0  0  0  0  0  0  0  0  0  0  0  0
    4.0414   -3.5794   -4.7139 H   0  0  0  0  0  0  0  0  0  0  0  0
    2.5411   -3.4731   -3.6553 H   0  0  0  0  0  0  0  0  0  0  0  0
    4.9711   -3.7857   -1.6657 H   0  0  0  0  0  0  0  0  0  0  0  0
    6.9145   -2.0113   -0.6949 H   0  0  0  0  0  0  0  0  0  0  0  0
    7.1609   -3.5699   -1.3935 H   0  0  0  0  0  0  0  0  0  0  0  0
    2.8292   -4.3472   -0.6714 H   0  0  0  0  0  0  0  0  0  0  0  0
    4.8102   -3.8465    3.8587 H   0  0  0  0  0  0  0  0  0  0  0  0
    3.1812   -2.2823    3.9119 H   0  0  0  0  0  0  0  0  0  0  0  0
    2.4307   -2.7863    2.4099 H   0  0  0  0  0  0  0  0  0  0  0  0
    1.4834   -3.3689    4.9751 H   0  0  0  0  0  0  0  0  0  0  0  0
    0.9744   -4.1275    3.4777 H   0  0  0  0  0  0  0  0  0  0  0  0
    3.0766   -4.9574    5.4542 H   0  0  0  0  0  0  0  0  0  0  0  0
    2.0546   -6.9374    5.1359 H   0  0  0  0  0  0  0  0  0  0  0  0
  1  2  1  0
  1 32  1  0
  1 33  1  0
  1 34  1  0
  3  2  1  1
  2 35  1  0
  2 36  1  0
  3 27  1  0
  3 30  1  0
  3  4  1  0
  4  5  1  0
  4 37  1  0
  4 38  1  0
  5  6  1  0
  5 39  1  0
  5 40  1  0
  6 25  1  0
  6  7  1  0
  6 41  1  6
  7  8  1  0
  8 14  2  0
  8  9  1  0
  9 10  1  0
  9 11  2  0
 10 42  1  0
 11 12  1  0
 11 43  1  0
 12 13  2  0
 12 44  1  0
 13 24  1  0
 13 14  1  0
 14 15  1  0
 15 25  1  0
 15 16  1  6
 15 27  1  0
 16 17  1  0
 16 45  1  0
 16 46  1  0
 17 18  1  0
 17 47  1  0
 17 48  1  0
 18 19  1  0
 18 23  1  0
 19 20  1  0
 19 49  1  0
 19 50  1  0
 20 22  1  0
 20 21  1  0
 20 51  1  0
 21 22  1  0
 21 52  1  0
 21 53  1  0
 22 54  1  0
 22 55  1  0
 23 24  1  0
 23 25  1  0
 23 56  1  6
 24 57  1  0
 24 58  1  0
 25 26  1  1
 26 59  1  0
 27 28  1  0
 27 60  1  1
 28 29  1  0
 28 61  1  0
 28 62  1  0
 29 30  1  0
 29 63  1  0
 29 64  1  0
 30 31  1  0
 30 65  1  1
 31 66  1  0
M  END
>  <i_m_ct_stereo_status>  (161) 
1

>  <s_m_source_file>  (161) 
/var/tmp/pbs.5076255.sched01/tmp1pt1fpgk/39zsbf0m6x.sdf

>  <i_m_source_file_index>  (161) 
29

>  <i_lp_mmshare_version>  (161) 
48012

>  <i_f3d_flags>  (161) 
0

>  <s_epik_input>  (161) 
W09IXVtDQEBIXTFbQ0gyXVtDSDJdW0NASF0yW0NAXTEoW0NIMl1bQ0gzXSlbQ0gyXVtDSDJdW0NASF0oTzMpW0NAXTQoW09IXSlbQ0BASF0oTihbQ0gyXVtDSDJdNSlbQ0gyXVtDSF02W0NIMl1bQ0gyXTYpW0NIMl1jN1tjSF1bY0hdYyhbT0hdKWMzYzdbQ0BdMjQ1

>  <s_epik_cmdline>  (161) 
J2VwaWtfcHl0aG9uJywgJy1waHQnLCAnMi4wJywgJy1waCcsICc3LjAnLCAnLXRuJywgJzgnLCAnLW1hJywgJzIwMCcsICctaW1hZScsICc8aW5maWxlLm1hZT4nLCAnLW9tYWUnLCAnPG91dGZpbGUubWFlPic=

>  <r_lp_tautomer_probability>  (161) 
1

>  <r_epik_Ionization_Penalty>  (161) 
1.91038

>  <r_epik_Ionization_Penalty_Charging>  (161) 
0

>  <r_epik_Ionization_Penalty_Neutral>  (161) 
1.91038

>  <r_epik_State_Penalty>  (161) 
2.0323

>  <r_epik_Charging_Adjusted_Penalty>  (161) 
2.0323

>  <i_epik_Tot_Q>  (161) 
0

>  <i_epik_Tot_abs_Q>  (161) 
0

>  <s_lp_Force_Field>  (161) 
OPLS3e

>  <r_lp_Energy>  (161) 
177.488

>  <b_lp_Chiralities_Consistent>  (161) 
1

>  <s_lp_Variant>  (161) 
54:0-2

>  <s_i_glide_gridfile>  (161) 
pfpi4k_grid

>  <i_i_glide_lignum>  (161) 
29

>  <i_i_glide_rotatable_bonds>  (161) 
6

>  <r_i_docking_score>  (161) 
-3.06182

>  <r_i_glide_ligand_efficiency>  (161) 
-0.0987684

>  <r_i_glide_ligand_efficiency_sa>  (161) 
-0.310269

>  <r_i_glide_ligand_efficiency_ln>  (161) 
-0.690535

>  <r_i_glide_gscore>  (161) 
-3.06182

>  <r_i_glide_lipo>  (161) 
-0.834829

>  <r_i_glide_hbond>  (161) 
0

>  <r_i_glide_metal>  (161) 
-0

>  <r_i_glide_rewards>  (161) 
-0.507543

>  <r_i_glide_evdw>  (161) 
-25.938

>  <r_i_glide_ecoul>  (161) 
-4.27758

>  <r_i_glide_erotb>  (161) 
0.219085

>  <r_i_glide_esite>  (161) 
0

>  <r_i_glide_emodel>  (161) 
-35.0071

>  <r_i_glide_energy>  (161) 
-30.2155

>  <r_i_glide_einternal>  (161) 
1.72577

>  <r_i_glide_intrahb_reward>  (161) 
-0

>  <i_i_glide_confnum>  (161) 
1

>  <i_i_glide_posenum>  (161) 
26

>  <r_i_glide_eff_state_penalty>  (161) 
0

>  <ligand_id>  (161) 
54

>  <original_smiles>  (161) 
CCC12CCC3Oc4c(O)ccc5c4C4(CCN(CC6CC6)C(C5)C34O)C1CCC2O

>  <smiles>  (161) 
[H]Oc1c([H])c([H])c2c3c1OC1([H])C([H])([H])C([H])([H])C4(C([H])([H])C([H])([H])[H])C([H])(O[H])C([H])([H])C([H])([H])C4([H])C34C([H])([H])C([H])([H])N(C([H])([H])C3([H])C([H])([H])C3([H])[H])C([H])(C2([H])[H])C14O[H]

$$$$
54:1:1
     RDKit          3D

 66 72  0  0  1  0  0  0  0  0999 V2000
    2.1789  -10.0686    4.8390 C   0  0  0  0  0  0  0  0  0  0  0  0
    2.7768   -8.6524    4.7494 C   0  0  0  0  0  0  0  0  0  0  0  0
    1.9457   -7.5675    3.9742 C   0  0  2  0  0  0  0  0  0  0  0  0
    1.2484   -8.0567    2.6475 C   0  0  0  0  0  0  0  0  0  0  0  0
    2.0593   -8.4335    1.3845 C   0  0  0  0  0  0  0  0  0  0  0  0
    3.3876   -7.6952    1.1641 C   0  0  2  0  0  0  0  0  0  0  0  0
    4.1207   -8.4288    2.1449 O   0  0  0  0  0  0  0  0  0  0  0  0
    5.1891   -7.7624    2.6768 C   0  0  0  0  0  0  0  0  0  0  0  0
    6.4259   -8.3969    2.8581 C   0  0  0  0  0  0  0  0  0  0  0  0
    6.4970   -9.7421    3.0344 O   0  0  0  0  0  0  0  0  0  0  0  0
    7.6224   -7.6491    2.7080 C   0  0  0  0  0  0  0  0  0  0  0  0
    7.5177   -6.3606    2.1533 C   0  0  0  0  0  0  0  0  0  0  0  0
    6.2435   -5.7489    2.0231 C   0  0  0  0  0  0  0  0  0  0  0  0
    5.1479   -6.3764    2.6604 C   0  0  0  0  0  0  0  0  0  0  0  0
    3.7339   -5.6992    2.6797 C   0  0  1  0  0  0  0  0  0  0  0  0
    3.9407   -4.1225    2.8070 C   0  0  0  0  0  0  0  0  0  0  0  0
    3.3364   -3.3280    1.6264 C   0  0  0  0  0  0  0  0  0  0  0  0
    3.8476   -3.7745    0.3329 N   0  0  0  0  0  0  0  0  0  0  0  0
    3.0539   -3.3136   -0.8018 C   0  0  0  0  0  0  0  0  0  0  0  0
    3.7657   -3.3980   -2.1424 C   0  0  0  0  0  0  0  0  0  0  0  0
    4.0982   -2.1416   -2.9136 C   0  0  0  0  0  0  0  0  0  0  0  0
    3.0185   -3.0629   -3.4145 C   0  0  0  0  0  0  0  0  0  0  0  0
    4.2282   -5.2027    0.3425 C   0  0  1  0  0  0  0  0  0  0  0  0
    5.7610   -5.1548    0.6954 C   0  0  0  0  0  0  0  0  0  0  0  0
    3.2997   -6.1059    1.2658 C   0  0  1  0  0  0  0  0  0  0  0  0
    1.9759   -5.7593    0.8833 O   0  0  0  0  0  0  0  0  0  0  0  0
    2.6779   -6.1551    3.8293 C   0  0  1  0  0  0  0  0  0  0  0  0
    1.5190   -5.1175    4.0390 C   0  0  0  0  0  0  0  0  0  0  0  0
    0.2974   -5.8226    4.6105 C   0  0  0  0  0  0  0  0  0  0  0  0
    0.8171   -7.1908    4.9892 C   0  0  1  0  0  0  0  0  0  0  0  0
   -0.2813   -8.0742    5.0464 O   0  0  0  0  0  0  0  0  0  0  0  0
    2.8302  -10.7089    5.4347 H   0  0  0  0  0  0  0  0  0  0  0  0
    2.0856  -10.5280    3.8543 H   0  0  0  0  0  0  0  0  0  0  0  0
    1.2082  -10.1065    5.3269 H   0  0  0  0  0  0  0  0  0  0  0  0
    2.9590   -8.2958    5.7635 H   0  0  0  0  0  0  0  0  0  0  0  0
    3.7804   -8.7920    4.3892 H   0  0  0  0  0  0  0  0  0  0  0  0
    0.6120   -8.9185    2.8559 H   0  0  0  0  0  0  0  0  0  0  0  0
    0.5371   -7.2925    2.3366 H   0  0  0  0  0  0  0  0  0  0  0  0
    2.2414   -9.5123    1.3834 H   0  0  0  0  0  0  0  0  0  0  0  0
    1.4081   -8.2576    0.5308 H   0  0  0  0  0  0  0  0  0  0  0  0
    3.8189   -7.9766    0.2054 H   0  0  0  0  0  0  0  0  0  0  0  0
    5.6384  -10.1462    3.0036 H   0  0  0  0  0  0  0  0  0  0  0  0
    8.5790   -8.1482    2.7578 H   0  0  0  0  0  0  0  0  0  0  0  0
    8.3799   -5.9391    1.6589 H   0  0  0  0  0  0  0  0  0  0  0  0
    3.5740   -3.7199    3.7461 H   0  0  0  0  0  0  0  0  0  0  0  0
    4.9890   -3.8419    2.8824 H   0  0  0  0  0  0  0  0  0  0  0  0
    2.2501   -3.3818    1.6512 H   0  0  0  0  0  0  0  0  0  0  0  0
    3.5715   -2.2712    1.7554 H   0  0  0  0  0  0  0  0  0  0  0  0
    2.1204   -3.8682   -0.8632 H   0  0  0  0  0  0  0  0  0  0  0  0
    2.7781   -2.2703   -0.6481 H   0  0  0  0  0  0  0  0  0  0  0  0
    4.4840   -4.2070   -2.2484 H   0  0  0  0  0  0  0  0  0  0  0  0
    3.8016   -1.1957   -2.4664 H   0  0  0  0  0  0  0  0  0  0  0  0
    5.0457   -2.1346   -3.4467 H   0  0  0  0  0  0  0  0  0  0  0  0
    3.2381   -3.6759   -4.2868 H   0  0  0  0  0  0  0  0  0  0  0  0
    1.9815   -2.7528   -3.3087 H   0  0  0  0  0  0  0  0  0  0  0  0
    4.1737   -5.6009   -0.6688 H   0  0  0  0  0  0  0  0  0  0  0  0
    6.1467   -4.1290    0.6830 H   0  0  0  0  0  0  0  0  0  0  0  0
    6.3065   -5.6576   -0.1033 H   0  0  0  0  0  0  0  0  0  0  0  0
    1.9227   -5.8737   -0.0575 H   0  0  0  0  0  0  0  0  0  0  0  0
    3.2603   -6.0691    4.7465 H   0  0  0  0  0  0  0  0  0  0  0  0
    1.8111   -4.3370    4.7406 H   0  0  0  0  0  0  0  0  0  0  0  0
    1.2212   -4.6261    3.1148 H   0  0  0  0  0  0  0  0  0  0  0  0
   -0.1195   -5.3033    5.4744 H   0  0  0  0  0  0  0  0  0  0  0  0
   -0.4928   -5.8887    3.8657 H   0  0  0  0  0  0  0  0  0  0  0  0
    1.2214   -7.1030    5.9966 H   0  0  0  0  0  0  0  0  0  0  0  0
    0.0340   -8.9354    5.2933 H   0  0  0  0  0  0  0  0  0  0  0  0
  1  2  1  0
  1 32  1  0
  1 33  1  0
  1 34  1  0
  3  2  1  1
  2 35  1  0
  2 36  1  0
  3 27  1  0
  3 30  1  0
  3  4  1  0
  4  5  1  0
  4 37  1  0
  4 38  1  0
  5  6  1  0
  5 39  1  0
  5 40  1  0
  6 25  1  0
  6  7  1  0
  6 41  1  6
  7  8  1  0
  8 14  2  0
  8  9  1  0
  9 10  1  0
  9 11  2  0
 10 42  1  0
 11 12  1  0
 11 43  1  0
 12 13  2  0
 12 44  1  0
 13 24  1  0
 13 14  1  0
 14 15  1  0
 15 25  1  0
 15 16  1  6
 15 27  1  0
 16 17  1  0
 16 45  1  0
 16 46  1  0
 17 18  1  0
 17 47  1  0
 17 48  1  0
 18 19  1  0
 18 23  1  0
 19 20  1  0
 19 49  1  0
 19 50  1  0
 20 22  1  0
 20 21  1  0
 20 51  1  0
 21 22  1  0
 21 52  1  0
 21 53  1  0
 22 54  1  0
 22 55  1  0
 23 24  1  0
 23 25  1  0
 23 56  1  6
 24 57  1  0
 24 58  1  0
 25 26  1  1
 26 59  1  0
 27 28  1  0
 27 60  1  1
 28 29  1  0
 28 61  1  0
 28 62  1  0
 29 30  1  0
 29 63  1  0
 29 64  1  0
 30 31  1  0
 30 65  1  1
 31 66  1  0
M  END
>  <i_m_ct_stereo_status>  (162) 
1

>  <s_m_source_file>  (162) 
/var/tmp/pbs.5076255.sched01/tmp1pt1fpgk/39zsbf0m6x.sdf

>  <i_m_source_file_index>  (162) 
29

>  <i_lp_mmshare_version>  (162) 
48012

>  <i_f3d_flags>  (162) 
0

>  <s_epik_input>  (162) 
W09IXVtDQEBIXTFbQ0gyXVtDSDJdW0NASF0yW0NAXTEoW0NIMl1bQ0gzXSlbQ0gyXVtDSDJdW0NASF0oTzMpW0NAXTQoW09IXSlbQ0BASF0oTihbQ0gyXVtDSDJdNSlbQ0gyXVtDSF02W0NIMl1bQ0gyXTYpW0NIMl1jN1tjSF1bY0hdYyhbT0hdKWMzYzdbQ0BdMjQ1

>  <s_epik_cmdline>  (162) 
J2VwaWtfcHl0aG9uJywgJy1waHQnLCAnMi4wJywgJy1waCcsICc3LjAnLCAnLXRuJywgJzgnLCAnLW1hJywgJzIwMCcsICctaW1hZScsICc8aW5maWxlLm1hZT4nLCAnLW9tYWUnLCAnPG91dGZpbGUubWFlPic=

>  <r_lp_tautomer_probability>  (162) 
1

>  <r_epik_Ionization_Penalty>  (162) 
1.91038

>  <r_epik_Ionization_Penalty_Charging>  (162) 
0

>  <r_epik_Ionization_Penalty_Neutral>  (162) 
1.91038

>  <r_epik_State_Penalty>  (162) 
2.0323

>  <r_epik_Charging_Adjusted_Penalty>  (162) 
2.0323

>  <i_epik_Tot_Q>  (162) 
0

>  <i_epik_Tot_abs_Q>  (162) 
0

>  <s_lp_Force_Field>  (162) 
OPLS3e

>  <r_lp_Energy>  (162) 
177.488

>  <b_lp_Chiralities_Consistent>  (162) 
1

>  <s_lp_Variant>  (162) 
54:0-2

>  <s_i_glide_gridfile>  (162) 
pfpi4k_grid

>  <i_i_glide_lignum>  (162) 
29

>  <i_i_glide_rotatable_bonds>  (162) 
6

>  <r_i_docking_score>  (162) 
-2.65029

>  <r_i_glide_ligand_efficiency>  (162) 
-0.0854933

>  <r_i_glide_ligand_efficiency_sa>  (162) 
-0.268567

>  <r_i_glide_ligand_efficiency_ln>  (162) 
-0.597722

>  <r_i_glide_gscore>  (162) 
-2.65029

>  <r_i_glide_lipo>  (162) 
-0.621572

>  <r_i_glide_hbond>  (162) 
-0.031076

>  <r_i_glide_metal>  (162) 
-0

>  <r_i_glide_rewards>  (162) 
-0.507543

>  <r_i_glide_evdw>  (162) 
-24.4471

>  <r_i_glide_ecoul>  (162) 
-3.24554

>  <r_i_glide_erotb>  (162) 
0.219085

>  <r_i_glide_esite>  (162) 
0

>  <r_i_glide_emodel>  (162) 
-31.4788

>  <r_i_glide_energy>  (162) 
-27.6927

>  <r_i_glide_einternal>  (162) 
2.0025

>  <r_i_glide_intrahb_reward>  (162) 
-0

>  <i_i_glide_confnum>  (162) 
1

>  <i_i_glide_posenum>  (162) 
3

>  <r_i_glide_eff_state_penalty>  (162) 
0

>  <ligand_id>  (162) 
54

>  <original_smiles>  (162) 
CCC12CCC3Oc4c(O)ccc5c4C4(CCN(CC6CC6)C(C5)C34O)C1CCC2O

>  <smiles>  (162) 
[H]Oc1c([H])c([H])c2c3c1OC1([H])C([H])([H])C([H])([H])C4(C([H])([H])C([H])([H])[H])C([H])(O[H])C([H])([H])C([H])([H])C4([H])C34C([H])([H])C([H])([H])N(C([H])([H])C3([H])C([H])([H])C3([H])[H])C([H])(C2([H])[H])C14O[H]

$$$$
54:1:2
     RDKit          3D

 66 72  0  0  1  0  0  0  0  0999 V2000
    2.4771  -11.1770    3.7970 C   0  0  0  0  0  0  0  0  0  0  0  0
    2.3820   -9.6850    4.1614 C   0  0  0  0  0  0  0  0  0  0  0  0
    1.8266   -8.7118    3.0592 C   0  0  2  0  0  0  0  0  0  0  0  0
    2.3133   -8.9863    1.5875 C   0  0  0  0  0  0  0  0  0  0  0  0
    3.7876   -8.7658    1.1511 C   0  0  0  0  0  0  0  0  0  0  0  0
    4.5574   -7.6389    1.8496 C   0  0  2  0  0  0  0  0  0  0  0  0
    4.7916   -8.3779    3.0508 O   0  0  0  0  0  0  0  0  0  0  0  0
    4.9561   -7.6103    4.1788 C   0  0  0  0  0  0  0  0  0  0  0  0
    5.9598   -7.8942    5.1100 C   0  0  0  0  0  0  0  0  0  0  0  0
    6.4293   -9.1593    5.2673 O   0  0  0  0  0  0  0  0  0  0  0  0
    6.6017   -6.8264    5.7952 C   0  0  0  0  0  0  0  0  0  0  0  0
    6.3512   -5.5171    5.3427 C   0  0  0  0  0  0  0  0  0  0  0  0
    5.2827   -5.2789    4.4300 C   0  0  0  0  0  0  0  0  0  0  0  0
    4.3952   -6.3478    4.1771 C   0  0  0  0  0  0  0  0  0  0  0  0
    3.1179   -6.1308    3.2941 C   0  0  1  0  0  0  0  0  0  0  0  0
    2.5694   -4.6583    3.5726 C   0  0  0  0  0  0  0  0  0  0  0  0
    2.5297   -3.7729    2.3099 C   0  0  0  0  0  0  0  0  0  0  0  0
    3.8209   -3.6704    1.6475 N   0  0  0  0  0  0  0  0  0  0  0  0
    3.7355   -3.1704    0.2807 C   0  0  0  0  0  0  0  0  0  0  0  0
    5.0641   -2.7136   -0.2824 C   0  0  0  0  0  0  0  0  0  0  0  0
    5.1405   -2.1362   -1.6804 C   0  0  0  0  0  0  0  0  0  0  0  0
    5.7460   -3.4845   -1.3920 C   0  0  0  0  0  0  0  0  0  0  0  0
    4.6399   -4.8828    1.8492 C   0  0  1  0  0  0  0  0  0  0  0  0
    5.4977   -4.5159    3.1180 C   0  0  0  0  0  0  0  0  0  0  0  0
    3.8051   -6.2351    1.9262 C   0  0  1  0  0  0  0  0  0  0  0  0
    2.9343   -6.1878    0.8128 O   0  0  0  0  0  0  0  0  0  0  0  0
    1.8728   -7.1675    3.4655 C   0  0  1  0  0  0  0  0  0  0  0  0
    0.5196   -6.5998    2.9039 C   0  0  0  0  0  0  0  0  0  0  0  0
   -0.4009   -7.7493    2.5142 C   0  0  0  0  0  0  0  0  0  0  0  0
    0.2825   -8.9614    3.1092 C   0  0  1  0  0  0  0  0  0  0  0  0
   -0.1874  -10.1320    2.4817 O   0  0  0  0  0  0  0  0  0  0  0  0
    2.8293  -11.7461    4.6579 H   0  0  0  0  0  0  0  0  0  0  0  0
    3.1758  -11.3509    2.9771 H   0  0  0  0  0  0  0  0  0  0  0  0
    1.5197  -11.6169    3.5260 H   0  0  0  0  0  0  0  0  0  0  0  0
    1.7605   -9.5952    5.0534 H   0  0  0  0  0  0  0  0  0  0  0  0
    3.3530   -9.4295    4.5477 H   0  0  0  0  0  0  0  0  0  0  0  0
    2.0825  -10.0151    1.3168 H   0  0  0  0  0  0  0  0  0  0  0  0
    1.6928   -8.4007    0.9108 H   0  0  0  0  0  0  0  0  0  0  0  0
    4.3275   -9.7095    1.2691 H   0  0  0  0  0  0  0  0  0  0  0  0
    3.8257   -8.5855    0.0823 H   0  0  0  0  0  0  0  0  0  0  0  0
    5.5269   -7.5166    1.3673 H   0  0  0  0  0  0  0  0  0  0  0  0
    5.9480   -9.7770    4.7321 H   0  0  0  0  0  0  0  0  0  0  0  0
    7.4383   -7.0367    6.4398 H   0  0  0  0  0  0  0  0  0  0  0  0
    7.0813   -4.7490    5.5360 H   0  0  0  0  0  0  0  0  0  0  0  0
    1.5941   -4.6531    4.0485 H   0  0  0  0  0  0  0  0  0  0  0  0
    3.1488   -4.1257    4.3256 H   0  0  0  0  0  0  0  0  0  0  0  0
    1.7919   -4.1507    1.6109 H   0  0  0  0  0  0  0  0  0  0  0  0
    2.1910   -2.7782    2.5862 H   0  0  0  0  0  0  0  0  0  0  0  0
    3.3040   -3.9192   -0.3820 H   0  0  0  0  0  0  0  0  0  0  0  0
    3.0734   -2.3042    0.2515 H   0  0  0  0  0  0  0  0  0  0  0  0
    5.7108   -2.2272    0.4453 H   0  0  0  0  0  0  0  0  0  0  0  0
    4.2139   -2.0987   -2.2476 H   0  0  0  0  0  0  0  0  0  0  0  0
    5.8196   -1.3031   -1.8426 H   0  0  0  0  0  0  0  0  0  0  0  0
    6.8304   -3.5555   -1.3504 H   0  0  0  0  0  0  0  0  0  0  0  0
    5.2303   -4.3693   -1.7586 H   0  0  0  0  0  0  0  0  0  0  0  0
    5.3571   -4.9554    1.0337 H   0  0  0  0  0  0  0  0  0  0  0  0
    5.3782   -3.4602    3.3849 H   0  0  0  0  0  0  0  0  0  0  0  0
    6.5467   -4.6351    2.8443 H   0  0  0  0  0  0  0  0  0  0  0  0
    3.4546   -6.1864    0.0200 H   0  0  0  0  0  0  0  0  0  0  0  0
    1.7089   -7.1796    4.5421 H   0  0  0  0  0  0  0  0  0  0  0  0
    0.0100   -5.9944    3.6541 H   0  0  0  0  0  0  0  0  0  0  0  0
    0.6694   -5.9778    2.0244 H   0  0  0  0  0  0  0  0  0  0  0  0
   -1.4080   -7.6323    2.9179 H   0  0  0  0  0  0  0  0  0  0  0  0
   -0.4926   -7.8186    1.4291 H   0  0  0  0  0  0  0  0  0  0  0  0
   -0.0557   -9.0307    4.1454 H   0  0  0  0  0  0  0  0  0  0  0  0
   -0.0065  -10.1016    1.5525 H   0  0  0  0  0  0  0  0  0  0  0  0
  1  2  1  0
  1 32  1  0
  1 33  1  0
  1 34  1  0
  3  2  1  1
  2 35  1  0
  2 36  1  0
  3 27  1  0
  3 30  1  0
  3  4  1  0
  4  5  1  0
  4 37  1  0
  4 38  1  0
  5  6  1  0
  5 39  1  0
  5 40  1  0
  6 25  1  0
  6  7  1  0
  6 41  1  6
  7  8  1  0
  8 14  2  0
  8  9  1  0
  9 10  1  0
  9 11  2  0
 10 42  1  0
 11 12  1  0
 11 43  1  0
 12 13  2  0
 12 44  1  0
 13 24  1  0
 13 14  1  0
 14 15  1  0
 15 25  1  0
 15 16  1  1
 15 27  1  0
 16 17  1  0
 16 45  1  0
 16 46  1  0
 17 18  1  0
 17 47  1  0
 17 48  1  0
 18 19  1  0
 18 23  1  0
 19 20  1  0
 19 49  1  0
 19 50  1  0
 20 22  1  0
 20 21  1  0
 20 51  1  0
 21 22  1  0
 21 52  1  0
 21 53  1  0
 22 54  1  0
 22 55  1  0
 23 24  1  0
 23 25  1  0
 23 56  1  6
 24 57  1  0
 24 58  1  0
 25 26  1  6
 26 59  1  0
 27 28  1  0
 27 60  1  1
 28 29  1  0
 28 61  1  0
 28 62  1  0
 29 30  1  0
 29 63  1  0
 29 64  1  0
 30 31  1  0
 30 65  1  1
 31 66  1  0
M  END
>  <i_m_ct_stereo_status>  (163) 
1

>  <s_m_source_file>  (163) 
/var/tmp/pbs.5076255.sched01/tmp1pt1fpgk/39zsbf0m6x.sdf

>  <i_m_source_file_index>  (163) 
29

>  <i_lp_mmshare_version>  (163) 
48012

>  <i_f3d_flags>  (163) 
0

>  <s_epik_input>  (163) 
W09IXVtDQEBIXTFbQ0gyXVtDSDJdW0NASF0yW0NAXTEoW0NIMl1bQ0gzXSlbQ0gyXVtDSDJdW0NASF0oTzMpW0NAXTQoW09IXSlbQ0BASF0oTihbQ0gyXVtDSDJdNSlbQ0gyXVtDSF02W0NIMl1bQ0gyXTYpW0NIMl1jN1tjSF1bY0hdYyhbT0hdKWMzYzdbQ0BdMjQ1

>  <s_epik_cmdline>  (163) 
J2VwaWtfcHl0aG9uJywgJy1waHQnLCAnMi4wJywgJy1waCcsICc3LjAnLCAnLXRuJywgJzgnLCAnLW1hJywgJzIwMCcsICctaW1hZScsICc8aW5maWxlLm1hZT4nLCAnLW9tYWUnLCAnPG91dGZpbGUubWFlPic=

>  <r_lp_tautomer_probability>  (163) 
1

>  <r_epik_Ionization_Penalty>  (163) 
1.91038

>  <r_epik_Ionization_Penalty_Charging>  (163) 
0

>  <r_epik_Ionization_Penalty_Neutral>  (163) 
1.91038

>  <r_epik_State_Penalty>  (163) 
2.0323

>  <r_epik_Charging_Adjusted_Penalty>  (163) 
2.0323

>  <i_epik_Tot_Q>  (163) 
0

>  <i_epik_Tot_abs_Q>  (163) 
0

>  <s_lp_Force_Field>  (163) 
OPLS3e

>  <r_lp_Energy>  (163) 
177.488

>  <b_lp_Chiralities_Consistent>  (163) 
1

>  <s_lp_Variant>  (163) 
54:0-2

>  <s_i_glide_gridfile>  (163) 
pfpi4k_grid

>  <i_i_glide_lignum>  (163) 
29

>  <i_i_glide_rotatable_bonds>  (163) 
6

>  <r_i_docking_score>  (163) 
-2.57987

>  <r_i_glide_ligand_efficiency>  (163) 
-0.0832215

>  <r_i_glide_ligand_efficiency_sa>  (163) 
-0.26143

>  <r_i_glide_ligand_efficiency_ln>  (163) 
-0.581839

>  <r_i_glide_gscore>  (163) 
-2.57987

>  <r_i_glide_lipo>  (163) 
-0.223188

>  <r_i_glide_hbond>  (163) 
-0.32

>  <r_i_glide_metal>  (163) 
-0

>  <r_i_glide_rewards>  (163) 
-0.507543

>  <r_i_glide_evdw>  (163) 
-22.0331

>  <r_i_glide_ecoul>  (163) 
-4.31042

>  <r_i_glide_erotb>  (163) 
0.219085

>  <r_i_glide_esite>  (163) 
0

>  <r_i_glide_emodel>  (163) 
-30.4649

>  <r_i_glide_energy>  (163) 
-26.3436

>  <r_i_glide_einternal>  (163) 
1.15009

>  <r_i_glide_intrahb_reward>  (163) 
-0

>  <i_i_glide_confnum>  (163) 
1

>  <i_i_glide_posenum>  (163) 
11

>  <r_i_glide_eff_state_penalty>  (163) 
0

>  <ligand_id>  (163) 
54

>  <original_smiles>  (163) 
CCC12CCC3Oc4c(O)ccc5c4C4(CCN(CC6CC6)C(C5)C34O)C1CCC2O

>  <smiles>  (163) 
[H]Oc1c([H])c([H])c2c3c1OC1([H])C([H])([H])C([H])([H])C4(C([H])([H])C([H])([H])[H])C([H])(O[H])C([H])([H])C([H])([H])C4([H])C34C([H])([H])C([H])([H])N(C([H])([H])C3([H])C([H])([H])C3([H])[H])C([H])(C2([H])[H])C14O[H]

$$$$
55:0:0
     RDKit          3D

 22 23  0  0  1  0  0  0  0  0999 V2000
    0.8503  -10.4504    4.3519 C   0  0  0  0  0  0  0  0  0  0  0  0
    1.3323   -9.3830    5.0227 C   0  0  0  0  0  0  0  0  0  0  0  0
    0.5880   -8.1043    5.0593 C   0  0  0  0  0  0  0  0  0  0  0  0
   -0.6404   -7.8611    4.3582 C   0  0  0  0  0  0  0  0  0  0  0  0
   -1.1418   -6.6575    4.4884 N   0  0  0  0  0  0  0  0  0  0  0  0
   -0.1680   -5.7579    5.5325 S   0  0  0  0  0  0  0  0  0  0  0  0
    1.0019   -7.0127    5.7767 C   0  0  0  0  0  0  0  0  0  0  0  0
    2.6613   -9.4983    5.7687 C   0  0  0  0  0  0  0  0  0  0  0  0
    3.4807  -10.7127    5.3148 C   0  0  0  0  0  0  0  0  0  0  0  0
    2.6219  -11.9032    5.2794 N   0  0  0  0  0  0  0  0  0  0  0  0
    1.5324  -11.7995    4.2910 C   0  0  0  0  0  0  0  0  0  0  0  0
   -0.0788  -10.4079    3.8056 H   0  0  0  0  0  0  0  0  0  0  0  0
   -1.1834   -8.5554    3.7308 H   0  0  0  0  0  0  0  0  0  0  0  0
    1.8724   -6.8594    6.4041 H   0  0  0  0  0  0  0  0  0  0  0  0
    3.2660   -8.6055    5.6001 H   0  0  0  0  0  0  0  0  0  0  0  0
    2.4460   -9.5590    6.8382 H   0  0  0  0  0  0  0  0  0  0  0  0
    3.8904  -10.5439    4.3173 H   0  0  0  0  0  0  0  0  0  0  0  0
    4.3246  -10.8825    5.9805 H   0  0  0  0  0  0  0  0  0  0  0  0
    3.1640  -12.7295    5.0838 H   0  0  0  0  0  0  0  0  0  0  0  0
    0.8011  -12.5836    4.4767 H   0  0  0  0  0  0  0  0  0  0  0  0
    1.9207  -11.9538    3.2852 H   0  0  0  0  0  0  0  0  0  0  0  0
    2.2054  -12.0424    6.2054 H   0  0  0  0  0  0  0  0  0  0  0  0
  1 11  1  0
  1  2  2  0
  1 12  1  0
  2  3  1  0
  2  8  1  0
  3  7  2  0
  3  4  1  0
  4  5  2  0
  4 13  1  0
  5  6  1  0
  6  7  1  0
  7 14  1  0
  8  9  1  0
  8 15  1  0
  8 16  1  0
  9 10  1  0
  9 17  1  0
  9 18  1  0
 10 11  1  0
 10 19  1  0
 10 22  1  0
 11 20  1  0
 11 21  1  0
M  CHG  1  10   1
M  END
>  <i_m_ct_stereo_status>  (164) 
1

>  <s_m_source_file>  (164) 
/var/tmp/pbs.5076255.sched01/tmp1pt1fpgk/39zsbf0m6x.sdf

>  <i_m_source_file_index>  (164) 
30

>  <i_lp_mmshare_version>  (164) 
48012

>  <i_f3d_flags>  (164) 
0

>  <s_epik_input>  (164) 
W0NIMl0xW0NIMl1bTkhdW0NIMl1bQ0hdPUMxYzJbY0hdbnNbY0hdMg==

>  <s_epik_cmdline>  (164) 
J2VwaWtfcHl0aG9uJywgJy1waHQnLCAnMi4wJywgJy1waCcsICc3LjAnLCAnLXRuJywgJzgnLCAnLW1hJywgJzIwMCcsICctaW1hZScsICc8aW5maWxlLm1hZT4nLCAnLW9tYWUnLCAnPG91dGZpbGUubWFlPic=

>  <r_epik_Ionization_Penalty>  (164) 
0.00769695

>  <r_epik_Ionization_Penalty_Charging>  (164) 
0.00769695

>  <r_epik_Ionization_Penalty_Neutral>  (164) 
4.22496e-10

>  <r_epik_State_Penalty>  (164) 
0.00576342

>  <r_epik_Charging_Adjusted_Penalty>  (164) 
0.0134604

>  <i_epik_Tot_Q>  (164) 
1

>  <i_epik_Tot_abs_Q>  (164) 
1

>  <s_lp_Force_Field>  (164) 
OPLS3e

>  <r_lp_Energy>  (164) 
13.4221

>  <b_lp_Chiralities_Consistent>  (164) 
1

>  <s_lp_Variant>  (164) 
55:0-1

>  <s_i_glide_gridfile>  (164) 
pfpi4k_grid

>  <i_i_glide_lignum>  (164) 
30

>  <i_i_glide_rotatable_bonds>  (164) 
1

>  <r_i_docking_score>  (164) 
-4.34101

>  <r_i_glide_ligand_efficiency>  (164) 
-0.394637

>  <r_i_glide_ligand_efficiency_sa>  (164) 
-0.877665

>  <r_i_glide_ligand_efficiency_ln>  (164) 
-1.27756

>  <r_i_glide_gscore>  (164) 
-4.34101

>  <r_i_glide_lipo>  (164) 
0

>  <r_i_glide_hbond>  (164) 
-0.209342

>  <r_i_glide_metal>  (164) 
-0

>  <r_i_glide_rewards>  (164) 
-2.78

>  <r_i_glide_evdw>  (164) 
-11.3356

>  <r_i_glide_ecoul>  (164) 
-7.13857

>  <r_i_glide_erotb>  (164) 
0.383681

>  <r_i_glide_esite>  (164) 
-0.0977788

>  <r_i_glide_emodel>  (164) 
-28.1468

>  <r_i_glide_energy>  (164) 
-18.4742

>  <r_i_glide_einternal>  (164) 
0.132841

>  <r_i_glide_intrahb_reward>  (164) 
-0

>  <i_i_glide_confnum>  (164) 
1

>  <i_i_glide_posenum>  (164) 
27

>  <r_i_glide_eff_state_penalty>  (164) 
0

>  <ligand_id>  (164) 
55

>  <original_smiles>  (164) 
C1=C(c2cnsc2)CCNC1

>  <smiles>  (164) 
[H]C1=C(c2c([H])nsc2[H])C([H])([H])C([H])([H])[N+]([H])([H])C1([H])[H]

$$$$
55:0:1
     RDKit          3D

 22 23  0  0  1  0  0  0  0  0999 V2000
   -1.2236    1.7909    3.5503 C   0  0  0  0  0  0  0  0  0  0  0  0
   -0.3965    2.5455    4.3021 C   0  0  0  0  0  0  0  0  0  0  0  0
   -0.8389    3.1170    5.5941 C   0  0  0  0  0  0  0  0  0  0  0  0
   -0.0698    4.0847    6.3138 C   0  0  0  0  0  0  0  0  0  0  0  0
   -0.5972    4.5190    7.4375 N   0  0  0  0  0  0  0  0  0  0  0  0
   -2.0645    3.7289    7.6912 S   0  0  0  0  0  0  0  0  0  0  0  0
   -2.0176    2.8132    6.2258 C   0  0  0  0  0  0  0  0  0  0  0  0
    1.0266    2.8078    3.8101 C   0  0  0  0  0  0  0  0  0  0  0  0
    1.4664    1.8390    2.6995 C   0  0  0  0  0  0  0  0  0  0  0  0
    0.4085    1.7451    1.6748 N   0  0  0  0  0  0  0  0  0  0  0  0
   -0.8460    1.1899    2.2095 C   0  0  0  0  0  0  0  0  0  0  0  0
   -2.2246    1.5532    3.8758 H   0  0  0  0  0  0  0  0  0  0  0  0
    0.8907    4.4921    6.0167 H   0  0  0  0  0  0  0  0  0  0  0  0
   -2.8209    2.1463    5.9593 H   0  0  0  0  0  0  0  0  0  0  0  0
    1.0832    3.8391    3.4592 H   0  0  0  0  0  0  0  0  0  0  0  0
    1.7285    2.7058    4.6391 H   0  0  0  0  0  0  0  0  0  0  0  0
    2.4050    2.1654    2.2498 H   0  0  0  0  0  0  0  0  0  0  0  0
    1.6448    0.8480    3.1195 H   0  0  0  0  0  0  0  0  0  0  0  0
    0.2264    2.6942    1.3186 H   0  0  0  0  0  0  0  0  0  0  0  0
   -0.7178    0.1205    2.3448 H   0  0  0  0  0  0  0  0  0  0  0  0
   -1.6532    1.3369    1.4914 H   0  0  0  0  0  0  0  0  0  0  0  0
    0.7034    1.1794    0.8953 H   0  0  0  0  0  0  0  0  0  0  0  0
  1 11  1  0
  1  2  2  0
  1 12  1  0
  2  3  1  0
  2  8  1  0
  3  7  2  0
  3  4  1  0
  4  5  2  0
  4 13  1  0
  5  6  1  0
  6  7  1  0
  7 14  1  0
  8  9  1  0
  8 15  1  0
  8 16  1  0
  9 10  1  0
  9 17  1  0
  9 18  1  0
 10 11  1  0
 10 19  1  0
 10 22  1  0
 11 20  1  0
 11 21  1  0
M  CHG  1  10   1
M  END
>  <i_m_ct_stereo_status>  (165) 
1

>  <s_m_source_file>  (165) 
/var/tmp/pbs.5076255.sched01/tmp1pt1fpgk/39zsbf0m6x.sdf

>  <i_m_source_file_index>  (165) 
30

>  <i_lp_mmshare_version>  (165) 
48012

>  <i_f3d_flags>  (165) 
0

>  <s_epik_input>  (165) 
W0NIMl0xW0NIMl1bTkhdW0NIMl1bQ0hdPUMxYzJbY0hdbnNbY0hdMg==

>  <s_epik_cmdline>  (165) 
J2VwaWtfcHl0aG9uJywgJy1waHQnLCAnMi4wJywgJy1waCcsICc3LjAnLCAnLXRuJywgJzgnLCAnLW1hJywgJzIwMCcsICctaW1hZScsICc8aW5maWxlLm1hZT4nLCAnLW9tYWUnLCAnPG91dGZpbGUubWFlPic=

>  <r_epik_Ionization_Penalty>  (165) 
0.00769695

>  <r_epik_Ionization_Penalty_Charging>  (165) 
0.00769695

>  <r_epik_Ionization_Penalty_Neutral>  (165) 
4.22496e-10

>  <r_epik_State_Penalty>  (165) 
0.00576342

>  <r_epik_Charging_Adjusted_Penalty>  (165) 
0.0134604

>  <i_epik_Tot_Q>  (165) 
1

>  <i_epik_Tot_abs_Q>  (165) 
1

>  <s_lp_Force_Field>  (165) 
OPLS3e

>  <r_lp_Energy>  (165) 
13.4221

>  <b_lp_Chiralities_Consistent>  (165) 
1

>  <s_lp_Variant>  (165) 
55:0-1

>  <s_i_glide_gridfile>  (165) 
pfpi4k_grid

>  <i_i_glide_lignum>  (165) 
30

>  <i_i_glide_rotatable_bonds>  (165) 
1

>  <r_i_docking_score>  (165) 
-3.64743

>  <r_i_glide_ligand_efficiency>  (165) 
-0.331584

>  <r_i_glide_ligand_efficiency_sa>  (165) 
-0.737436

>  <r_i_glide_ligand_efficiency_ln>  (165) 
-1.07344

>  <r_i_glide_gscore>  (165) 
-3.64743

>  <r_i_glide_lipo>  (165) 
-0.125192

>  <r_i_glide_hbond>  (165) 
-0.2

>  <r_i_glide_metal>  (165) 
-0

>  <r_i_glide_rewards>  (165) 
-2.25

>  <r_i_glide_evdw>  (165) 
-12.5966

>  <r_i_glide_ecoul>  (165) 
-6.09205

>  <r_i_glide_erotb>  (165) 
0.548116

>  <r_i_glide_esite>  (165) 
-0.0767107

>  <r_i_glide_emodel>  (165) 
-26.8728

>  <r_i_glide_energy>  (165) 
-18.6887

>  <r_i_glide_einternal>  (165) 
0.0117168

>  <r_i_glide_intrahb_reward>  (165) 
-0

>  <i_i_glide_confnum>  (165) 
4

>  <i_i_glide_posenum>  (165) 
21

>  <r_i_glide_eff_state_penalty>  (165) 
0

>  <ligand_id>  (165) 
55

>  <original_smiles>  (165) 
C1=C(c2cnsc2)CCNC1

>  <smiles>  (165) 
[H]C1=C(c2c([H])nsc2[H])C([H])([H])C([H])([H])[N+]([H])([H])C1([H])[H]

$$$$
55:0:2
     RDKit          3D

 22 23  0  0  1  0  0  0  0  0999 V2000
    0.8402    1.9735    4.0932 C   0  0  0  0  0  0  0  0  0  0  0  0
   -0.4540    2.2359    4.3944 C   0  0  0  0  0  0  0  0  0  0  0  0
   -0.8672    2.6501    5.7542 C   0  0  0  0  0  0  0  0  0  0  0  0
   -2.2272    2.9709    6.0859 C   0  0  0  0  0  0  0  0  0  0  0  0
   -2.4486    3.3231    7.3335 N   0  0  0  0  0  0  0  0  0  0  0  0
   -0.9889    3.2926    8.1743 S   0  0  0  0  0  0  0  0  0  0  0  0
   -0.0251    2.7811    6.8263 C   0  0  0  0  0  0  0  0  0  0  0  0
   -1.5071    2.1079    3.3007 C   0  0  0  0  0  0  0  0  0  0  0  0
   -1.0216    1.2798    2.1053 C   0  0  0  0  0  0  0  0  0  0  0  0
    0.3055    1.7390    1.6773 N   0  0  0  0  0  0  0  0  0  0  0  0
    1.3389    1.5498    2.7188 C   0  0  0  0  0  0  0  0  0  0  0  0
    1.6076    2.0363    4.8476 H   0  0  0  0  0  0  0  0  0  0  0  0
   -3.0767    2.9554    5.4148 H   0  0  0  0  0  0  0  0  0  0  0  0
    1.0451    2.6276    6.9234 H   0  0  0  0  0  0  0  0  0  0  0  0
   -2.3907    1.6103    3.6974 H   0  0  0  0  0  0  0  0  0  0  0  0
   -1.8150    3.1042    2.9820 H   0  0  0  0  0  0  0  0  0  0  0  0
   -0.9520    0.2266    2.3813 H   0  0  0  0  0  0  0  0  0  0  0  0
   -1.7301    1.3428    1.2817 H   0  0  0  0  0  0  0  0  0  0  0  0
    0.5594    1.2522    0.8291 H   0  0  0  0  0  0  0  0  0  0  0  0
    2.2298    2.1217    2.4563 H   0  0  0  0  0  0  0  0  0  0  0  0
    1.6241    0.4972    2.7589 H   0  0  0  0  0  0  0  0  0  0  0  0
    0.2249    2.7358    1.4411 H   0  0  0  0  0  0  0  0  0  0  0  0
  1 11  1  0
  1  2  2  0
  1 12  1  0
  2  3  1  0
  2  8  1  0
  3  7  2  0
  3  4  1  0
  4  5  2  0
  4 13  1  0
  5  6  1  0
  6  7  1  0
  7 14  1  0
  8  9  1  0
  8 15  1  0
  8 16  1  0
  9 10  1  0
  9 17  1  0
  9 18  1  0
 10 11  1  0
 10 19  1  0
 10 22  1  0
 11 20  1  0
 11 21  1  0
M  CHG  1  10   1
M  END
>  <i_m_ct_stereo_status>  (166) 
1

>  <s_m_source_file>  (166) 
/var/tmp/pbs.5076255.sched01/tmp1pt1fpgk/39zsbf0m6x.sdf

>  <i_m_source_file_index>  (166) 
30

>  <i_lp_mmshare_version>  (166) 
48012

>  <i_f3d_flags>  (166) 
0

>  <s_epik_input>  (166) 
W0NIMl0xW0NIMl1bTkhdW0NIMl1bQ0hdPUMxYzJbY0hdbnNbY0hdMg==

>  <s_epik_cmdline>  (166) 
J2VwaWtfcHl0aG9uJywgJy1waHQnLCAnMi4wJywgJy1waCcsICc3LjAnLCAnLXRuJywgJzgnLCAnLW1hJywgJzIwMCcsICctaW1hZScsICc8aW5maWxlLm1hZT4nLCAnLW9tYWUnLCAnPG91dGZpbGUubWFlPic=

>  <r_epik_Ionization_Penalty>  (166) 
0.00769695

>  <r_epik_Ionization_Penalty_Charging>  (166) 
0.00769695

>  <r_epik_Ionization_Penalty_Neutral>  (166) 
4.22496e-10

>  <r_epik_State_Penalty>  (166) 
0.00576342

>  <r_epik_Charging_Adjusted_Penalty>  (166) 
0.0134604

>  <i_epik_Tot_Q>  (166) 
1

>  <i_epik_Tot_abs_Q>  (166) 
1

>  <s_lp_Force_Field>  (166) 
OPLS3e

>  <r_lp_Energy>  (166) 
13.4221

>  <b_lp_Chiralities_Consistent>  (166) 
1

>  <s_lp_Variant>  (166) 
55:0-1

>  <s_i_glide_gridfile>  (166) 
pfpi4k_grid

>  <i_i_glide_lignum>  (166) 
30

>  <i_i_glide_rotatable_bonds>  (166) 
1

>  <r_i_docking_score>  (166) 
-3.6257

>  <r_i_glide_ligand_efficiency>  (166) 
-0.329609

>  <r_i_glide_ligand_efficiency_sa>  (166) 
-0.733044

>  <r_i_glide_ligand_efficiency_ln>  (166) 
-1.06704

>  <r_i_glide_gscore>  (166) 
-3.6257

>  <r_i_glide_lipo>  (166) 
-0.0760687

>  <r_i_glide_hbond>  (166) 
-0.2

>  <r_i_glide_metal>  (166) 
-0

>  <r_i_glide_rewards>  (166) 
-2.25

>  <r_i_glide_evdw>  (166) 
-12.3584

>  <r_i_glide_ecoul>  (166) 
-6.34391

>  <r_i_glide_erotb>  (166) 
0.548116

>  <r_i_glide_esite>  (166) 
-0.0782406

>  <r_i_glide_emodel>  (166) 
-26.8046

>  <r_i_glide_energy>  (166) 
-18.7023

>  <r_i_glide_einternal>  (166) 
0.0214412

>  <r_i_glide_intrahb_reward>  (166) 
-0

>  <i_i_glide_confnum>  (166) 
2

>  <i_i_glide_posenum>  (166) 
20

>  <r_i_glide_eff_state_penalty>  (166) 
0

>  <ligand_id>  (166) 
55

>  <original_smiles>  (166) 
C1=C(c2cnsc2)CCNC1

>  <smiles>  (166) 
[H]C1=C(c2c([H])nsc2[H])C([H])([H])C([H])([H])[N+]([H])([H])C1([H])[H]

$$$$
56:0:0
     RDKit          3D

 71 78  0  0  1  0  0  0  0  0999 V2000
    0.0655   -6.8532    2.5800 C   0  0  0  0  0  0  0  0  0  0  0  0
    1.5268   -7.1379    2.9414 C   0  0  0  0  0  0  0  0  0  0  0  0
    2.4520   -7.1976    1.7075 C   0  0  2  0  0  0  0  0  0  0  0  0
    3.7362   -8.0106    1.8840 C   0  0  0  0  0  0  0  0  0  0  0  0
    3.8079   -9.1219    2.4089 O   0  0  0  0  0  0  0  0  0  0  0  0
    4.8845   -7.1732    1.3278 C   0  0  2  0  0  0  0  0  0  0  0  0
    5.4849   -6.3054    2.4662 C   0  0  2  0  0  0  0  0  0  0  0  0
    4.8835   -6.1617    3.8560 C   0  0  0  0  0  0  0  0  0  0  0  0
    4.7083   -5.0515    2.8360 C   0  0  2  0  0  0  0  0  0  0  0  0
    3.4070   -4.8094    2.1361 N   0  0  0  0  0  0  0  0  0  0  0  0
    3.2470   -3.4260    1.6379 C   0  0  1  0  0  0  0  0  0  0  0  0
    3.5854   -2.3309    2.7348 C   0  0  2  0  0  0  0  0  0  0  0  0
    2.9073   -2.4527    4.1043 C   0  0  2  0  0  0  0  0  0  0  0  0
    1.4342   -2.1170    3.7335 C   0  0  1  0  0  0  0  0  0  0  0  0
    0.4709   -1.6774    4.8513 C   0  0  0  0  0  0  0  0  0  0  0  0
    0.4557   -2.6495    6.0118 C   0  0  0  0  0  0  0  0  0  0  0  0
    1.5068   -2.9478    6.9317 C   0  0  0  0  0  0  0  0  0  0  0  0
    1.1677   -3.8451    7.8409 N   0  0  0  0  0  0  0  0  0  0  0  0
   -0.1052   -4.1544    7.5380 N   0  0  0  0  0  0  0  0  0  0  0  0
   -0.8004   -5.1058    8.3669 C   0  0  0  0  0  0  0  0  0  0  0  0
   -0.5645   -3.4494    6.4489 C   0  0  0  0  0  0  0  0  0  0  0  0
    1.7084   -1.0425    2.6837 C   0  0  0  0  0  0  0  0  0  0  0  0
    0.8535   -0.2999    2.2108 O   0  0  0  0  0  0  0  0  0  0  0  0
    3.0425   -0.9764    2.4853 N   0  0  0  0  0  0  0  0  0  0  0  0
    3.7683   -0.0601    3.3878 C   0  0  1  0  0  0  0  0  0  0  0  0
    3.1672    1.3634    3.5654 C   0  0  0  0  0  0  0  0  0  0  0  0
    3.7757   -1.0274    4.9548 S   0  0  0  0  0  0  0  0  0  0  0  0
    2.9438   -0.3554    5.9619 O   0  0  0  0  0  0  0  0  0  0  0  0
    5.1510   -1.4373    5.2599 O   0  0  0  0  0  0  0  0  0  0  0  0
    3.8261   -3.0999    0.2388 C   0  0  0  0  0  0  0  0  0  0  0  0
    3.4325   -1.8919   -0.3721 C   0  0  0  0  0  0  0  0  0  0  0  0
    3.8447   -1.5263   -1.6590 C   0  0  0  0  0  0  0  0  0  0  0  0
    4.6942   -2.3727   -2.3822 C   0  0  0  0  0  0  0  0  0  0  0  0
    5.0773   -3.5961   -1.8186 C   0  0  0  0  0  0  0  0  0  0  0  0
    4.6329   -3.9902   -0.5373 C   0  0  0  0  0  0  0  0  0  0  0  0
    5.0134   -5.2702   -0.1326 N   0  0  0  0  0  0  0  0  0  0  0  0
    4.1691   -6.3116    0.3598 N   0  0  0  0  0  0  0  0  0  0  0  0
    2.9931   -5.8583    1.1360 C   0  0  1  0  0  0  0  0  0  0  0  0
    2.0084   -5.3930    0.2189 O   0  0  0  0  0  0  0  0  0  0  0  0
   -0.5590   -6.9068    3.4701 H   0  0  0  0  0  0  0  0  0  0  0  0
   -0.3163   -7.5819    1.8633 H   0  0  0  0  0  0  0  0  0  0  0  0
   -0.0382   -5.8618    2.1451 H   0  0  0  0  0  0  0  0  0  0  0  0
    1.8727   -6.3824    3.6457 H   0  0  0  0  0  0  0  0  0  0  0  0
    1.5662   -8.0915    3.4700 H   0  0  0  0  0  0  0  0  0  0  0  0
    1.9261   -7.7295    0.9126 H   0  0  0  0  0  0  0  0  0  0  0  0
    5.6418   -7.7978    0.8601 H   0  0  0  0  0  0  0  0  0  0  0  0
    6.5677   -6.1822    2.4258 H   0  0  0  0  0  0  0  0  0  0  0  0
    4.0271   -6.7538    4.1619 H   0  0  0  0  0  0  0  0  0  0  0  0
    5.5784   -5.9750    4.6653 H   0  0  0  0  0  0  0  0  0  0  0  0
    5.3306   -4.1979    3.0868 H   0  0  0  0  0  0  0  0  0  0  0  0
    2.1811   -3.3464    1.4573 H   0  0  0  0  0  0  0  0  0  0  0  0
    4.6687   -2.2643    2.8274 H   0  0  0  0  0  0  0  0  0  0  0  0
    3.0623   -3.4023    4.6127 H   0  0  0  0  0  0  0  0  0  0  0  0
    0.9826   -2.9743    3.2347 H   0  0  0  0  0  0  0  0  0  0  0  0
    0.7028   -0.6720    5.1939 H   0  0  0  0  0  0  0  0  0  0  0  0
   -0.5298   -1.5705    4.4197 H   0  0  0  0  0  0  0  0  0  0  0  0
    2.5089   -2.5501    6.9786 H   0  0  0  0  0  0  0  0  0  0  0  0
   -1.7530   -5.3677    7.9063 H   0  0  0  0  0  0  0  0  0  0  0  0
   -0.9812   -4.6645    9.3483 H   0  0  0  0  0  0  0  0  0  0  0  0
   -0.1945   -6.0055    8.4810 H   0  0  0  0  0  0  0  0  0  0  0  0
   -1.5744   -3.5852    6.0998 H   0  0  0  0  0  0  0  0  0  0  0  0
    4.8064    0.0389    3.0662 H   0  0  0  0  0  0  0  0  0  0  0  0
    3.0850    1.8691    2.6031 H   0  0  0  0  0  0  0  0  0  0  0  0
    3.8079    1.9754    4.2073 H   0  0  0  0  0  0  0  0  0  0  0  0
    2.1728    1.3553    4.0222 H   0  0  0  0  0  0  0  0  0  0  0  0
    2.7221   -1.2331    0.1022 H   0  0  0  0  0  0  0  0  0  0  0  0
    3.4746   -0.6170   -2.0891 H   0  0  0  0  0  0  0  0  0  0  0  0
    4.9771   -2.1057   -3.3868 H   0  0  0  0  0  0  0  0  0  0  0  0
    5.6845   -4.2551   -2.4114 H   0  0  0  0  0  0  0  0  0  0  0  0
    5.6458   -5.6604   -0.8276 H   0  0  0  0  0  0  0  0  0  0  0  0
    2.3767   -5.5264   -0.6459 H   0  0  0  0  0  0  0  0  0  0  0  0
  1  2  1  0
  1 40  1  0
  1 41  1  0
  1 42  1  0
  2  3  1  0
  2 43  1  0
  2 44  1  0
  3 38  1  0
  3  4  1  0
  3 45  1  6
  4  5  2  0
  4  6  1  0
  6 37  1  0
  6  7  1  0
  6 46  1  6
  7  9  1  0
  7  8  1  0
  7 47  1  1
  8  9  1  0
  8 48  1  0
  8 49  1  0
  9 10  1  0
  9 50  1  1
 10 38  1  0
 10 11  1  0
 11 12  1  0
 11 30  1  0
 11 51  1  6
 12 24  1  0
 12 13  1  0
 12 52  1  1
 13 27  1  0
 13 14  1  0
 13 53  1  1
 14 15  1  0
 14 22  1  0
 14 54  1  6
 15 16  1  0
 15 55  1  0
 15 56  1  0
 16 21  2  0
 16 17  1  0
 17 18  2  0
 17 57  1  0
 18 19  1  0
 19 20  1  0
 19 21  1  0
 20 58  1  0
 20 59  1  0
 20 60  1  0
 21 61  1  0
 22 23  2  0
 22 24  1  0
 24 25  1  0
 25 26  1  0
 25 27  1  0
 25 62  1  6
 26 63  1  0
 26 64  1  0
 26 65  1  0
 27 28  2  0
 27 29  2  0
 30 35  2  0
 30 31  1  0
 31 32  2  0
 31 66  1  0
 32 33  1  0
 32 67  1  0
 33 34  2  0
 33 68  1  0
 34 35  1  0
 34 69  1  0
 35 36  1  0
 36 37  1  0
 36 70  1  0
 37 38  1  0
 38 39  1  6
 39 71  1  0
M  END
>  <i_m_ct_stereo_status>  (167) 
1

>  <s_m_source_file>  (167) 
/var/tmp/pbs.5076255.sched01/tmp1pt1fpgk/39zsbf0m6x.sdf

>  <i_m_source_file_index>  (167) 
31

>  <i_lp_mmshare_version>  (167) 
48012

>  <i_f3d_flags>  (167) 
0

>  <s_epik_input>  (167) 
W09IXVtDQEBdMTJOM1tDQEBIXTRbQ0BASF0oW0NIMl00KVtDQEBIXShDKD1PKVtDQEhdMVtDSDJdW0NIM10pTjJbTkhdYzVjKFtjSF1bY0hdW2NIXVtjSF01KVtDQEBIXTNbQ0BIXShbQ0BIXTY3KU4oW0NAQEhdKFtDSDNdKVM3KD1PKT1PKUMoPU8pW0NAQEhdNltDSDJdYzhbY0hdbm4oW0NIM10pW2NIXTg=

>  <s_epik_cmdline>  (167) 
J2VwaWtfcHl0aG9uJywgJy1waHQnLCAnMi4wJywgJy1waCcsICc3LjAnLCAnLXRuJywgJzgnLCAnLW1hJywgJzIwMCcsICctaW1hZScsICc8aW5maWxlLm1hZT4nLCAnLW9tYWUnLCAnPG91dGZpbGUubWFlPic=

>  <r_lp_tautomer_probability>  (167) 
1

>  <r_epik_Ionization_Penalty>  (167) 
0.0658633

>  <r_epik_Ionization_Penalty_Charging>  (167) 
0

>  <r_epik_Ionization_Penalty_Neutral>  (167) 
0.0658633

>  <r_epik_State_Penalty>  (167) 
0.0655616

>  <r_epik_Charging_Adjusted_Penalty>  (167) 
0.0655616

>  <i_epik_Tot_Q>  (167) 
0

>  <i_epik_Tot_abs_Q>  (167) 
0

>  <s_lp_Force_Field>  (167) 
OPLS3e

>  <r_lp_Energy>  (167) 
72.6038

>  <b_lp_Chiralities_Consistent>  (167) 
1

>  <s_lp_Variant>  (167) 
56:0-1

>  <s_i_glide_gridfile>  (167) 
pfpi4k_grid

>  <i_i_glide_lignum>  (167) 
31

>  <i_i_glide_rotatable_bonds>  (167) 
5

>  <r_i_docking_score>  (167) 
-2.65299

>  <r_i_glide_ligand_efficiency>  (167) 
-0.0680255

>  <r_i_glide_ligand_efficiency_sa>  (167) 
-0.230689

>  <r_i_glide_ligand_efficiency_ln>  (167) 
-0.568877

>  <r_i_glide_gscore>  (167) 
-2.65299

>  <r_i_glide_lipo>  (167) 
-0.345285

>  <r_i_glide_hbond>  (167) 
-0.303732

>  <r_i_glide_metal>  (167) 
-0

>  <r_i_glide_rewards>  (167) 
0

>  <r_i_glide_evdw>  (167) 
-33.2925

>  <r_i_glide_ecoul>  (167) 
-2.79059

>  <r_i_glide_erotb>  (167) 
0.132259

>  <r_i_glide_esite>  (167) 
-0.053024

>  <r_i_glide_emodel>  (167) 
-40.2636

>  <r_i_glide_energy>  (167) 
-36.0831

>  <r_i_glide_einternal>  (167) 
2.67559

>  <r_i_glide_intrahb_reward>  (167) 
-0

>  <i_i_glide_confnum>  (167) 
5

>  <i_i_glide_posenum>  (167) 
13

>  <r_i_glide_eff_state_penalty>  (167) 
0

>  <ligand_id>  (167) 
56

>  <original_smiles>  (167) 
CCC1C(=O)C2C3CC3N3C(C4C5C(Cc6cnn(C)c6)C(=O)N4C(C)S5(=O)=O)c4ccccc4NN2C13O

>  <smiles>  (167) 
[H]OC12N3N([H])c4c([H])c([H])c([H])c([H])c4C([H])(C4([H])N5C(=O)C([H])(C([H])([H])c6c([H])nn(C([H])([H])[H])c6[H])C4([H])S(=O)(=O)C5([H])C([H])([H])[H])N1C1([H])C([H])([H])C1([H])C3([H])C(=O)C2([H])C([H])([H])C([H])([H])[H]

$$$$
56:0:1
     RDKit          3D

 71 78  0  0  1  0  0  0  0  0999 V2000
   -1.4800   -2.2235    6.1189 C   0  0  0  0  0  0  0  0  0  0  0  0
   -0.4531   -3.2291    5.6043 C   0  0  0  0  0  0  0  0  0  0  0  0
   -0.5222   -4.5745    6.3731 C   0  0  2  0  0  0  0  0  0  0  0  0
    0.0432   -4.5990    7.7993 C   0  0  0  0  0  0  0  0  0  0  0  0
   -0.2085   -3.7645    8.6801 O   0  0  0  0  0  0  0  0  0  0  0  0
    0.9419   -5.8229    7.9174 C   0  0  2  0  0  0  0  0  0  0  0  0
    2.3997   -5.4354    7.5373 C   0  0  2  0  0  0  0  0  0  0  0  0
    2.8220   -4.1025    6.9431 C   0  0  0  0  0  0  0  0  0  0  0  0
    2.6900   -5.3271    6.0506 C   0  0  2  0  0  0  0  0  0  0  0  0
    1.5487   -5.4953    5.0996 N   0  0  0  0  0  0  0  0  0  0  0  0
    1.8605   -6.3944    3.9568 C   0  0  1  0  0  0  0  0  0  0  0  0
    3.2226   -6.0446    3.2337 C   0  0  2  0  0  0  0  0  0  0  0  0
    3.5645   -4.5639    3.0402 C   0  0  2  0  0  0  0  0  0  0  0  0
    2.5081   -4.1438    1.9886 C   0  0  1  0  0  0  0  0  0  0  0  0
    2.7412   -2.8666    1.1593 C   0  0  0  0  0  0  0  0  0  0  0  0
    2.9601   -1.6540    2.0341 C   0  0  0  0  0  0  0  0  0  0  0  0
    3.9518   -1.4468    3.0447 C   0  0  0  0  0  0  0  0  0  0  0  0
    3.8661   -0.2648    3.6263 N   0  0  0  0  0  0  0  0  0  0  0  0
    2.8468    0.3415    2.9925 N   0  0  0  0  0  0  0  0  0  0  0  0
    2.5182    1.6954    3.3593 C   0  0  0  0  0  0  0  0  0  0  0  0
    2.2783   -0.4705    2.0322 C   0  0  0  0  0  0  0  0  0  0  0  0
    2.4780   -5.4401    1.1759 C   0  0  0  0  0  0  0  0  0  0  0  0
    1.8499   -5.5873    0.1284 O   0  0  0  0  0  0  0  0  0  0  0  0
    3.2740   -6.3495    1.7865 N   0  0  0  0  0  0  0  0  0  0  0  0
    4.6998   -6.2779    1.4142 C   0  0  1  0  0  0  0  0  0  0  0  0
    5.0081   -6.2155   -0.1033 C   0  0  0  0  0  0  0  0  0  0  0  0
    5.2648   -4.7773    2.3196 S   0  0  0  0  0  0  0  0  0  0  0  0
    5.6284   -3.7110    1.3767 O   0  0  0  0  0  0  0  0  0  0  0  0
    6.1835   -5.1856    3.3919 O   0  0  0  0  0  0  0  0  0  0  0  0
    1.6714   -7.9119    4.1817 C   0  0  0  0  0  0  0  0  0  0  0  0
    1.6995   -8.7392    3.0391 C   0  0  0  0  0  0  0  0  0  0  0  0
    1.4658  -10.1204    3.1202 C   0  0  0  0  0  0  0  0  0  0  0  0
    1.2265  -10.7232    4.3601 C   0  0  0  0  0  0  0  0  0  0  0  0
    1.1754   -9.9209    5.5099 C   0  0  0  0  0  0  0  0  0  0  0  0
    1.3548   -8.5239    5.4311 C   0  0  0  0  0  0  0  0  0  0  0  0
    1.1713   -7.8306    6.6288 N   0  0  0  0  0  0  0  0  0  0  0  0
    0.3437   -6.6939    6.8721 N   0  0  0  0  0  0  0  0  0  0  0  0
    0.2093   -5.7760    5.7208 C   0  0  1  0  0  0  0  0  0  0  0  0
   -0.6947   -6.3649    4.7969 O   0  0  0  0  0  0  0  0  0  0  0  0
   -1.3593   -1.2428    5.6637 H   0  0  0  0  0  0  0  0  0  0  0  0
   -1.2834   -2.1118    7.1772 H   0  0  0  0  0  0  0  0  0  0  0  0
   -2.5101   -2.5625    5.9945 H   0  0  0  0  0  0  0  0  0  0  0  0
   -0.5707   -3.4035    4.5351 H   0  0  0  0  0  0  0  0  0  0  0  0
    0.5246   -2.7681    5.6928 H   0  0  0  0  0  0  0  0  0  0  0  0
   -1.5719   -4.8576    6.4873 H   0  0  0  0  0  0  0  0  0  0  0  0
    0.8898   -6.2622    8.9142 H   0  0  0  0  0  0  0  0  0  0  0  0
    3.1736   -5.9202    8.1279 H   0  0  0  0  0  0  0  0  0  0  0  0
    2.1183   -3.2819    6.8744 H   0  0  0  0  0  0  0  0  0  0  0  0
    3.8308   -3.7679    7.1608 H   0  0  0  0  0  0  0  0  0  0  0  0
    3.6705   -5.6821    5.7502 H   0  0  0  0  0  0  0  0  0  0  0  0
    1.0816   -6.1654    3.2343 H   0  0  0  0  0  0  0  0  0  0  0  0
    4.0200   -6.5570    3.7722 H   0  0  0  0  0  0  0  0  0  0  0  0
    3.5775   -3.9860    3.9559 H   0  0  0  0  0  0  0  0  0  0  0  0
    1.5390   -4.0493    2.4790 H   0  0  0  0  0  0  0  0  0  0  0  0
    3.5570   -2.9856    0.4515 H   0  0  0  0  0  0  0  0  0  0  0  0
    1.8787   -2.7104    0.5047 H   0  0  0  0  0  0  0  0  0  0  0  0
    4.7319   -2.1107    3.3831 H   0  0  0  0  0  0  0  0  0  0  0  0
    1.5902    1.9944    2.8710 H   0  0  0  0  0  0  0  0  0  0  0  0
    3.3209    2.3643    3.0435 H   0  0  0  0  0  0  0  0  0  0  0  0
    2.3990    1.7678    4.4417 H   0  0  0  0  0  0  0  0  0  0  0  0
    1.4480   -0.1343    1.4211 H   0  0  0  0  0  0  0  0  0  0  0  0
    5.2397   -7.1205    1.8419 H   0  0  0  0  0  0  0  0  0  0  0  0
    4.6044   -7.0881   -0.6207 H   0  0  0  0  0  0  0  0  0  0  0  0
    6.0873   -6.2102   -0.2496 H   0  0  0  0  0  0  0  0  0  0  0  0
    4.6180   -5.3180   -0.5979 H   0  0  0  0  0  0  0  0  0  0  0  0
    1.8240   -8.3236    2.0568 H   0  0  0  0  0  0  0  0  0  0  0  0
    1.4532  -10.6959    2.2153 H   0  0  0  0  0  0  0  0  0  0  0  0
    1.0262  -11.7811    4.4256 H   0  0  0  0  0  0  0  0  0  0  0  0
    0.9514  -10.3956    6.4499 H   0  0  0  0  0  0  0  0  0  0  0  0
    1.1125   -8.4990    7.3977 H   0  0  0  0  0  0  0  0  0  0  0  0
   -0.9181   -7.2094    5.1551 H   0  0  0  0  0  0  0  0  0  0  0  0
  1  2  1  0
  1 40  1  0
  1 41  1  0
  1 42  1  0
  2  3  1  0
  2 43  1  0
  2 44  1  0
  3 38  1  0
  3  4  1  0
  3 45  1  1
  4  5  2  0
  4  6  1  0
  6 37  1  0
  6  7  1  0
  6 46  1  1
  7  9  1  0
  7  8  1  0
  7 47  1  1
  8  9  1  0
  8 48  1  0
  8 49  1  0
  9 10  1  0
  9 50  1  6
 10 38  1  0
 10 11  1  0
 11 12  1  0
 11 30  1  0
 11 51  1  6
 12 24  1  0
 12 13  1  0
 12 52  1  1
 13 27  1  0
 13 14  1  0
 13 53  1  1
 14 15  1  0
 14 22  1  0
 14 54  1  1
 15 16  1  0
 15 55  1  0
 15 56  1  0
 16 21  2  0
 16 17  1  0
 17 18  2  0
 17 57  1  0
 18 19  1  0
 19 20  1  0
 19 21  1  0
 20 58  1  0
 20 59  1  0
 20 60  1  0
 21 61  1  0
 22 23  2  0
 22 24  1  0
 24 25  1  0
 25 26  1  0
 25 27  1  0
 25 62  1  1
 26 63  1  0
 26 64  1  0
 26 65  1  0
 27 28  2  0
 27 29  2  0
 30 35  2  0
 30 31  1  0
 31 32  2  0
 31 66  1  0
 32 33  1  0
 32 67  1  0
 33 34  2  0
 33 68  1  0
 34 35  1  0
 34 69  1  0
 35 36  1  0
 36 37  1  0
 36 70  1  0
 37 38  1  0
 38 39  1  6
 39 71  1  0
M  END
>  <i_m_ct_stereo_status>  (168) 
1

>  <s_m_source_file>  (168) 
/var/tmp/pbs.5076255.sched01/tmp1pt1fpgk/39zsbf0m6x.sdf

>  <i_m_source_file_index>  (168) 
31

>  <i_lp_mmshare_version>  (168) 
48012

>  <i_f3d_flags>  (168) 
0

>  <s_epik_input>  (168) 
W09IXVtDQEBdMTJOM1tDQEBIXTRbQ0BASF0oW0NIMl00KVtDQEBIXShDKD1PKVtDQEhdMVtDSDJdW0NIM10pTjJbTkhdYzVjKFtjSF1bY0hdW2NIXVtjSF01KVtDQEBIXTNbQ0BIXShbQ0BIXTY3KU4oW0NAQEhdKFtDSDNdKVM3KD1PKT1PKUMoPU8pW0NAQEhdNltDSDJdYzhbY0hdbm4oW0NIM10pW2NIXTg=

>  <s_epik_cmdline>  (168) 
J2VwaWtfcHl0aG9uJywgJy1waHQnLCAnMi4wJywgJy1waCcsICc3LjAnLCAnLXRuJywgJzgnLCAnLW1hJywgJzIwMCcsICctaW1hZScsICc8aW5maWxlLm1hZT4nLCAnLW9tYWUnLCAnPG91dGZpbGUubWFlPic=

>  <r_lp_tautomer_probability>  (168) 
1

>  <r_epik_Ionization_Penalty>  (168) 
0.0658633

>  <r_epik_Ionization_Penalty_Charging>  (168) 
0

>  <r_epik_Ionization_Penalty_Neutral>  (168) 
0.0658633

>  <r_epik_State_Penalty>  (168) 
0.0655616

>  <r_epik_Charging_Adjusted_Penalty>  (168) 
0.0655616

>  <i_epik_Tot_Q>  (168) 
0

>  <i_epik_Tot_abs_Q>  (168) 
0

>  <s_lp_Force_Field>  (168) 
OPLS3e

>  <r_lp_Energy>  (168) 
72.6038

>  <b_lp_Chiralities_Consistent>  (168) 
1

>  <s_lp_Variant>  (168) 
56:0-1

>  <s_i_glide_gridfile>  (168) 
pfpi4k_grid

>  <i_i_glide_lignum>  (168) 
31

>  <i_i_glide_rotatable_bonds>  (168) 
5

>  <r_i_docking_score>  (168) 
-2.41582

>  <r_i_glide_ligand_efficiency>  (168) 
-0.061944

>  <r_i_glide_ligand_efficiency_sa>  (168) 
-0.210065

>  <r_i_glide_ligand_efficiency_ln>  (168) 
-0.51802

>  <r_i_glide_gscore>  (168) 
-2.41582

>  <r_i_glide_lipo>  (168) 
-0.225118

>  <r_i_glide_hbond>  (168) 
-0.0623188

>  <r_i_glide_metal>  (168) 
-0

>  <r_i_glide_rewards>  (168) 
-0.0800752

>  <r_i_glide_evdw>  (168) 
-28.7516

>  <r_i_glide_ecoul>  (168) 
-4.56694

>  <r_i_glide_erotb>  (168) 
0.132259

>  <r_i_glide_esite>  (168) 
-0.0579431

>  <r_i_glide_emodel>  (168) 
-37.1317

>  <r_i_glide_energy>  (168) 
-33.3185

>  <r_i_glide_einternal>  (168) 
1.95347

>  <r_i_glide_intrahb_reward>  (168) 
-0

>  <i_i_glide_confnum>  (168) 
5

>  <i_i_glide_posenum>  (168) 
20

>  <r_i_glide_eff_state_penalty>  (168) 
0

>  <ligand_id>  (168) 
56

>  <original_smiles>  (168) 
CCC1C(=O)C2C3CC3N3C(C4C5C(Cc6cnn(C)c6)C(=O)N4C(C)S5(=O)=O)c4ccccc4NN2C13O

>  <smiles>  (168) 
[H]OC12N3N([H])c4c([H])c([H])c([H])c([H])c4C([H])(C4([H])N5C(=O)C([H])(C([H])([H])c6c([H])nn(C([H])([H])[H])c6[H])C4([H])S(=O)(=O)C5([H])C([H])([H])[H])N1C1([H])C([H])([H])C1([H])C3([H])C(=O)C2([H])C([H])([H])C([H])([H])[H]

$$$$
56:0:2
     RDKit          3D

 71 78  0  0  1  0  0  0  0  0999 V2000
   -0.7598   -2.8852    5.7804 C   0  0  0  0  0  0  0  0  0  0  0  0
    0.2179   -3.3360    6.8672 C   0  0  0  0  0  0  0  0  0  0  0  0
    0.0257   -4.8073    7.2898 C   0  0  2  0  0  0  0  0  0  0  0  0
    0.7079   -5.2134    8.5960 C   0  0  0  0  0  0  0  0  0  0  0  0
    0.6793   -4.5542    9.6418 O   0  0  0  0  0  0  0  0  0  0  0  0
    1.4254   -6.5375    8.3473 C   0  0  2  0  0  0  0  0  0  0  0  0
    2.8789   -6.2509    7.8834 C   0  0  2  0  0  0  0  0  0  0  0  0
    3.4266   -4.8745    7.5369 C   0  0  0  0  0  0  0  0  0  0  0  0
    3.0518   -5.8475    6.4267 C   0  0  2  0  0  0  0  0  0  0  0  0
    1.8137   -5.6801    5.5984 N   0  0  0  0  0  0  0  0  0  0  0  0
    1.8863   -6.3416    4.2726 C   0  0  1  0  0  0  0  0  0  0  0  0
    3.2143   -6.0017    3.4754 C   0  0  2  0  0  0  0  0  0  0  0  0
    3.5382   -4.5212    3.2743 C   0  0  2  0  0  0  0  0  0  0  0  0
    2.4362   -4.1106    2.2450 C   0  0  1  0  0  0  0  0  0  0  0  0
    2.6414   -2.8402    1.3912 C   0  0  0  0  0  0  0  0  0  0  0  0
    2.7654   -1.5929    2.2345 C   0  0  0  0  0  0  0  0  0  0  0  0
    3.6066   -1.3672    3.3700 C   0  0  0  0  0  0  0  0  0  0  0  0
    3.4692   -0.1567    3.8795 N   0  0  0  0  0  0  0  0  0  0  0  0
    2.5778    0.4480    3.0691 N   0  0  0  0  0  0  0  0  0  0  0  0
    2.2589    1.8295    3.3177 C   0  0  0  0  0  0  0  0  0  0  0  0
    2.1315   -0.3940    2.0719 C   0  0  0  0  0  0  0  0  0  0  0  0
    2.3920   -5.4096    1.4399 C   0  0  0  0  0  0  0  0  0  0  0  0
    1.7394   -5.5772    0.4116 O   0  0  0  0  0  0  0  0  0  0  0  0
    3.2128   -6.3055    2.0258 N   0  0  0  0  0  0  0  0  0  0  0  0
    4.6232   -6.2404    1.6003 C   0  0  1  0  0  0  0  0  0  0  0  0
    4.8663   -6.2163    0.0678 C   0  0  0  0  0  0  0  0  0  0  0  0
    5.2132   -4.7272    2.4747 S   0  0  0  0  0  0  0  0  0  0  0  0
    5.5316   -3.6626    1.5105 O   0  0  0  0  0  0  0  0  0  0  0  0
    6.1801   -5.1230    3.5047 O   0  0  0  0  0  0  0  0  0  0  0  0
    1.4771   -7.8329    4.1995 C   0  0  0  0  0  0  0  0  0  0  0  0
    1.2478   -8.3840    2.9197 C   0  0  0  0  0  0  0  0  0  0  0  0
    0.8398   -9.7122    2.7405 C   0  0  0  0  0  0  0  0  0  0  0  0
    0.6442  -10.5337    3.8517 C   0  0  0  0  0  0  0  0  0  0  0  0
    0.8248  -10.0079    5.1379 C   0  0  0  0  0  0  0  0  0  0  0  0
    1.2082   -8.6612    5.3312 C   0  0  0  0  0  0  0  0  0  0  0  0
    1.2544   -8.2364    6.6591 N   0  0  0  0  0  0  0  0  0  0  0  0
    0.6240   -7.0850    7.2247 N   0  0  0  0  0  0  0  0  0  0  0  0
    0.5084   -5.9184    6.3113 C   0  0  1  0  0  0  0  0  0  0  0  0
   -0.5677   -6.1672    5.4135 O   0  0  0  0  0  0  0  0  0  0  0  0
   -0.6356   -1.8250    5.5711 H   0  0  0  0  0  0  0  0  0  0  0  0
   -1.7941   -3.0526    6.0811 H   0  0  0  0  0  0  0  0  0  0  0  0
   -0.5796   -3.4267    4.8518 H   0  0  0  0  0  0  0  0  0  0  0  0
    1.2317   -3.1674    6.5097 H   0  0  0  0  0  0  0  0  0  0  0  0
    0.0862   -2.6957    7.7409 H   0  0  0  0  0  0  0  0  0  0  0  0
   -1.0323   -4.9716    7.4983 H   0  0  0  0  0  0  0  0  0  0  0  0
    1.4056   -7.1743    9.2273 H   0  0  0  0  0  0  0  0  0  0  0  0
    3.6259   -6.9527    8.2546 H   0  0  0  0  0  0  0  0  0  0  0  0
    2.8385   -3.9784    7.6985 H   0  0  0  0  0  0  0  0  0  0  0  0
    4.4864   -4.7158    7.7004 H   0  0  0  0  0  0  0  0  0  0  0  0
    3.9442   -6.2486    5.9568 H   0  0  0  0  0  0  0  0  0  0  0  0
    1.0844   -5.8656    3.7222 H   0  0  0  0  0  0  0  0  0  0  0  0
    4.0418   -6.5330    3.9437 H   0  0  0  0  0  0  0  0  0  0  0  0
    3.5675   -3.9688    4.2099 H   0  0  0  0  0  0  0  0  0  0  0  0
    1.4801   -4.0029    2.7554 H   0  0  0  0  0  0  0  0  0  0  0  0
    3.4707   -2.9343    0.7001 H   0  0  0  0  0  0  0  0  0  0  0  0
    1.8164   -2.7386    0.6913 H   0  0  0  0  0  0  0  0  0  0  0  0
    4.3117   -2.0335    3.8398 H   0  0  0  0  0  0  0  0  0  0  0  0
    1.4316    2.1362    2.6774 H   0  0  0  0  0  0  0  0  0  0  0  0
    3.1338    2.4473    3.1015 H   0  0  0  0  0  0  0  0  0  0  0  0
    1.9802    1.9573    4.3653 H   0  0  0  0  0  0  0  0  0  0  0  0
    1.4211   -0.0591    1.3225 H   0  0  0  0  0  0  0  0  0  0  0  0
    5.1718   -7.0868    2.0198 H   0  0  0  0  0  0  0  0  0  0  0  0
    4.4195   -7.0930   -0.4053 H   0  0  0  0  0  0  0  0  0  0  0  0
    5.9386   -6.2315   -0.1411 H   0  0  0  0  0  0  0  0  0  0  0  0
    4.4545   -5.3275   -0.4214 H   0  0  0  0  0  0  0  0  0  0  0  0
    1.3045   -7.7916    2.0268 H   0  0  0  0  0  0  0  0  0  0  0  0
    0.6621  -10.0730    1.7460 H   0  0  0  0  0  0  0  0  0  0  0  0
    0.2960  -11.5443    3.7139 H   0  0  0  0  0  0  0  0  0  0  0  0
    0.6251  -10.6439    5.9792 H   0  0  0  0  0  0  0  0  0  0  0  0
    1.1347   -9.0462    7.2694 H   0  0  0  0  0  0  0  0  0  0  0  0
   -0.8754   -7.0359    5.6192 H   0  0  0  0  0  0  0  0  0  0  0  0
  1  2  1  0
  1 40  1  0
  1 41  1  0
  1 42  1  0
  2  3  1  0
  2 43  1  0
  2 44  1  0
  3 38  1  0
  3  4  1  0
  3 45  1  1
  4  5  2  0
  4  6  1  0
  6 37  1  0
  6  7  1  0
  6 46  1  1
  7  9  1  0
  7  8  1  0
  7 47  1  1
  8  9  1  0
  8 48  1  0
  8 49  1  0
  9 10  1  0
  9 50  1  6
 10 38  1  0
 10 11  1  0
 11 12  1  0
 11 30  1  0
 11 51  1  6
 12 24  1  0
 12 13  1  0
 12 52  1  1
 13 27  1  0
 13 14  1  0
 13 53  1  1
 14 15  1  0
 14 22  1  0
 14 54  1  1
 15 16  1  0
 15 55  1  0
 15 56  1  0
 16 21  2  0
 16 17  1  0
 17 18  2  0
 17 57  1  0
 18 19  1  0
 19 20  1  0
 19 21  1  0
 20 58  1  0
 20 59  1  0
 20 60  1  0
 21 61  1  0
 22 23  2  0
 22 24  1  0
 24 25  1  0
 25 26  1  0
 25 27  1  0
 25 62  1  1
 26 63  1  0
 26 64  1  0
 26 65  1  0
 27 28  2  0
 27 29  2  0
 30 35  2  0
 30 31  1  0
 31 32  2  0
 31 66  1  0
 32 33  1  0
 32 67  1  0
 33 34  2  0
 33 68  1  0
 34 35  1  0
 34 69  1  0
 35 36  1  0
 36 37  1  0
 36 70  1  0
 37 38  1  0
 38 39  1  6
 39 71  1  0
M  END
>  <i_m_ct_stereo_status>  (169) 
1

>  <s_m_source_file>  (169) 
/var/tmp/pbs.5076255.sched01/tmp1pt1fpgk/39zsbf0m6x.sdf

>  <i_m_source_file_index>  (169) 
31

>  <i_lp_mmshare_version>  (169) 
48012

>  <i_f3d_flags>  (169) 
0

>  <s_epik_input>  (169) 
W09IXVtDQEBdMTJOM1tDQEBIXTRbQ0BASF0oW0NIMl00KVtDQEBIXShDKD1PKVtDQEhdMVtDSDJdW0NIM10pTjJbTkhdYzVjKFtjSF1bY0hdW2NIXVtjSF01KVtDQEBIXTNbQ0BIXShbQ0BIXTY3KU4oW0NAQEhdKFtDSDNdKVM3KD1PKT1PKUMoPU8pW0NAQEhdNltDSDJdYzhbY0hdbm4oW0NIM10pW2NIXTg=

>  <s_epik_cmdline>  (169) 
J2VwaWtfcHl0aG9uJywgJy1waHQnLCAnMi4wJywgJy1waCcsICc3LjAnLCAnLXRuJywgJzgnLCAnLW1hJywgJzIwMCcsICctaW1hZScsICc8aW5maWxlLm1hZT4nLCAnLW9tYWUnLCAnPG91dGZpbGUubWFlPic=

>  <r_lp_tautomer_probability>  (169) 
1

>  <r_epik_Ionization_Penalty>  (169) 
0.0658633

>  <r_epik_Ionization_Penalty_Charging>  (169) 
0

>  <r_epik_Ionization_Penalty_Neutral>  (169) 
0.0658633

>  <r_epik_State_Penalty>  (169) 
0.0655616

>  <r_epik_Charging_Adjusted_Penalty>  (169) 
0.0655616

>  <i_epik_Tot_Q>  (169) 
0

>  <i_epik_Tot_abs_Q>  (169) 
0

>  <s_lp_Force_Field>  (169) 
OPLS3e

>  <r_lp_Energy>  (169) 
72.6038

>  <b_lp_Chiralities_Consistent>  (169) 
1

>  <s_lp_Variant>  (169) 
56:0-1

>  <s_i_glide_gridfile>  (169) 
pfpi4k_grid

>  <i_i_glide_lignum>  (169) 
31

>  <i_i_glide_rotatable_bonds>  (169) 
5

>  <r_i_docking_score>  (169) 
-2.38453

>  <r_i_glide_ligand_efficiency>  (169) 
-0.0611417

>  <r_i_glide_ligand_efficiency_sa>  (169) 
-0.207344

>  <r_i_glide_ligand_efficiency_ln>  (169) 
-0.51131

>  <r_i_glide_gscore>  (169) 
-2.38453

>  <r_i_glide_lipo>  (169) 
-0.199717

>  <r_i_glide_hbond>  (169) 
-0.112974

>  <r_i_glide_metal>  (169) 
-0

>  <r_i_glide_rewards>  (169) 
-0.0484994

>  <r_i_glide_evdw>  (169) 
-28.758

>  <r_i_glide_ecoul>  (169) 
-4.40786

>  <r_i_glide_erotb>  (169) 
0.132259

>  <r_i_glide_esite>  (169) 
-0.0565136

>  <r_i_glide_emodel>  (169) 
-35.9349

>  <r_i_glide_energy>  (169) 
-33.1659

>  <r_i_glide_einternal>  (169) 
3.24949

>  <r_i_glide_intrahb_reward>  (169) 
-0

>  <i_i_glide_confnum>  (169) 
5

>  <i_i_glide_posenum>  (169) 
12

>  <r_i_glide_eff_state_penalty>  (169) 
0

>  <ligand_id>  (169) 
56

>  <original_smiles>  (169) 
CCC1C(=O)C2C3CC3N3C(C4C5C(Cc6cnn(C)c6)C(=O)N4C(C)S5(=O)=O)c4ccccc4NN2C13O

>  <smiles>  (169) 
[H]OC12N3N([H])c4c([H])c([H])c([H])c([H])c4C([H])(C4([H])N5C(=O)C([H])(C([H])([H])c6c([H])nn(C([H])([H])[H])c6[H])C4([H])S(=O)(=O)C5([H])C([H])([H])[H])N1C1([H])C([H])([H])C1([H])C3([H])C(=O)C2([H])C([H])([H])C([H])([H])[H]

$$$$
56:1:0
     RDKit          3D

 72 79  0  0  1  0  0  0  0  0999 V2000
   -2.0697   -8.4430    3.0814 C   0  0  0  0  0  0  0  0  0  0  0  0
   -0.7236   -7.7681    3.3780 C   0  0  0  0  0  0  0  0  0  0  0  0
    0.3967   -8.1738    2.3975 C   0  0  2  0  0  0  0  0  0  0  0  0
    1.0795   -9.5272    2.5856 C   0  0  0  0  0  0  0  0  0  0  0  0
    0.5023  -10.5726    2.8851 O   0  0  0  0  0  0  0  0  0  0  0  0
    2.5800   -9.2998    2.4192 C   0  0  2  0  0  0  0  0  0  0  0  0
    3.1906   -9.0279    3.8188 C   0  0  2  0  0  0  0  0  0  0  0  0
    2.4007   -8.8027    5.1064 C   0  0  0  0  0  0  0  0  0  0  0  0
    3.0592   -7.6313    4.4043 C   0  0  2  0  0  0  0  0  0  0  0  0
    2.1912   -6.6643    3.5951 N   0  0  1  0  0  0  0  0  0  0  0  0
    2.8321   -5.2842    3.4721 C   0  0  1  0  0  0  0  0  0  0  0  0
    3.4549   -4.7056    4.8155 C   0  0  2  0  0  0  0  0  0  0  0  0
    2.5002   -4.4752    5.9996 C   0  0  2  0  0  0  0  0  0  0  0  0
    1.7192   -3.2164    5.5267 C   0  0  1  0  0  0  0  0  0  0  0  0
    1.0362   -2.3382    6.5915 C   0  0  0  0  0  0  0  0  0  0  0  0
   -0.0552   -1.4827    6.0075 C   0  0  0  0  0  0  0  0  0  0  0  0
   -1.3861   -1.8690    5.6836 C   0  0  0  0  0  0  0  0  0  0  0  0
   -2.1203   -0.8722    5.2274 N   0  0  0  0  0  0  0  0  0  0  0  0
   -1.2731    0.1775    5.1929 N   0  0  0  0  0  0  0  0  0  0  0  0
   -1.7442    1.4586    4.7127 C   0  0  0  0  0  0  0  0  0  0  0  0
   -0.0222   -0.1591    5.6653 C   0  0  0  0  0  0  0  0  0  0  0  0
    2.8469   -2.5098    4.7790 C   0  0  0  0  0  0  0  0  0  0  0  0
    2.7788   -1.3739    4.3199 O   0  0  0  0  0  0  0  0  0  0  0  0
    3.9347   -3.3090    4.7927 N   0  0  0  0  0  0  0  0  0  0  0  0
    4.7886   -3.1598    5.9912 C   0  0  1  0  0  0  0  0  0  0  0  0
    5.1601   -1.7133    6.4101 C   0  0  0  0  0  0  0  0  0  0  0  0
    3.7950   -4.0556    7.2684 S   0  0  0  0  0  0  0  0  0  0  0  0
    3.2925   -3.1310    8.2935 O   0  0  0  0  0  0  0  0  0  0  0  0
    4.4966   -5.2927    7.6313 O   0  0  0  0  0  0  0  0  0  0  0  0
    3.7242   -5.0746    2.2228 C   0  0  0  0  0  0  0  0  0  0  0  0
    4.0108   -3.7438    1.8182 C   0  0  0  0  0  0  0  0  0  0  0  0
    4.7996   -3.4548    0.6939 C   0  0  0  0  0  0  0  0  0  0  0  0
    5.3236   -4.4960   -0.0699 C   0  0  0  0  0  0  0  0  0  0  0  0
    5.0208   -5.8212    0.2811 C   0  0  0  0  0  0  0  0  0  0  0  0
    4.2136   -6.1248    1.3966 C   0  0  0  0  0  0  0  0  0  0  0  0
    3.9163   -7.4822    1.5803 N   0  0  0  0  0  0  0  0  0  0  0  0
    2.6085   -8.0622    1.6066 N   0  0  0  0  0  0  0  0  0  0  0  0
    1.6120   -7.2330    2.2881 C   0  0  1  0  0  0  0  0  0  0  0  0
    1.1910   -6.1599    1.4490 O   0  0  0  0  0  0  0  0  0  0  0  0
   -2.8283   -8.0353    3.7352 H   0  0  0  0  0  0  0  0  0  0  0  0
   -2.0301   -9.5198    3.2408 H   0  0  0  0  0  0  0  0  0  0  0  0
   -2.4098   -8.2613    2.0637 H   0  0  0  0  0  0  0  0  0  0  0  0
   -0.8594   -6.6890    3.3208 H   0  0  0  0  0  0  0  0  0  0  0  0
   -0.4348   -7.9953    4.3997 H   0  0  0  0  0  0  0  0  0  0  0  0
   -0.0393   -8.2368    1.4022 H   0  0  0  0  0  0  0  0  0  0  0  0
    3.0644  -10.1355    1.9114 H   0  0  0  0  0  0  0  0  0  0  0  0
    4.1596   -9.4896    3.9656 H   0  0  0  0  0  0  0  0  0  0  0  0
    1.3204   -8.9160    5.1345 H   0  0  0  0  0  0  0  0  0  0  0  0
    2.8839   -9.1404    6.0162 H   0  0  0  0  0  0  0  0  0  0  0  0
    3.9585   -7.2397    4.8621 H   0  0  0  0  0  0  0  0  0  0  0  0
    1.9850   -4.6510    3.2513 H   0  0  0  0  0  0  0  0  0  0  0  0
    4.3208   -5.3127    5.0783 H   0  0  0  0  0  0  0  0  0  0  0  0
    1.8934   -5.3222    6.3201 H   0  0  0  0  0  0  0  0  0  0  0  0
    0.9600   -3.5158    4.8033 H   0  0  0  0  0  0  0  0  0  0  0  0
    0.6193   -2.9926    7.3549 H   0  0  0  0  0  0  0  0  0  0  0  0
    1.7619   -1.6999    7.0938 H   0  0  0  0  0  0  0  0  0  0  0  0
   -1.8354   -2.8443    5.7967 H   0  0  0  0  0  0  0  0  0  0  0  0
   -0.9127    2.1614    4.6532 H   0  0  0  0  0  0  0  0  0  0  0  0
   -2.4918    1.8605    5.3975 H   0  0  0  0  0  0  0  0  0  0  0  0
   -2.1830    1.3510    3.7192 H   0  0  0  0  0  0  0  0  0  0  0  0
    0.7785    0.5661    5.7208 H   0  0  0  0  0  0  0  0  0  0  0  0
    5.7151   -3.7176    5.8464 H   0  0  0  0  0  0  0  0  0  0  0  0
    5.6688   -1.1923    5.5966 H   0  0  0  0  0  0  0  0  0  0  0  0
    5.8351   -1.7230    7.2682 H   0  0  0  0  0  0  0  0  0  0  0  0
    4.2884   -1.1188    6.6956 H   0  0  0  0  0  0  0  0  0  0  0  0
    3.5932   -2.8926    2.3255 H   0  0  0  0  0  0  0  0  0  0  0  0
    4.9787   -2.4263    0.4305 H   0  0  0  0  0  0  0  0  0  0  0  0
    5.8972   -4.2714   -0.9547 H   0  0  0  0  0  0  0  0  0  0  0  0
    5.3972   -6.6137   -0.3322 H   0  0  0  0  0  0  0  0  0  0  0  0
    4.5078   -8.0271    0.9715 H   0  0  0  0  0  0  0  0  0  0  0  0
    1.5321   -5.3550    1.8022 H   0  0  0  0  0  0  0  0  0  0  0  0
    1.3803   -6.5206    4.1870 H   0  0  0  0  0  0  0  0  0  0  0  0
  1  2  1  0
  1 40  1  0
  1 41  1  0
  1 42  1  0
  2  3  1  0
  2 43  1  0
  2 44  1  0
  3 38  1  0
  3  4  1  0
  3 45  1  6
  4  5  2  0
  4  6  1  0
  6 37  1  0
  6  7  1  0
  6 46  1  6
  7  9  1  0
  7  8  1  0
  7 47  1  1
  8  9  1  0
  8 48  1  0
  8 49  1  0
  9 10  1  0
  9 50  1  1
 10 38  1  0
 10 11  1  0
 10 72  1  1
 11 12  1  0
 11 30  1  0
 11 51  1  6
 12 24  1  0
 12 13  1  0
 12 52  1  1
 13 27  1  0
 13 14  1  0
 13 53  1  1
 14 15  1  0
 14 22  1  0
 14 54  1  6
 15 16  1  0
 15 55  1  0
 15 56  1  0
 16 21  2  0
 16 17  1  0
 17 18  2  0
 17 57  1  0
 18 19  1  0
 19 20  1  0
 19 21  1  0
 20 58  1  0
 20 59  1  0
 20 60  1  0
 21 61  1  0
 22 23  2  0
 22 24  1  0
 24 25  1  0
 25 26  1  0
 25 27  1  0
 25 62  1  6
 26 63  1  0
 26 64  1  0
 26 65  1  0
 27 28  2  0
 27 29  2  0
 30 35  2  0
 30 31  1  0
 31 32  2  0
 31 66  1  0
 32 33  1  0
 32 67  1  0
 33 34  2  0
 33 68  1  0
 34 35  1  0
 34 69  1  0
 35 36  1  0
 36 37  1  0
 36 70  1  0
 37 38  1  0
 38 39  1  6
 39 71  1  0
M  CHG  1  10   1
M  END
>  <i_m_ct_stereo_status>  (170) 
1

>  <s_m_source_file>  (170) 
/var/tmp/pbs.5076255.sched01/tmp1pt1fpgk/39zsbf0m6x.sdf

>  <i_m_source_file_index>  (170) 
32

>  <i_lp_mmshare_version>  (170) 
48012

>  <i_f3d_flags>  (170) 
0

>  <s_epik_input>  (170) 
W09IXVtDQEBdMTJOM1tDQEBIXTRbQ0BASF0oW0NIMl00KVtDQEBIXShDKD1PKVtDQEhdMVtDSDJdW0NIM10pTjJbTkhdYzVjKFtjSF1bY0hdW2NIXVtjSF01KVtDQEBIXTNbQ0BIXShbQ0BIXTY3KU4oW0NAQEhdKFtDSDNdKVM3KD1PKT1PKUMoPU8pW0NAQEhdNltDSDJdYzhbY0hdbm4oW0NIM10pW2NIXTg=

>  <s_epik_cmdline>  (170) 
J2VwaWtfcHl0aG9uJywgJy1waHQnLCAnMi4wJywgJy1waCcsICc3LjAnLCAnLXRuJywgJzgnLCAnLW1hJywgJzIwMCcsICctaW1hZScsICc8aW5maWxlLm1hZT4nLCAnLW9tYWUnLCAnPG91dGZpbGUubWFlPic=

>  <r_lp_tautomer_probability>  (170) 
1

>  <r_epik_Ionization_Penalty>  (170) 
1.48941

>  <r_epik_Ionization_Penalty_Charging>  (170) 
1.36264

>  <r_epik_Ionization_Penalty_Neutral>  (170) 
0.126761

>  <r_epik_State_Penalty>  (170) 
1.45281

>  <r_epik_Charging_Adjusted_Penalty>  (170) 
2.81546

>  <i_epik_Tot_Q>  (170) 
1

>  <i_epik_Tot_abs_Q>  (170) 
1

>  <s_lp_Force_Field>  (170) 
OPLS3e

>  <r_lp_Energy>  (170) 
73.4585

>  <b_lp_Chiralities_Consistent>  (170) 
1

>  <s_lp_Variant>  (170) 
56:0-2

>  <s_i_glide_gridfile>  (170) 
pfpi4k_grid

>  <i_i_glide_lignum>  (170) 
32

>  <i_i_glide_rotatable_bonds>  (170) 
5

>  <r_i_docking_score>  (170) 
-2.59135

>  <r_i_glide_ligand_efficiency>  (170) 
-0.0664448

>  <r_i_glide_ligand_efficiency_sa>  (170) 
-0.225328

>  <r_i_glide_ligand_efficiency_ln>  (170) 
-0.555658

>  <r_i_glide_gscore>  (170) 
-2.59135

>  <r_i_glide_lipo>  (170) 
-0.266965

>  <r_i_glide_hbond>  (170) 
-0.133434

>  <r_i_glide_metal>  (170) 
-0

>  <r_i_glide_rewards>  (170) 
-0.108322

>  <r_i_glide_evdw>  (170) 
-29.9829

>  <r_i_glide_ecoul>  (170) 
-4.34853

>  <r_i_glide_erotb>  (170) 
0.13045

>  <r_i_glide_esite>  (170) 
-0.0616506

>  <r_i_glide_emodel>  (170) 
-39.29

>  <r_i_glide_energy>  (170) 
-34.3314

>  <r_i_glide_einternal>  (170) 
1.94802

>  <r_i_glide_intrahb_reward>  (170) 
-0

>  <i_i_glide_confnum>  (170) 
5

>  <i_i_glide_posenum>  (170) 
25

>  <r_i_glide_eff_state_penalty>  (170) 
0

>  <ligand_id>  (170) 
56

>  <original_smiles>  (170) 
CCC1C(=O)C2C3CC3N3C(C4C5C(Cc6cnn(C)c6)C(=O)N4C(C)S5(=O)=O)c4ccccc4NN2C13O

>  <smiles>  (170) 
[H]OC12N3N([H])c4c([H])c([H])c([H])c([H])c4C([H])(C4([H])N5C(=O)C([H])(C([H])([H])c6c([H])nn(C([H])([H])[H])c6[H])C4([H])S(=O)(=O)C5([H])C([H])([H])[H])[N+]1([H])C1([H])C([H])([H])C1([H])C3([H])C(=O)C2([H])C([H])([H])C([H])([H])[H]

$$$$
56:1:1
     RDKit          3D

 72 79  0  0  1  0  0  0  0  0999 V2000
    0.0780   -2.0296    4.7010 C   0  0  0  0  0  0  0  0  0  0  0  0
    0.9458   -3.2804    4.4911 C   0  0  0  0  0  0  0  0  0  0  0  0
    0.5615   -4.4730    5.3911 C   0  0  2  0  0  0  0  0  0  0  0  0
    0.7582   -4.3579    6.9011 C   0  0  0  0  0  0  0  0  0  0  0  0
    0.4721   -3.3643    7.5747 O   0  0  0  0  0  0  0  0  0  0  0  0
    1.3801   -5.6664    7.3792 C   0  0  2  0  0  0  0  0  0  0  0  0
    2.9267   -5.5063    7.3624 C   0  0  2  0  0  0  0  0  0  0  0  0
    3.6956   -4.3316    6.7550 C   0  0  0  0  0  0  0  0  0  0  0  0
    3.6528   -5.6682    6.0407 C   0  0  2  0  0  0  0  0  0  0  0  0
    2.7478   -5.8159    4.8233 N   0  0  1  0  0  0  0  0  0  0  0  0
    3.2299   -6.8968    3.8719 C   0  0  1  0  0  0  0  0  0  0  0  0
    4.7953   -6.9036    3.6151 C   0  0  2  0  0  0  0  0  0  0  0  0
    5.4939   -5.5659    3.3143 C   0  0  2  0  0  0  0  0  0  0  0  0
    4.9600   -5.2766    1.8949 C   0  0  1  0  0  0  0  0  0  0  0  0
    5.7506   -4.2796    1.0242 C   0  0  0  0  0  0  0  0  0  0  0  0
    4.9121   -3.6625   -0.0648 C   0  0  0  0  0  0  0  0  0  0  0  0
    5.1852   -2.4673   -0.7949 C   0  0  0  0  0  0  0  0  0  0  0  0
    4.2696   -2.2018   -1.7136 N   0  0  0  0  0  0  0  0  0  0  0  0
    3.3767   -3.2061   -1.5946 N   0  0  0  0  0  0  0  0  0  0  0  0
    2.2170   -3.2498   -2.4554 C   0  0  0  0  0  0  0  0  0  0  0  0
    3.7428   -4.0972   -0.6150 C   0  0  0  0  0  0  0  0  0  0  0  0
    4.9061   -6.7150    1.3721 C   0  0  0  0  0  0  0  0  0  0  0  0
    4.6121   -7.0306    0.2214 O   0  0  0  0  0  0  0  0  0  0  0  0
    5.2483   -7.5539    2.3664 N   0  0  0  0  0  0  0  0  0  0  0  0
    6.7066   -7.7656    2.5209 C   0  0  1  0  0  0  0  0  0  0  0  0
    7.5217   -8.0553    1.2311 C   0  0  0  0  0  0  0  0  0  0  0  0
    7.2411   -6.1995    3.3031 S   0  0  0  0  0  0  0  0  0  0  0  0
    8.1132   -5.4720    2.3739 O   0  0  0  0  0  0  0  0  0  0  0  0
    7.6386   -6.4584    4.6933 O   0  0  0  0  0  0  0  0  0  0  0  0
    2.6629   -8.3120    4.1508 C   0  0  0  0  0  0  0  0  0  0  0  0
    2.7695   -9.2743    3.1170 C   0  0  0  0  0  0  0  0  0  0  0  0
    2.2366  -10.5685    3.2638 C   0  0  0  0  0  0  0  0  0  0  0  0
    1.5970  -10.9420    4.4457 C   0  0  0  0  0  0  0  0  0  0  0  0
    1.4629  -10.0046    5.4767 C   0  0  0  0  0  0  0  0  0  0  0  0
    1.9619   -8.6947    5.3344 C   0  0  0  0  0  0  0  0  0  0  0  0
    1.6668   -7.8288    6.3903 N   0  0  0  0  0  0  0  0  0  0  0  0
    0.9392   -6.6028    6.3158 N   0  0  0  0  0  0  0  0  0  0  0  0
    1.2437   -5.8282    5.1040 C   0  0  1  0  0  0  0  0  0  0  0  0
    0.5869   -6.3940    3.9813 O   0  0  0  0  0  0  0  0  0  0  0  0
    0.3489   -1.2653    3.9775 H   0  0  0  0  0  0  0  0  0  0  0  0
    0.2154   -1.5996    5.6913 H   0  0  0  0  0  0  0  0  0  0  0  0
   -0.9829   -2.2466    4.5719 H   0  0  0  0  0  0  0  0  0  0  0  0
    0.8392   -3.5982    3.4531 H   0  0  0  0  0  0  0  0  0  0  0  0
    1.9902   -3.0236    4.6321 H   0  0  0  0  0  0  0  0  0  0  0  0
   -0.5097   -4.6344    5.2860 H   0  0  0  0  0  0  0  0  0  0  0  0
    1.0143   -5.9450    8.3688 H   0  0  0  0  0  0  0  0  0  0  0  0
    3.4264   -5.9551    8.2140 H   0  0  0  0  0  0  0  0  0  0  0  0
    3.1776   -3.4600    6.3676 H   0  0  0  0  0  0  0  0  0  0  0  0
    4.6292   -4.0811    7.2504 H   0  0  0  0  0  0  0  0  0  0  0  0
    4.5645   -6.2459    6.0543 H   0  0  0  0  0  0  0  0  0  0  0  0
    2.7683   -6.6264    2.9289 H   0  0  0  0  0  0  0  0  0  0  0  0
    5.2604   -7.4183    4.4589 H   0  0  0  0  0  0  0  0  0  0  0  0
    5.3697   -4.7642    4.0414 H   0  0  0  0  0  0  0  0  0  0  0  0
    3.9397   -4.9080    1.9955 H   0  0  0  0  0  0  0  0  0  0  0  0
    6.1397   -3.4934    1.6697 H   0  0  0  0  0  0  0  0  0  0  0  0
    6.6173   -4.7611    0.5761 H   0  0  0  0  0  0  0  0  0  0  0  0
    6.0228   -1.7956   -0.6878 H   0  0  0  0  0  0  0  0  0  0  0  0
    1.5481   -4.0533   -2.1431 H   0  0  0  0  0  0  0  0  0  0  0  0
    2.5210   -3.4278   -3.4867 H   0  0  0  0  0  0  0  0  0  0  0  0
    1.6847   -2.3042   -2.3954 H   0  0  0  0  0  0  0  0  0  0  0  0
    3.1404   -4.9730   -0.4108 H   0  0  0  0  0  0  0  0  0  0  0  0
    6.8951   -8.5677    3.2324 H   0  0  0  0  0  0  0  0  0  0  0  0
    7.1502   -8.9464    0.7244 H   0  0  0  0  0  0  0  0  0  0  0  0
    8.5704   -8.2300    1.4720 H   0  0  0  0  0  0  0  0  0  0  0  0
    7.5184   -7.2229    0.5174 H   0  0  0  0  0  0  0  0  0  0  0  0
    3.2156   -9.0201    2.1673 H   0  0  0  0  0  0  0  0  0  0  0  0
    2.3240  -11.2771    2.4636 H   0  0  0  0  0  0  0  0  0  0  0  0
    1.1698  -11.9276    4.5444 H   0  0  0  0  0  0  0  0  0  0  0  0
    0.9435  -10.3079    6.3708 H   0  0  0  0  0  0  0  0  0  0  0  0
    1.3600   -8.3887    7.1727 H   0  0  0  0  0  0  0  0  0  0  0  0
    0.2410   -7.2276    4.2680 H   0  0  0  0  0  0  0  0  0  0  0  0
    2.8861   -4.9633    4.3008 H   0  0  0  0  0  0  0  0  0  0  0  0
  1  2  1  0
  1 40  1  0
  1 41  1  0
  1 42  1  0
  2  3  1  0
  2 43  1  0
  2 44  1  0
  3 38  1  0
  3  4  1  0
  3 45  1  1
  4  5  2  0
  4  6  1  0
  6 37  1  0
  6  7  1  0
  6 46  1  1
  7  9  1  0
  7  8  1  0
  7 47  1  1
  8  9  1  0
  8 48  1  0
  8 49  1  0
  9 10  1  0
  9 50  1  1
 10 38  1  0
 10 11  1  0
 10 72  1  6
 11 12  1  0
 11 30  1  0
 11 51  1  6
 12 24  1  0
 12 13  1  0
 12 52  1  1
 13 27  1  0
 13 14  1  0
 13 53  1  1
 14 15  1  0
 14 22  1  0
 14 54  1  1
 15 16  1  0
 15 55  1  0
 15 56  1  0
 16 21  2  0
 16 17  1  0
 17 18  2  0
 17 57  1  0
 18 19  1  0
 19 20  1  0
 19 21  1  0
 20 58  1  0
 20 59  1  0
 20 60  1  0
 21 61  1  0
 22 23  2  0
 22 24  1  0
 24 25  1  0
 25 26  1  0
 25 27  1  0
 25 62  1  1
 26 63  1  0
 26 64  1  0
 26 65  1  0
 27 28  2  0
 27 29  2  0
 30 35  2  0
 30 31  1  0
 31 32  2  0
 31 66  1  0
 32 33  1  0
 32 67  1  0
 33 34  2  0
 33 68  1  0
 34 35  1  0
 34 69  1  0
 35 36  1  0
 36 37  1  0
 36 70  1  0
 37 38  1  0
 38 39  1  6
 39 71  1  0
M  CHG  1  10   1
M  END
>  <i_m_ct_stereo_status>  (171) 
1

>  <s_m_source_file>  (171) 
/var/tmp/pbs.5076255.sched01/tmp1pt1fpgk/39zsbf0m6x.sdf

>  <i_m_source_file_index>  (171) 
32

>  <i_lp_mmshare_version>  (171) 
48012

>  <i_f3d_flags>  (171) 
0

>  <s_epik_input>  (171) 
W09IXVtDQEBdMTJOM1tDQEBIXTRbQ0BASF0oW0NIMl00KVtDQEBIXShDKD1PKVtDQEhdMVtDSDJdW0NIM10pTjJbTkhdYzVjKFtjSF1bY0hdW2NIXVtjSF01KVtDQEBIXTNbQ0BIXShbQ0BIXTY3KU4oW0NAQEhdKFtDSDNdKVM3KD1PKT1PKUMoPU8pW0NAQEhdNltDSDJdYzhbY0hdbm4oW0NIM10pW2NIXTg=

>  <s_epik_cmdline>  (171) 
J2VwaWtfcHl0aG9uJywgJy1waHQnLCAnMi4wJywgJy1waCcsICc3LjAnLCAnLXRuJywgJzgnLCAnLW1hJywgJzIwMCcsICctaW1hZScsICc8aW5maWxlLm1hZT4nLCAnLW9tYWUnLCAnPG91dGZpbGUubWFlPic=

>  <r_lp_tautomer_probability>  (171) 
1

>  <r_epik_Ionization_Penalty>  (171) 
1.48941

>  <r_epik_Ionization_Penalty_Charging>  (171) 
1.36264

>  <r_epik_Ionization_Penalty_Neutral>  (171) 
0.126761

>  <r_epik_State_Penalty>  (171) 
1.45281

>  <r_epik_Charging_Adjusted_Penalty>  (171) 
2.81546

>  <i_epik_Tot_Q>  (171) 
1

>  <i_epik_Tot_abs_Q>  (171) 
1

>  <s_lp_Force_Field>  (171) 
OPLS3e

>  <r_lp_Energy>  (171) 
73.4585

>  <b_lp_Chiralities_Consistent>  (171) 
1

>  <s_lp_Variant>  (171) 
56:0-2

>  <s_i_glide_gridfile>  (171) 
pfpi4k_grid

>  <i_i_glide_lignum>  (171) 
32

>  <i_i_glide_rotatable_bonds>  (171) 
5

>  <r_i_docking_score>  (171) 
-2.55578

>  <r_i_glide_ligand_efficiency>  (171) 
-0.0655328

>  <r_i_glide_ligand_efficiency_sa>  (171) 
-0.222235

>  <r_i_glide_ligand_efficiency_ln>  (171) 
-0.548031

>  <r_i_glide_gscore>  (171) 
-2.55578

>  <r_i_glide_lipo>  (171) 
-0.449256

>  <r_i_glide_hbond>  (171) 
0

>  <r_i_glide_metal>  (171) 
-0

>  <r_i_glide_rewards>  (171) 
-0.181897

>  <r_i_glide_evdw>  (171) 
-30.4624

>  <r_i_glide_ecoul>  (171) 
-3.45142

>  <r_i_glide_erotb>  (171) 
0.13045

>  <r_i_glide_esite>  (171) 
-0.0142417

>  <r_i_glide_emodel>  (171) 
-38.5573

>  <r_i_glide_energy>  (171) 
-33.9138

>  <r_i_glide_einternal>  (171) 
2.57267

>  <r_i_glide_intrahb_reward>  (171) 
-0

>  <i_i_glide_confnum>  (171) 
5

>  <i_i_glide_posenum>  (171) 
4

>  <r_i_glide_eff_state_penalty>  (171) 
0

>  <ligand_id>  (171) 
56

>  <original_smiles>  (171) 
CCC1C(=O)C2C3CC3N3C(C4C5C(Cc6cnn(C)c6)C(=O)N4C(C)S5(=O)=O)c4ccccc4NN2C13O

>  <smiles>  (171) 
[H]OC12N3N([H])c4c([H])c([H])c([H])c([H])c4C([H])(C4([H])N5C(=O)C([H])(C([H])([H])c6c([H])nn(C([H])([H])[H])c6[H])C4([H])S(=O)(=O)C5([H])C([H])([H])[H])[N+]1([H])C1([H])C([H])([H])C1([H])C3([H])C(=O)C2([H])C([H])([H])C([H])([H])[H]

$$$$
56:1:2
     RDKit          3D

 72 79  0  0  1  0  0  0  0  0999 V2000
    0.3483   -8.8256    3.1434 C   0  0  0  0  0  0  0  0  0  0  0  0
    1.2196   -7.5671    2.9788 C   0  0  0  0  0  0  0  0  0  0  0  0
    2.1339   -7.5922    1.7436 C   0  0  2  0  0  0  0  0  0  0  0  0
    3.2934   -8.5857    1.7100 C   0  0  0  0  0  0  0  0  0  0  0  0
    3.2357   -9.7495    2.1020 O   0  0  0  0  0  0  0  0  0  0  0  0
    4.5219   -7.8390    1.1938 C   0  0  2  0  0  0  0  0  0  0  0  0
    5.3050   -7.2820    2.4073 C   0  0  2  0  0  0  0  0  0  0  0  0
    4.8170   -7.2780    3.8575 C   0  0  0  0  0  0  0  0  0  0  0  0
    4.8103   -5.9942    3.0498 C   0  0  2  0  0  0  0  0  0  0  0  0
    3.4812   -5.4599    2.5075 N   0  0  1  0  0  0  0  0  0  0  0  0
    3.5156   -3.9586    2.2680 C   0  0  1  0  0  0  0  0  0  0  0  0
    4.1906   -3.1221    3.4415 C   0  0  2  0  0  0  0  0  0  0  0  0
    3.6051   -3.2540    4.8580 C   0  0  2  0  0  0  0  0  0  0  0  0
    2.2696   -2.4647    4.7016 C   0  0  1  0  0  0  0  0  0  0  0  0
    1.5898   -1.9271    5.9795 C   0  0  0  0  0  0  0  0  0  0  0  0
    0.2923   -1.2237    5.7041 C   0  0  0  0  0  0  0  0  0  0  0  0
   -1.0161   -1.7761    5.6515 C   0  0  0  0  0  0  0  0  0  0  0  0
   -1.9465   -0.8655    5.4029 N   0  0  0  0  0  0  0  0  0  0  0  0
   -1.2568    0.2897    5.2660 N   0  0  0  0  0  0  0  0  0  0  0  0
   -1.9586    1.5150    4.9653 C   0  0  0  0  0  0  0  0  0  0  0  0
    0.0917    0.1058    5.4553 C   0  0  0  0  0  0  0  0  0  0  0  0
    2.7504   -1.3908    3.7183 C   0  0  0  0  0  0  0  0  0  0  0  0
    2.1019   -0.4259    3.3325 O   0  0  0  0  0  0  0  0  0  0  0  0
    4.0288   -1.6557    3.3930 N   0  0  0  0  0  0  0  0  0  0  0  0
    5.0213   -1.0927    4.3274 C   0  0  1  0  0  0  0  0  0  0  0  0
    4.8376    0.3918    4.7486 C   0  0  0  0  0  0  0  0  0  0  0  0
    4.9230   -2.2781    5.7498 S   0  0  0  0  0  0  0  0  0  0  0  0
    4.4275   -1.6051    6.9601 O   0  0  0  0  0  0  0  0  0  0  0  0
    6.1391   -3.0973    5.7910 O   0  0  0  0  0  0  0  0  0  0  0  0
    3.9685   -3.5108    0.8499 C   0  0  0  0  0  0  0  0  0  0  0  0
    3.6434   -2.1933    0.4332 C   0  0  0  0  0  0  0  0  0  0  0  0
    3.9763   -1.7127   -0.8427 C   0  0  0  0  0  0  0  0  0  0  0  0
    4.6448   -2.5397   -1.7481 C   0  0  0  0  0  0  0  0  0  0  0  0
    4.9436   -3.8588   -1.3815 C   0  0  0  0  0  0  0  0  0  0  0  0
    4.5937   -4.3591   -0.1081 C   0  0  0  0  0  0  0  0  0  0  0  0
    4.8612   -5.7167    0.1057 N   0  0  0  0  0  0  0  0  0  0  0  0
    3.9023   -6.7185    0.4467 N   0  0  0  0  0  0  0  0  0  0  0  0
    2.8584   -6.2741    1.3729 C   0  0  1  0  0  0  0  0  0  0  0  0
    1.9149   -5.4658    0.6894 O   0  0  0  0  0  0  0  0  0  0  0  0
   -0.3317   -8.7040    3.9829 H   0  0  0  0  0  0  0  0  0  0  0  0
    0.9470   -9.7130    3.3416 H   0  0  0  0  0  0  0  0  0  0  0  0
   -0.2526   -9.0238    2.2546 H   0  0  0  0  0  0  0  0  0  0  0  0
    0.5582   -6.7055    2.8866 H   0  0  0  0  0  0  0  0  0  0  0  0
    1.8047   -7.4145    3.8825 H   0  0  0  0  0  0  0  0  0  0  0  0
    1.5181   -7.8829    0.8940 H   0  0  0  0  0  0  0  0  0  0  0  0
    5.1413   -8.4722    0.5602 H   0  0  0  0  0  0  0  0  0  0  0  0
    6.3838   -7.3527    2.3027 H   0  0  0  0  0  0  0  0  0  0  0  0
    3.8954   -7.7734    4.1412 H   0  0  0  0  0  0  0  0  0  0  0  0
    5.5940   -7.3607    4.6092 H   0  0  0  0  0  0  0  0  0  0  0  0
    5.5771   -5.2704    3.2910 H   0  0  0  0  0  0  0  0  0  0  0  0
    2.4644   -3.6918    2.2744 H   0  0  0  0  0  0  0  0  0  0  0  0
    5.2638   -3.3010    3.4017 H   0  0  0  0  0  0  0  0  0  0  0  0
    3.5247   -4.2632    5.2593 H   0  0  0  0  0  0  0  0  0  0  0  0
    1.5410   -3.0879    4.1837 H   0  0  0  0  0  0  0  0  0  0  0  0
    1.4210   -2.7701    6.6501 H   0  0  0  0  0  0  0  0  0  0  0  0
    2.2190   -1.2266    6.5165 H   0  0  0  0  0  0  0  0  0  0  0  0
   -1.2995   -2.8070    5.7926 H   0  0  0  0  0  0  0  0  0  0  0  0
   -1.2502    2.3201    4.7665 H   0  0  0  0  0  0  0  0  0  0  0  0
   -2.5861    1.7965    5.8115 H   0  0  0  0  0  0  0  0  0  0  0  0
   -2.5805    1.3794    4.0804 H   0  0  0  0  0  0  0  0  0  0  0  0
    0.7930    0.9272    5.3808 H   0  0  0  0  0  0  0  0  0  0  0  0
    5.9969   -1.1757    3.8572 H   0  0  0  0  0  0  0  0  0  0  0  0
    4.8261    1.0418    3.8744 H   0  0  0  0  0  0  0  0  0  0  0  0
    5.6653    0.7133    5.3842 H   0  0  0  0  0  0  0  0  0  0  0  0
    3.9162    0.5667    5.3089 H   0  0  0  0  0  0  0  0  0  0  0  0
    3.0772   -1.5324    1.0627 H   0  0  0  0  0  0  0  0  0  0  0  0
    3.6867   -0.7136   -1.1132 H   0  0  0  0  0  0  0  0  0  0  0  0
    4.8580   -2.1808   -2.7426 H   0  0  0  0  0  0  0  0  0  0  0  0
    5.4043   -4.4970   -2.1129 H   0  0  0  0  0  0  0  0  0  0  0  0
    5.4240   -6.0475   -0.6708 H   0  0  0  0  0  0  0  0  0  0  0  0
    2.2560   -5.3448   -0.1878 H   0  0  0  0  0  0  0  0  0  0  0  0
    2.8276   -5.5800    3.2694 H   0  0  0  0  0  0  0  0  0  0  0  0
  1  2  1  0
  1 40  1  0
  1 41  1  0
  1 42  1  0
  2  3  1  0
  2 43  1  0
  2 44  1  0
  3 38  1  0
  3  4  1  0
  3 45  1  6
  4  5  2  0
  4  6  1  0
  6 37  1  0
  6  7  1  0
  6 46  1  6
  7  9  1  0
  7  8  1  0
  7 47  1  1
  8  9  1  0
  8 48  1  0
  8 49  1  0
  9 10  1  0
  9 50  1  1
 10 38  1  0
 10 11  1  0
 10 72  1  1
 11 12  1  0
 11 30  1  0
 11 51  1  6
 12 24  1  0
 12 13  1  0
 12 52  1  1
 13 27  1  0
 13 14  1  0
 13 53  1  1
 14 15  1  0
 14 22  1  0
 14 54  1  6
 15 16  1  0
 15 55  1  0
 15 56  1  0
 16 21  2  0
 16 17  1  0
 17 18  2  0
 17 57  1  0
 18 19  1  0
 19 20  1  0
 19 21  1  0
 20 58  1  0
 20 59  1  0
 20 60  1  0
 21 61  1  0
 22 23  2  0
 22 24  1  0
 24 25  1  0
 25 26  1  0
 25 27  1  0
 25 62  1  6
 26 63  1  0
 26 64  1  0
 26 65  1  0
 27 28  2  0
 27 29  2  0
 30 35  2  0
 30 31  1  0
 31 32  2  0
 31 66  1  0
 32 33  1  0
 32 67  1  0
 33 34  2  0
 33 68  1  0
 34 35  1  0
 34 69  1  0
 35 36  1  0
 36 37  1  0
 36 70  1  0
 37 38  1  0
 38 39  1  6
 39 71  1  0
M  CHG  1  10   1
M  END
>  <i_m_ct_stereo_status>  (172) 
1

>  <s_m_source_file>  (172) 
/var/tmp/pbs.5076255.sched01/tmp1pt1fpgk/39zsbf0m6x.sdf

>  <i_m_source_file_index>  (172) 
32

>  <i_lp_mmshare_version>  (172) 
48012

>  <i_f3d_flags>  (172) 
0

>  <s_epik_input>  (172) 
W09IXVtDQEBdMTJOM1tDQEBIXTRbQ0BASF0oW0NIMl00KVtDQEBIXShDKD1PKVtDQEhdMVtDSDJdW0NIM10pTjJbTkhdYzVjKFtjSF1bY0hdW2NIXVtjSF01KVtDQEBIXTNbQ0BIXShbQ0BIXTY3KU4oW0NAQEhdKFtDSDNdKVM3KD1PKT1PKUMoPU8pW0NAQEhdNltDSDJdYzhbY0hdbm4oW0NIM10pW2NIXTg=

>  <s_epik_cmdline>  (172) 
J2VwaWtfcHl0aG9uJywgJy1waHQnLCAnMi4wJywgJy1waCcsICc3LjAnLCAnLXRuJywgJzgnLCAnLW1hJywgJzIwMCcsICctaW1hZScsICc8aW5maWxlLm1hZT4nLCAnLW9tYWUnLCAnPG91dGZpbGUubWFlPic=

>  <r_lp_tautomer_probability>  (172) 
1

>  <r_epik_Ionization_Penalty>  (172) 
1.48941

>  <r_epik_Ionization_Penalty_Charging>  (172) 
1.36264

>  <r_epik_Ionization_Penalty_Neutral>  (172) 
0.126761

>  <r_epik_State_Penalty>  (172) 
1.45281

>  <r_epik_Charging_Adjusted_Penalty>  (172) 
2.81546

>  <i_epik_Tot_Q>  (172) 
1

>  <i_epik_Tot_abs_Q>  (172) 
1

>  <s_lp_Force_Field>  (172) 
OPLS3e

>  <r_lp_Energy>  (172) 
73.4585

>  <b_lp_Chiralities_Consistent>  (172) 
1

>  <s_lp_Variant>  (172) 
56:0-2

>  <s_i_glide_gridfile>  (172) 
pfpi4k_grid

>  <i_i_glide_lignum>  (172) 
32

>  <i_i_glide_rotatable_bonds>  (172) 
5

>  <r_i_docking_score>  (172) 
-2.50702

>  <r_i_glide_ligand_efficiency>  (172) 
-0.0642827

>  <r_i_glide_ligand_efficiency_sa>  (172) 
-0.217996

>  <r_i_glide_ligand_efficiency_ln>  (172) 
-0.537577

>  <r_i_glide_gscore>  (172) 
-2.50702

>  <r_i_glide_lipo>  (172) 
-0.192077

>  <r_i_glide_hbond>  (172) 
-0.0763411

>  <r_i_glide_metal>  (172) 
-0

>  <r_i_glide_rewards>  (172) 
-0.0421402

>  <r_i_glide_evdw>  (172) 
-31.1457

>  <r_i_glide_ecoul>  (172) 
-4.74012

>  <r_i_glide_erotb>  (172) 
0.13045

>  <r_i_glide_esite>  (172) 
-0.0586112

>  <r_i_glide_emodel>  (172) 
-40.1002

>  <r_i_glide_energy>  (172) 
-35.8858

>  <r_i_glide_einternal>  (172) 
3.09609

>  <r_i_glide_intrahb_reward>  (172) 
-0

>  <i_i_glide_confnum>  (172) 
5

>  <i_i_glide_posenum>  (172) 
18

>  <r_i_glide_eff_state_penalty>  (172) 
0

>  <ligand_id>  (172) 
56

>  <original_smiles>  (172) 
CCC1C(=O)C2C3CC3N3C(C4C5C(Cc6cnn(C)c6)C(=O)N4C(C)S5(=O)=O)c4ccccc4NN2C13O

>  <smiles>  (172) 
[H]OC12N3N([H])c4c([H])c([H])c([H])c([H])c4C([H])(C4([H])N5C(=O)C([H])(C([H])([H])c6c([H])nn(C([H])([H])[H])c6[H])C4([H])S(=O)(=O)C5([H])C([H])([H])[H])[N+]1([H])C1([H])C([H])([H])C1([H])C3([H])C(=O)C2([H])C([H])([H])C([H])([H])[H]

$$$$
56:2:0
     RDKit          3D

 71 78  0  0  1  0  0  0  0  0999 V2000
   -0.5131   -8.6687    4.1765 C   0  0  0  0  0  0  0  0  0  0  0  0
    0.3548   -7.4429    3.8060 C   0  0  0  0  0  0  0  0  0  0  0  0
    1.3393   -7.6703    2.6280 C   0  0  2  0  0  0  0  0  0  0  0  0
    2.5132   -8.6125    2.8668 C   0  0  0  0  0  0  0  0  0  0  0  0
    2.4649   -9.6618    3.5122 O   0  0  0  0  0  0  0  0  0  0  0  0
    3.7396   -7.9715    2.2373 C   0  0  2  0  0  0  0  0  0  0  0  0
    4.4701   -7.1518    3.3333 C   0  0  2  0  0  0  0  0  0  0  0  0
    3.9405   -6.8230    4.7264 C   0  0  0  0  0  0  0  0  0  0  0  0
    3.9387   -5.7617    3.6478 C   0  0  2  0  0  0  0  0  0  0  0  0
    2.6259   -5.4068    2.9626 N   0  0  1  0  0  0  0  0  0  0  0  0
    2.6471   -3.9789    2.4354 C   0  0  1  0  0  0  0  0  0  0  0  0
    3.0701   -2.9293    3.5469 C   0  0  2  0  0  0  0  0  0  0  0  0
    2.2215   -2.8715    4.8246 C   0  0  2  0  0  0  0  0  0  0  0  0
    0.9297   -2.2069    4.2816 C   0  0  1  0  0  0  0  0  0  0  0  0
   -0.0242   -1.5275    5.2773 C   0  0  0  0  0  0  0  0  0  0  0  0
   -0.1715   -2.3253    6.5502 C   0  0  0  0  0  0  0  0  0  0  0  0
    0.2170   -1.9249    7.8642 C   0  0  0  0  0  0  0  0  0  0  0  0
   -0.0744   -2.8278    8.7778 N   0  0  0  0  0  0  0  0  0  0  0  0
   -0.5767   -3.8635    8.0823 N   0  0  0  0  0  0  0  0  0  0  0  0
   -0.9641   -5.0598    8.7844 C   0  0  0  0  0  0  0  0  0  0  0  0
   -0.6499   -3.5873    6.7359 C   0  0  0  0  0  0  0  0  0  0  0  0
    1.5696   -1.2556    3.2752 C   0  0  0  0  0  0  0  0  0  0  0  0
    0.9659   -0.3531    2.6899 O   0  0  0  0  0  0  0  0  0  0  0  0
    2.8911   -1.5024    3.2309 N   0  0  0  0  0  0  0  0  0  0  0  0
    3.7057   -0.7608    4.2203 C   0  0  1  0  0  0  0  0  0  0  0  0
    3.4395    0.7644    4.3437 C   0  0  0  0  0  0  0  0  0  0  0  0
    3.3051   -1.6737    5.7678 S   0  0  0  0  0  0  0  0  0  0  0  0
    2.5635   -0.7833    6.6664 O   0  0  0  0  0  0  0  0  0  0  0  0
    4.5020   -2.3997    6.2219 O   0  0  0  0  0  0  0  0  0  0  0  0
    3.3460   -3.7802    1.0665 C   0  0  0  0  0  0  0  0  0  0  0  0
    3.2519   -2.5015    0.4479 C   0  0  0  0  0  0  0  0  0  0  0  0
    3.8351   -2.2076   -0.7906 C   0  0  0  0  0  0  0  0  0  0  0  0
    4.5344   -3.1974   -1.4738 C   0  0  0  0  0  0  0  0  0  0  0  0
    4.6138   -4.4817   -0.9133 C   0  0  0  0  0  0  0  0  0  0  0  0
    4.0014   -4.8068    0.3233 C   0  0  0  0  0  0  0  0  0  0  0  0
    4.1300   -6.1544    0.7089 N   0  0  0  0  0  0  0  0  0  0  0  0
    3.1427   -7.0614    1.2433 N   0  0  0  0  0  0  0  0  0  0  0  0
    2.0412   -6.4333    1.9866 C   0  0  1  0  0  0  0  0  0  0  0  0
    1.1762   -5.8840    1.1674 O   0  0  0  0  0  0  0  0  0  0  0  0
   -1.2105   -8.4124    4.9691 H   0  0  0  0  0  0  0  0  0  0  0  0
    0.0811   -9.5050    4.5397 H   0  0  0  0  0  0  0  0  0  0  0  0
   -1.1014   -9.0281    3.3328 H   0  0  0  0  0  0  0  0  0  0  0  0
   -0.3135   -6.6289    3.5291 H   0  0  0  0  0  0  0  0  0  0  0  0
    0.9035   -7.1210    4.6849 H   0  0  0  0  0  0  0  0  0  0  0  0
    0.7807   -8.1690    1.8379 H   0  0  0  0  0  0  0  0  0  0  0  0
    4.3936   -8.7212    1.7778 H   0  0  0  0  0  0  0  0  0  0  0  0
    5.5464   -7.2319    3.2763 H   0  0  0  0  0  0  0  0  0  0  0  0
    3.0147   -7.2711    5.0924 H   0  0  0  0  0  0  0  0  0  0  0  0
    4.6900   -6.6897    5.4945 H   0  0  0  0  0  0  0  0  0  0  0  0
    4.7035   -4.9927    3.6828 H   0  0  0  0  0  0  0  0  0  0  0  0
    1.6184   -3.7626    2.1896 H   0  0  0  0  0  0  0  0  0  0  0  0
    4.1274   -3.0736    3.7680 H   0  0  0  0  0  0  0  0  0  0  0  0
    2.0866   -3.8085    5.3634 H   0  0  0  0  0  0  0  0  0  0  0  0
    0.3377   -2.9408    3.7284 H   0  0  0  0  0  0  0  0  0  0  0  0
    0.3199   -0.5186    5.4966 H   0  0  0  0  0  0  0  0  0  0  0  0
   -0.9913   -1.3897    4.7905 H   0  0  0  0  0  0  0  0  0  0  0  0
    0.6278   -0.9764    8.1862 H   0  0  0  0  0  0  0  0  0  0  0  0
   -1.3856   -5.7794    8.0813 H   0  0  0  0  0  0  0  0  0  0  0  0
   -1.7113   -4.8114    9.5395 H   0  0  0  0  0  0  0  0  0  0  0  0
   -0.0929   -5.5038    9.2706 H   0  0  0  0  0  0  0  0  0  0  0  0
   -1.0378   -4.3253    6.0428 H   0  0  0  0  0  0  0  0  0  0  0  0
    4.7659   -0.9102    4.0221 H   0  0  0  0  0  0  0  0  0  0  0  0
    3.6027    1.2631    3.3882 H   0  0  0  0  0  0  0  0  0  0  0  0
    4.1143    1.2199    5.0697 H   0  0  0  0  0  0  0  0  0  0  0  0
    2.4223    0.9996    4.6690 H   0  0  0  0  0  0  0  0  0  0  0  0
    2.6730   -1.6963    0.8646 H   0  0  0  0  0  0  0  0  0  0  0  0
    3.7017   -1.2210   -1.2081 H   0  0  0  0  0  0  0  0  0  0  0  0
    4.9406   -2.9851   -2.4478 H   0  0  0  0  0  0  0  0  0  0  0  0
    5.1116   -5.2370   -1.4879 H   0  0  0  0  0  0  0  0  0  0  0  0
    4.6572   -6.6301   -0.0141 H   0  0  0  0  0  0  0  0  0  0  0  0
    1.9271   -5.3844    3.7009 H   0  0  0  0  0  0  0  0  0  0  0  0
  1  2  1  0
  1 40  1  0
  1 41  1  0
  1 42  1  0
  2  3  1  0
  2 43  1  0
  2 44  1  0
  3 38  1  0
  3  4  1  0
  3 45  1  6
  4  5  2  0
  4  6  1  0
  6 37  1  0
  6  7  1  0
  6 46  1  6
  7  9  1  0
  7  8  1  0
  7 47  1  1
  8  9  1  0
  8 48  1  0
  8 49  1  0
  9 10  1  0
  9 50  1  1
 10 38  1  0
 10 11  1  0
 10 71  1  1
 11 12  1  0
 11 30  1  0
 11 51  1  6
 12 24  1  0
 12 13  1  0
 12 52  1  1
 13 27  1  0
 13 14  1  0
 13 53  1  1
 14 15  1  0
 14 22  1  0
 14 54  1  6
 15 16  1  0
 15 55  1  0
 15 56  1  0
 16 21  2  0
 16 17  1  0
 17 18  2  0
 17 57  1  0
 18 19  1  0
 19 20  1  0
 19 21  1  0
 20 58  1  0
 20 59  1  0
 20 60  1  0
 21 61  1  0
 22 23  2  0
 22 24  1  0
 24 25  1  0
 25 26  1  0
 25 27  1  0
 25 62  1  6
 26 63  1  0
 26 64  1  0
 26 65  1  0
 27 28  2  0
 27 29  2  0
 30 35  2  0
 30 31  1  0
 31 32  2  0
 31 66  1  0
 32 33  1  0
 32 67  1  0
 33 34  2  0
 33 68  1  0
 34 35  1  0
 34 69  1  0
 35 36  1  0
 36 37  1  0
 36 70  1  0
 37 38  1  0
 38 39  1  6
M  CHG  2  10   1  39  -1
M  END
>  <i_m_ct_stereo_status>  (173) 
1

>  <s_m_source_file>  (173) 
/var/tmp/pbs.5076255.sched01/tmp1pt1fpgk/39zsbf0m6x.sdf

>  <i_m_source_file_index>  (173) 
33

>  <i_lp_mmshare_version>  (173) 
48012

>  <i_f3d_flags>  (173) 
0

>  <s_epik_input>  (173) 
W09IXVtDQEBdMTJOM1tDQEBIXTRbQ0BASF0oW0NIMl00KVtDQEBIXShDKD1PKVtDQEhdMVtDSDJdW0NIM10pTjJbTkhdYzVjKFtjSF1bY0hdW2NIXVtjSF01KVtDQEBIXTNbQ0BIXShbQ0BIXTY3KU4oW0NAQEhdKFtDSDNdKVM3KD1PKT1PKUMoPU8pW0NAQEhdNltDSDJdYzhbY0hdbm4oW0NIM10pW2NIXTg=

>  <s_epik_cmdline>  (173) 
J2VwaWtfcHl0aG9uJywgJy1waHQnLCAnMi4wJywgJy1waCcsICc3LjAnLCAnLXRuJywgJzgnLCAnLW1hJywgJzIwMCcsICctaW1hZScsICc8aW5maWxlLm1hZT4nLCAnLW9tYWUnLCAnPG91dGZpbGUubWFlPic=

>  <r_epik_Ionization_Penalty>  (173) 
0.982567

>  <r_epik_Ionization_Penalty_Charging>  (173) 
0.982286

>  <r_epik_Ionization_Penalty_Neutral>  (173) 
0.000280822

>  <r_epik_State_Penalty>  (173) 
2.35965

>  <r_epik_Charging_Adjusted_Penalty>  (173) 
3.34194

>  <i_epik_Tot_Q>  (173) 
0

>  <i_epik_Tot_abs_Q>  (173) 
2

>  <s_lp_Force_Field>  (173) 
OPLS3e

>  <r_lp_Energy>  (173) 
88.1829

>  <b_lp_Chiralities_Consistent>  (173) 
1

>  <s_lp_Variant>  (173) 
56:0-3

>  <s_i_glide_gridfile>  (173) 
pfpi4k_grid

>  <i_i_glide_lignum>  (173) 
33

>  <i_i_glide_rotatable_bonds>  (173) 
4

>  <r_i_docking_score>  (173) 
-2.80633

>  <r_i_glide_ligand_efficiency>  (173) 
-0.0719571

>  <r_i_glide_ligand_efficiency_sa>  (173) 
-0.244022

>  <r_i_glide_ligand_efficiency_ln>  (173) 
-0.601757

>  <r_i_glide_gscore>  (173) 
-2.80633

>  <r_i_glide_lipo>  (173) 
-0.0327734

>  <r_i_glide_hbond>  (173) 
-0.342036

>  <r_i_glide_metal>  (173) 
-0

>  <r_i_glide_rewards>  (173) 
0

>  <r_i_glide_evdw>  (173) 
-27.0231

>  <r_i_glide_ecoul>  (173) 
-7.53829

>  <r_i_glide_erotb>  (173) 
0.132259

>  <r_i_glide_esite>  (173) 
-0.0818791

>  <r_i_glide_emodel>  (173) 
-40.2489

>  <r_i_glide_energy>  (173) 
-34.5614

>  <r_i_glide_einternal>  (173) 
1.02649

>  <r_i_glide_intrahb_reward>  (173) 
-0

>  <i_i_glide_confnum>  (173) 
5

>  <i_i_glide_posenum>  (173) 
22

>  <r_i_glide_eff_state_penalty>  (173) 
0

>  <ligand_id>  (173) 
56

>  <original_smiles>  (173) 
CCC1C(=O)C2C3CC3N3C(C4C5C(Cc6cnn(C)c6)C(=O)N4C(C)S5(=O)=O)c4ccccc4NN2C13O

>  <smiles>  (173) 
[H]c1nn(C([H])([H])[H])c([H])c1C([H])([H])C1([H])C(=O)N2C([H])(C3([H])c4c([H])c([H])c([H])c([H])c4N([H])N4C5([H])C(=O)C([H])(C([H])([H])C([H])([H])[H])C4([O-])[N+]3([H])C3([H])C([H])([H])C53[H])C1([H])S(=O)(=O)C2([H])C([H])([H])[H]

$$$$
56:2:1
     RDKit          3D

 71 78  0  0  1  0  0  0  0  0999 V2000
   -0.3014   -7.1098    2.8274 C   0  0  0  0  0  0  0  0  0  0  0  0
    1.1875   -7.2888    3.1792 C   0  0  0  0  0  0  0  0  0  0  0  0
    2.1199   -7.4002    1.9427 C   0  0  2  0  0  0  0  0  0  0  0  0
    3.3888   -8.2273    2.1168 C   0  0  0  0  0  0  0  0  0  0  0  0
    3.4578   -9.2786    2.7537 O   0  0  0  0  0  0  0  0  0  0  0  0
    4.5264   -7.4683    1.4477 C   0  0  2  0  0  0  0  0  0  0  0  0
    5.2066   -6.5855    2.5216 C   0  0  2  0  0  0  0  0  0  0  0  0
    4.7004   -6.3275    3.9357 C   0  0  0  0  0  0  0  0  0  0  0  0
    4.5535   -5.2592    2.8742 C   0  0  2  0  0  0  0  0  0  0  0  0
    3.1876   -5.0291    2.2459 N   0  0  1  0  0  0  0  0  0  0  0  0
    3.0345   -3.6094    1.7445 C   0  0  1  0  0  0  0  0  0  0  0  0
    3.3983   -2.5303    2.8540 C   0  0  2  0  0  0  0  0  0  0  0  0
    2.6217   -2.5979    4.1769 C   0  0  2  0  0  0  0  0  0  0  0  0
    1.2333   -2.0776    3.7160 C   0  0  1  0  0  0  0  0  0  0  0  0
    0.2627   -1.5315    4.7705 C   0  0  0  0  0  0  0  0  0  0  0  0
    0.1157   -2.4820    5.9275 C   0  0  0  0  0  0  0  0  0  0  0  0
    0.2109   -2.1648    7.3119 C   0  0  0  0  0  0  0  0  0  0  0  0
   -0.0079   -3.2116    8.0920 N   0  0  0  0  0  0  0  0  0  0  0  0
   -0.1751   -4.2400    7.2373 N   0  0  0  0  0  0  0  0  0  0  0  0
   -0.3922   -5.5689    7.7606 C   0  0  0  0  0  0  0  0  0  0  0  0
   -0.1103   -3.8295    5.9240 C   0  0  0  0  0  0  0  0  0  0  0  0
    1.6999   -1.0404    2.7015 C   0  0  0  0  0  0  0  0  0  0  0  0
    0.9656   -0.1973    2.1881 O   0  0  0  0  0  0  0  0  0  0  0  0
    3.0374   -1.1271    2.5841 N   0  0  0  0  0  0  0  0  0  0  0  0
    3.7995   -0.3136    3.5577 C   0  0  1  0  0  0  0  0  0  0  0  0
    3.3702    1.1689    3.7151 C   0  0  0  0  0  0  0  0  0  0  0  0
    3.5954   -1.3038    5.1026 S   0  0  0  0  0  0  0  0  0  0  0  0
    2.7805   -0.5749    6.0836 O   0  0  0  0  0  0  0  0  0  0  0  0
    4.8976   -1.8782    5.4674 O   0  0  0  0  0  0  0  0  0  0  0  0
    3.6547   -3.3246    0.3526 C   0  0  0  0  0  0  0  0  0  0  0  0
    3.4164   -2.0513   -0.2353 C   0  0  0  0  0  0  0  0  0  0  0  0
    3.9030   -1.6900   -1.4999 C   0  0  0  0  0  0  0  0  0  0  0  0
    4.6591   -2.5988   -2.2307 C   0  0  0  0  0  0  0  0  0  0  0  0
    4.8813   -3.8760   -1.6990 C   0  0  0  0  0  0  0  0  0  0  0  0
    4.3775   -4.2695   -0.4321 C   0  0  0  0  0  0  0  0  0  0  0  0
    4.6651   -5.5997   -0.0614 N   0  0  0  0  0  0  0  0  0  0  0  0
    3.8020   -6.6106    0.4820 N   0  0  0  0  0  0  0  0  0  0  0  0
    2.6781   -6.1067    1.2906 C   0  0  1  0  0  0  0  0  0  0  0  0
    1.7235   -5.6563    0.5074 O   0  0  0  0  0  0  0  0  0  0  0  0
   -0.8822   -6.9412    3.7316 H   0  0  0  0  0  0  0  0  0  0  0  0
   -0.7202   -7.9886    2.3331 H   0  0  0  0  0  0  0  0  0  0  0  0
   -0.4476   -6.2600    2.1633 H   0  0  0  0  0  0  0  0  0  0  0  0
    1.5127   -6.4606    3.8004 H   0  0  0  0  0  0  0  0  0  0  0  0
    1.2737   -8.1951    3.7876 H   0  0  0  0  0  0  0  0  0  0  0  0
    1.5867   -7.9752    1.1858 H   0  0  0  0  0  0  0  0  0  0  0  0
    5.2294   -8.1455    0.9502 H   0  0  0  0  0  0  0  0  0  0  0  0
    6.2822   -6.5535    2.4195 H   0  0  0  0  0  0  0  0  0  0  0  0
    3.8309   -6.8632    4.3288 H   0  0  0  0  0  0  0  0  0  0  0  0
    5.4653   -6.1294    4.6738 H   0  0  0  0  0  0  0  0  0  0  0  0
    5.2403   -4.4183    2.8945 H   0  0  0  0  0  0  0  0  0  0  0  0
    1.9794   -3.5020    1.5421 H   0  0  0  0  0  0  0  0  0  0  0  0
    4.4762   -2.5521    3.0161 H   0  0  0  0  0  0  0  0  0  0  0  0
    2.6276   -3.5504    4.7053 H   0  0  0  0  0  0  0  0  0  0  0  0
    0.6990   -2.8635    3.1766 H   0  0  0  0  0  0  0  0  0  0  0  0
    0.5737   -0.5465    5.1112 H   0  0  0  0  0  0  0  0  0  0  0  0
   -0.7032   -1.3504    4.2995 H   0  0  0  0  0  0  0  0  0  0  0  0
    0.3960   -1.2019    7.7658 H   0  0  0  0  0  0  0  0  0  0  0  0
   -0.5396   -6.2704    6.9387 H   0  0  0  0  0  0  0  0  0  0  0  0
   -1.2790   -5.5739    8.3945 H   0  0  0  0  0  0  0  0  0  0  0  0
    0.4715   -5.8912    8.3450 H   0  0  0  0  0  0  0  0  0  0  0  0
   -0.2293   -4.5295    5.1075 H   0  0  0  0  0  0  0  0  0  0  0  0
    4.8558   -0.3349    3.2933 H   0  0  0  0  0  0  0  0  0  0  0  0
    3.4133    1.6897    2.7566 H   0  0  0  0  0  0  0  0  0  0  0  0
    4.0363    1.6938    4.4007 H   0  0  0  0  0  0  0  0  0  0  0  0
    2.3551    1.2780    4.1039 H   0  0  0  0  0  0  0  0  0  0  0  0
    2.7741   -1.3193    0.2196 H   0  0  0  0  0  0  0  0  0  0  0  0
    3.6522   -0.7165   -1.8942 H   0  0  0  0  0  0  0  0  0  0  0  0
    4.9967   -2.3342   -3.2196 H   0  0  0  0  0  0  0  0  0  0  0  0
    5.4200   -4.5747   -2.3079 H   0  0  0  0  0  0  0  0  0  0  0  0
    5.1955   -6.0042   -0.8239 H   0  0  0  0  0  0  0  0  0  0  0  0
    2.5245   -5.0932    3.0109 H   0  0  0  0  0  0  0  0  0  0  0  0
  1  2  1  0
  1 40  1  0
  1 41  1  0
  1 42  1  0
  2  3  1  0
  2 43  1  0
  2 44  1  0
  3 38  1  0
  3  4  1  0
  3 45  1  6
  4  5  2  0
  4  6  1  0
  6 37  1  0
  6  7  1  0
  6 46  1  6
  7  9  1  0
  7  8  1  0
  7 47  1  1
  8  9  1  0
  8 48  1  0
  8 49  1  0
  9 10  1  0
  9 50  1  1
 10 38  1  0
 10 11  1  0
 10 71  1  1
 11 12  1  0
 11 30  1  0
 11 51  1  6
 12 24  1  0
 12 13  1  0
 12 52  1  1
 13 27  1  0
 13 14  1  0
 13 53  1  1
 14 15  1  0
 14 22  1  0
 14 54  1  6
 15 16  1  0
 15 55  1  0
 15 56  1  0
 16 21  2  0
 16 17  1  0
 17 18  2  0
 17 57  1  0
 18 19  1  0
 19 20  1  0
 19 21  1  0
 20 58  1  0
 20 59  1  0
 20 60  1  0
 21 61  1  0
 22 23  2  0
 22 24  1  0
 24 25  1  0
 25 26  1  0
 25 27  1  0
 25 62  1  6
 26 63  1  0
 26 64  1  0
 26 65  1  0
 27 28  2  0
 27 29  2  0
 30 35  2  0
 30 31  1  0
 31 32  2  0
 31 66  1  0
 32 33  1  0
 32 67  1  0
 33 34  2  0
 33 68  1  0
 34 35  1  0
 34 69  1  0
 35 36  1  0
 36 37  1  0
 36 70  1  0
 37 38  1  0
 38 39  1  6
M  CHG  2  10   1  39  -1
M  END
>  <i_m_ct_stereo_status>  (174) 
1

>  <s_m_source_file>  (174) 
/var/tmp/pbs.5076255.sched01/tmp1pt1fpgk/39zsbf0m6x.sdf

>  <i_m_source_file_index>  (174) 
33

>  <i_lp_mmshare_version>  (174) 
48012

>  <i_f3d_flags>  (174) 
0

>  <s_epik_input>  (174) 
W09IXVtDQEBdMTJOM1tDQEBIXTRbQ0BASF0oW0NIMl00KVtDQEBIXShDKD1PKVtDQEhdMVtDSDJdW0NIM10pTjJbTkhdYzVjKFtjSF1bY0hdW2NIXVtjSF01KVtDQEBIXTNbQ0BIXShbQ0BIXTY3KU4oW0NAQEhdKFtDSDNdKVM3KD1PKT1PKUMoPU8pW0NAQEhdNltDSDJdYzhbY0hdbm4oW0NIM10pW2NIXTg=

>  <s_epik_cmdline>  (174) 
J2VwaWtfcHl0aG9uJywgJy1waHQnLCAnMi4wJywgJy1waCcsICc3LjAnLCAnLXRuJywgJzgnLCAnLW1hJywgJzIwMCcsICctaW1hZScsICc8aW5maWxlLm1hZT4nLCAnLW9tYWUnLCAnPG91dGZpbGUubWFlPic=

>  <r_epik_Ionization_Penalty>  (174) 
0.982567

>  <r_epik_Ionization_Penalty_Charging>  (174) 
0.982286

>  <r_epik_Ionization_Penalty_Neutral>  (174) 
0.000280822

>  <r_epik_State_Penalty>  (174) 
2.35965

>  <r_epik_Charging_Adjusted_Penalty>  (174) 
3.34194

>  <i_epik_Tot_Q>  (174) 
0

>  <i_epik_Tot_abs_Q>  (174) 
2

>  <s_lp_Force_Field>  (174) 
OPLS3e

>  <r_lp_Energy>  (174) 
88.1829

>  <b_lp_Chiralities_Consistent>  (174) 
1

>  <s_lp_Variant>  (174) 
56:0-3

>  <s_i_glide_gridfile>  (174) 
pfpi4k_grid

>  <i_i_glide_lignum>  (174) 
33

>  <i_i_glide_rotatable_bonds>  (174) 
4

>  <r_i_docking_score>  (174) 
-2.58265

>  <r_i_glide_ligand_efficiency>  (174) 
-0.0662218

>  <r_i_glide_ligand_efficiency_sa>  (174) 
-0.224572

>  <r_i_glide_ligand_efficiency_ln>  (174) 
-0.553793

>  <r_i_glide_gscore>  (174) 
-2.58265

>  <r_i_glide_lipo>  (174) 
-0.212975

>  <r_i_glide_hbond>  (174) 
-0.144922

>  <r_i_glide_metal>  (174) 
-0

>  <r_i_glide_rewards>  (174) 
0

>  <r_i_glide_evdw>  (174) 
-31.2505

>  <r_i_glide_ecoul>  (174) 
-4.90906

>  <r_i_glide_erotb>  (174) 
0.132259

>  <r_i_glide_esite>  (174) 
-0.0581266

>  <r_i_glide_emodel>  (174) 
-40.8464

>  <r_i_glide_energy>  (174) 
-36.1596

>  <r_i_glide_einternal>  (174) 
2.94313

>  <r_i_glide_intrahb_reward>  (174) 
-0

>  <i_i_glide_confnum>  (174) 
5

>  <i_i_glide_posenum>  (174) 
9

>  <r_i_glide_eff_state_penalty>  (174) 
0

>  <ligand_id>  (174) 
56

>  <original_smiles>  (174) 
CCC1C(=O)C2C3CC3N3C(C4C5C(Cc6cnn(C)c6)C(=O)N4C(C)S5(=O)=O)c4ccccc4NN2C13O

>  <smiles>  (174) 
[H]c1nn(C([H])([H])[H])c([H])c1C([H])([H])C1([H])C(=O)N2C([H])(C3([H])c4c([H])c([H])c([H])c([H])c4N([H])N4C5([H])C(=O)C([H])(C([H])([H])C([H])([H])[H])C4([O-])[N+]3([H])C3([H])C([H])([H])C53[H])C1([H])S(=O)(=O)C2([H])C([H])([H])[H]

$$$$
56:2:2
     RDKit          3D

 71 78  0  0  1  0  0  0  0  0999 V2000
   -1.5549   -8.5506    3.6272 C   0  0  0  0  0  0  0  0  0  0  0  0
   -0.2411   -7.7475    3.6848 C   0  0  0  0  0  0  0  0  0  0  0  0
    0.7044   -7.9736    2.4866 C   0  0  2  0  0  0  0  0  0  0  0  0
    1.5533   -9.2418    2.4867 C   0  0  0  0  0  0  0  0  0  0  0  0
    1.1650  -10.3447    2.8749 O   0  0  0  0  0  0  0  0  0  0  0  0
    2.9454   -8.8561    2.0085 C   0  0  2  0  0  0  0  0  0  0  0  0
    3.8177   -8.5363    3.2400 C   0  0  2  0  0  0  0  0  0  0  0  0
    3.3309   -8.3912    4.6698 C   0  0  0  0  0  0  0  0  0  0  0  0
    3.6752   -7.1543    3.8720 C   0  0  2  0  0  0  0  0  0  0  0  0
    2.5403   -6.2974    3.3247 N   0  0  1  0  0  0  0  0  0  0  0  0
    2.9831   -4.8564    3.1258 C   0  0  1  0  0  0  0  0  0  0  0  0
    3.6263   -4.2499    4.4448 C   0  0  2  0  0  0  0  0  0  0  0  0
    2.7381   -4.1943    5.6984 C   0  0  2  0  0  0  0  0  0  0  0  0
    1.7650   -3.0496    5.3035 C   0  0  1  0  0  0  0  0  0  0  0  0
    0.9950   -2.3305    6.4250 C   0  0  0  0  0  0  0  0  0  0  0  0
   -0.1050   -1.4598    5.8815 C   0  0  0  0  0  0  0  0  0  0  0  0
   -1.4641   -1.8200    5.6803 C   0  0  0  0  0  0  0  0  0  0  0  0
   -2.1862   -0.8142    5.2202 N   0  0  0  0  0  0  0  0  0  0  0  0
   -1.3146    0.1989    5.0641 N   0  0  0  0  0  0  0  0  0  0  0  0
   -1.7708    1.4697    4.5384 C   0  0  0  0  0  0  0  0  0  0  0  0
   -0.0478   -0.1648    5.4655 C   0  0  0  0  0  0  0  0  0  0  0  0
    2.7578   -2.1741    4.5432 C   0  0  0  0  0  0  0  0  0  0  0  0
    2.5295   -1.0263    4.1455 O   0  0  0  0  0  0  0  0  0  0  0  0
    3.9292   -2.8074    4.4592 N   0  0  0  0  0  0  0  0  0  0  0  0
    4.8357   -2.5858    5.6092 C   0  0  1  0  0  0  0  0  0  0  0  0
    5.0492   -1.1172    6.0500 C   0  0  0  0  0  0  0  0  0  0  0  0
    4.0494   -3.6441    6.9020 S   0  0  0  0  0  0  0  0  0  0  0  0
    3.4996   -2.8189    7.9917 O   0  0  0  0  0  0  0  0  0  0  0  0
    4.9352   -4.7769    7.1769 O   0  0  0  0  0  0  0  0  0  0  0  0
    3.7708   -4.5465    1.8239 C   0  0  0  0  0  0  0  0  0  0  0  0
    4.0629   -3.1893    1.5083 C   0  0  0  0  0  0  0  0  0  0  0  0
    4.7643   -2.7964    0.3639 C   0  0  0  0  0  0  0  0  0  0  0  0
    5.1912   -3.7624   -0.5463 C   0  0  0  0  0  0  0  0  0  0  0  0
    4.8686   -5.1067   -0.3001 C   0  0  0  0  0  0  0  0  0  0  0  0
    4.1451   -5.5228    0.8429 C   0  0  0  0  0  0  0  0  0  0  0  0
    3.8835   -6.9001    0.9268 N   0  0  0  0  0  0  0  0  0  0  0  0
    2.6711   -7.6035    1.2817 N   0  0  0  0  0  0  0  0  0  0  0  0
    1.7504   -6.8812    2.1532 C   0  0  1  0  0  0  0  0  0  0  0  0
    1.1270   -5.9595    1.4531 O   0  0  0  0  0  0  0  0  0  0  0  0
   -2.1750   -8.3137    4.4879 H   0  0  0  0  0  0  0  0  0  0  0  0
   -1.3648   -9.6210    3.6499 H   0  0  0  0  0  0  0  0  0  0  0  0
   -2.1420   -8.3341    2.7352 H   0  0  0  0  0  0  0  0  0  0  0  0
   -0.4836   -6.6873    3.7312 H   0  0  0  0  0  0  0  0  0  0  0  0
    0.2803   -8.0082    4.6005 H   0  0  0  0  0  0  0  0  0  0  0  0
    0.0803   -8.1010    1.5998 H   0  0  0  0  0  0  0  0  0  0  0  0
    3.3881   -9.6131    1.3491 H   0  0  0  0  0  0  0  0  0  0  0  0
    4.8328   -8.8909    3.1344 H   0  0  0  0  0  0  0  0  0  0  0  0
    2.3023   -8.6413    4.9329 H   0  0  0  0  0  0  0  0  0  0  0  0
    4.0568   -8.6591    5.4285 H   0  0  0  0  0  0  0  0  0  0  0  0
    4.6327   -6.6699    4.0503 H   0  0  0  0  0  0  0  0  0  0  0  0
    2.0660   -4.3146    2.9391 H   0  0  0  0  0  0  0  0  0  0  0  0
    4.5741   -4.7536    4.6379 H   0  0  0  0  0  0  0  0  0  0  0  0
    2.2799   -5.1333    6.0095 H   0  0  0  0  0  0  0  0  0  0  0  0
    1.0189   -3.4314    4.6004 H   0  0  0  0  0  0  0  0  0  0  0  0
    0.5792   -3.0908    7.0848 H   0  0  0  0  0  0  0  0  0  0  0  0
    1.6535   -1.7102    7.0284 H   0  0  0  0  0  0  0  0  0  0  0  0
   -1.9471   -2.7605    5.8865 H   0  0  0  0  0  0  0  0  0  0  0  0
   -0.9413    2.1757    4.5026 H   0  0  0  0  0  0  0  0  0  0  0  0
   -2.5505    1.8806    5.1789 H   0  0  0  0  0  0  0  0  0  0  0  0
   -2.1639    1.3461    3.5287 H   0  0  0  0  0  0  0  0  0  0  0  0
    0.7819    0.5305    5.4115 H   0  0  0  0  0  0  0  0  0  0  0  0
    5.8073   -3.0185    5.3745 H   0  0  0  0  0  0  0  0  0  0  0  0
    5.4264   -0.5132    5.2213 H   0  0  0  0  0  0  0  0  0  0  0  0
    5.7821   -1.0588    6.8548 H   0  0  0  0  0  0  0  0  0  0  0  0
    4.1332   -0.6445    6.4130 H   0  0  0  0  0  0  0  0  0  0  0  0
    3.7150   -2.3693    2.1120 H   0  0  0  0  0  0  0  0  0  0  0  0
    4.9427   -1.7455    0.2020 H   0  0  0  0  0  0  0  0  0  0  0  0
    5.6946   -3.4483   -1.4447 H   0  0  0  0  0  0  0  0  0  0  0  0
    5.1758   -5.8227   -1.0486 H   0  0  0  0  0  0  0  0  0  0  0  0
    4.2833   -7.3350    0.1113 H   0  0  0  0  0  0  0  0  0  0  0  0
    1.8425   -6.2511    4.0513 H   0  0  0  0  0  0  0  0  0  0  0  0
  1  2  1  0
  1 40  1  0
  1 41  1  0
  1 42  1  0
  2  3  1  0
  2 43  1  0
  2 44  1  0
  3 38  1  0
  3  4  1  0
  3 45  1  6
  4  5  2  0
  4  6  1  0
  6 37  1  0
  6  7  1  0
  6 46  1  6
  7  9  1  0
  7  8  1  0
  7 47  1  1
  8  9  1  0
  8 48  1  0
  8 49  1  0
  9 10  1  0
  9 50  1  1
 10 38  1  0
 10 11  1  0
 10 71  1  1
 11 12  1  0
 11 30  1  0
 11 51  1  6
 12 24  1  0
 12 13  1  0
 12 52  1  1
 13 27  1  0
 13 14  1  0
 13 53  1  1
 14 15  1  0
 14 22  1  0
 14 54  1  6
 15 16  1  0
 15 55  1  0
 15 56  1  0
 16 21  2  0
 16 17  1  0
 17 18  2  0
 17 57  1  0
 18 19  1  0
 19 20  1  0
 19 21  1  0
 20 58  1  0
 20 59  1  0
 20 60  1  0
 21 61  1  0
 22 23  2  0
 22 24  1  0
 24 25  1  0
 25 26  1  0
 25 27  1  0
 25 62  1  6
 26 63  1  0
 26 64  1  0
 26 65  1  0
 27 28  2  0
 27 29  2  0
 30 35  2  0
 30 31  1  0
 31 32  2  0
 31 66  1  0
 32 33  1  0
 32 67  1  0
 33 34  2  0
 33 68  1  0
 34 35  1  0
 34 69  1  0
 35 36  1  0
 36 37  1  0
 36 70  1  0
 37 38  1  0
 38 39  1  6
M  CHG  2  10   1  39  -1
M  END
>  <i_m_ct_stereo_status>  (175) 
1

>  <s_m_source_file>  (175) 
/var/tmp/pbs.5076255.sched01/tmp1pt1fpgk/39zsbf0m6x.sdf

>  <i_m_source_file_index>  (175) 
33

>  <i_lp_mmshare_version>  (175) 
48012

>  <i_f3d_flags>  (175) 
0

>  <s_epik_input>  (175) 
W09IXVtDQEBdMTJOM1tDQEBIXTRbQ0BASF0oW0NIMl00KVtDQEBIXShDKD1PKVtDQEhdMVtDSDJdW0NIM10pTjJbTkhdYzVjKFtjSF1bY0hdW2NIXVtjSF01KVtDQEBIXTNbQ0BIXShbQ0BIXTY3KU4oW0NAQEhdKFtDSDNdKVM3KD1PKT1PKUMoPU8pW0NAQEhdNltDSDJdYzhbY0hdbm4oW0NIM10pW2NIXTg=

>  <s_epik_cmdline>  (175) 
J2VwaWtfcHl0aG9uJywgJy1waHQnLCAnMi4wJywgJy1waCcsICc3LjAnLCAnLXRuJywgJzgnLCAnLW1hJywgJzIwMCcsICctaW1hZScsICc8aW5maWxlLm1hZT4nLCAnLW9tYWUnLCAnPG91dGZpbGUubWFlPic=

>  <r_epik_Ionization_Penalty>  (175) 
0.982567

>  <r_epik_Ionization_Penalty_Charging>  (175) 
0.982286

>  <r_epik_Ionization_Penalty_Neutral>  (175) 
0.000280822

>  <r_epik_State_Penalty>  (175) 
2.35965

>  <r_epik_Charging_Adjusted_Penalty>  (175) 
3.34194

>  <i_epik_Tot_Q>  (175) 
0

>  <i_epik_Tot_abs_Q>  (175) 
2

>  <s_lp_Force_Field>  (175) 
OPLS3e

>  <r_lp_Energy>  (175) 
88.1829

>  <b_lp_Chiralities_Consistent>  (175) 
1

>  <s_lp_Variant>  (175) 
56:0-3

>  <s_i_glide_gridfile>  (175) 
pfpi4k_grid

>  <i_i_glide_lignum>  (175) 
33

>  <i_i_glide_rotatable_bonds>  (175) 
4

>  <r_i_docking_score>  (175) 
-2.48327

>  <r_i_glide_ligand_efficiency>  (175) 
-0.0636735

>  <r_i_glide_ligand_efficiency_sa>  (175) 
-0.21593

>  <r_i_glide_ligand_efficiency_ln>  (175) 
-0.532483

>  <r_i_glide_gscore>  (175) 
-2.48327

>  <r_i_glide_lipo>  (175) 
-0.162502

>  <r_i_glide_hbond>  (175) 
-0.18973

>  <r_i_glide_metal>  (175) 
-0

>  <r_i_glide_rewards>  (175) 
-0.0718069

>  <r_i_glide_evdw>  (175) 
-28.3796

>  <r_i_glide_ecoul>  (175) 
-4.73037

>  <r_i_glide_erotb>  (175) 
0.132259

>  <r_i_glide_esite>  (175) 
-0.0629496

>  <r_i_glide_emodel>  (175) 
-38.1573

>  <r_i_glide_energy>  (175) 
-33.11

>  <r_i_glide_einternal>  (175) 
1.29411

>  <r_i_glide_intrahb_reward>  (175) 
-0

>  <i_i_glide_confnum>  (175) 
5

>  <i_i_glide_posenum>  (175) 
29

>  <r_i_glide_eff_state_penalty>  (175) 
0

>  <ligand_id>  (175) 
56

>  <original_smiles>  (175) 
CCC1C(=O)C2C3CC3N3C(C4C5C(Cc6cnn(C)c6)C(=O)N4C(C)S5(=O)=O)c4ccccc4NN2C13O

>  <smiles>  (175) 
[H]c1nn(C([H])([H])[H])c([H])c1C([H])([H])C1([H])C(=O)N2C([H])(C3([H])c4c([H])c([H])c([H])c([H])c4N([H])N4C5([H])C(=O)C([H])(C([H])([H])C([H])([H])[H])C4([O-])[N+]3([H])C3([H])C([H])([H])C53[H])C1([H])S(=O)(=O)C2([H])C([H])([H])[H]

$$$$
57:0:0
     RDKit          3D

 69 74  0  0  1  0  0  0  0  0999 V2000
   -2.8369    3.3344    9.6696 C   0  0  0  0  0  0  0  0  0  0  0  0
   -2.1837    2.5500    8.8074 C   0  0  0  0  0  0  0  0  0  0  0  0
   -2.2763    2.7060    7.3009 C   0  0  0  0  0  0  0  0  0  0  0  0
   -0.9973    2.6431    6.6789 O   0  0  0  0  0  0  0  0  0  0  0  0
   -0.5048    1.4460    6.2654 C   0  0  0  0  0  0  0  0  0  0  0  0
   -1.1091    0.3888    6.3555 O   0  0  0  0  0  0  0  0  0  0  0  0
    0.9047    1.5682    5.6272 C   0  0  2  0  0  0  0  0  0  0  0  0
    0.7759    2.2521    4.2557 C   0  0  0  0  0  0  0  0  0  0  0  0
    0.5880    1.1256    3.2415 C   0  0  1  0  0  0  0  0  0  0  0  0
    1.1960    1.5171    2.0268 O   0  0  0  0  0  0  0  0  0  0  0  0
    1.1596   -0.1557    3.9115 C   0  0  1  0  0  0  0  0  0  0  0  0
    2.1783   -1.0331    3.1373 C   0  0  1  0  0  0  0  0  0  0  0  0
    1.8368   -1.5848    1.7464 C   0  0  0  0  0  0  0  0  0  0  0  0
    3.0756   -1.2718    0.8969 C   0  0  2  0  0  0  0  0  0  0  0  0
    3.4083   -2.1770   -0.1670 O   0  0  0  0  0  0  0  0  0  0  0  0
    4.6008   -1.8699   -0.8662 C   0  0  1  0  0  0  0  0  0  0  0  0
    4.8365   -2.9868   -1.9012 C   0  0  0  0  0  0  0  0  0  0  0  0
    4.1139   -2.4870   -3.1355 C   0  0  1  0  0  0  0  0  0  0  0  0
    2.7016   -3.0549   -3.3009 C   0  0  0  0  0  0  0  0  0  0  0  0
    4.0980   -0.9989   -2.8956 C   0  0  0  0  0  0  0  0  0  0  0  0
    3.8142   -0.1895   -3.7794 O   0  0  0  0  0  0  0  0  0  0  0  0
    4.4584   -0.7020   -1.6361 O   0  0  0  0  0  0  0  0  0  0  0  0
    5.7806   -1.6600    0.1684 C   0  0  1  0  0  0  0  0  0  0  0  0
    5.3659   -0.4908    1.0956 C   0  0  0  0  0  0  0  0  0  0  0  0
    4.2419   -1.1576    1.8873 C   0  0  2  0  0  0  0  0  0  0  0  0
    4.8247   -2.5281    2.1819 C   0  0  0  0  0  0  0  0  0  0  0  0
    4.4614   -3.2962    3.1014 O   0  0  0  0  0  0  0  0  0  0  0  0
    5.9171   -2.8325    1.1799 C   0  0  1  0  0  0  0  0  0  0  0  0
    5.8505   -4.1322    0.6338 O   0  0  0  0  0  0  0  0  0  0  0  0
    3.5623   -0.3800    3.0231 C   0  0  2  0  0  0  0  0  0  0  0  0
    4.1443   -0.3217    4.4357 C   0  0  1  0  0  0  0  0  0  0  0  0
    5.4589    0.1929    4.4091 O   0  0  0  0  0  0  0  0  0  0  0  0
    3.2421    0.6309    5.2614 C   0  0  0  0  0  0  0  0  0  0  0  0
    1.7123    0.2565    5.3107 C   0  0  1  0  0  0  0  0  0  0  0  0
    1.5811   -0.9004    6.3436 C   0  0  0  0  0  0  0  0  0  0  0  0
   -3.4716    4.1331    9.3209 H   0  0  0  0  0  0  0  0  0  0  0  0
   -2.7482    3.1807   10.7324 H   0  0  0  0  0  0  0  0  0  0  0  0
   -1.5631    1.7493    9.1916 H   0  0  0  0  0  0  0  0  0  0  0  0
   -2.9084    1.9066    6.9229 H   0  0  0  0  0  0  0  0  0  0  0  0
   -2.7763    3.6414    7.0240 H   0  0  0  0  0  0  0  0  0  0  0  0
    1.4885    2.1979    6.2927 H   0  0  0  0  0  0  0  0  0  0  0  0
   -0.0362    2.9773    4.2023 H   0  0  0  0  0  0  0  0  0  0  0  0
    1.6865    2.8069    4.0334 H   0  0  0  0  0  0  0  0  0  0  0  0
   -0.4802    0.9797    3.0579 H   0  0  0  0  0  0  0  0  0  0  0  0
    0.7190    2.2470    1.6571 H   0  0  0  0  0  0  0  0  0  0  0  0
    0.2850   -0.7831    4.0878 H   0  0  0  0  0  0  0  0  0  0  0  0
    2.2944   -1.9314    3.7420 H   0  0  0  0  0  0  0  0  0  0  0  0
    1.6794   -2.6623    1.8073 H   0  0  0  0  0  0  0  0  0  0  0  0
    0.9352   -1.1320    1.3306 H   0  0  0  0  0  0  0  0  0  0  0  0
    2.8909   -0.2910    0.4568 H   0  0  0  0  0  0  0  0  0  0  0  0
    5.9058   -3.0505   -2.1055 H   0  0  0  0  0  0  0  0  0  0  0  0
    4.4742   -3.9563   -1.5509 H   0  0  0  0  0  0  0  0  0  0  0  0
    4.7174   -2.7076   -4.0126 H   0  0  0  0  0  0  0  0  0  0  0  0
    2.1808   -2.6351   -4.1579 H   0  0  0  0  0  0  0  0  0  0  0  0
    2.0996   -2.8618   -2.4143 H   0  0  0  0  0  0  0  0  0  0  0  0
    2.7344   -4.1268   -3.4539 H   0  0  0  0  0  0  0  0  0  0  0  0
    6.7160   -1.4528   -0.3569 H   0  0  0  0  0  0  0  0  0  0  0  0
    6.1906   -0.2265    1.7630 H   0  0  0  0  0  0  0  0  0  0  0  0
    5.0498    0.4147    0.5601 H   0  0  0  0  0  0  0  0  0  0  0  0
    6.8687   -2.7466    1.7016 H   0  0  0  0  0  0  0  0  0  0  0  0
    4.9775   -4.2799    0.3087 H   0  0  0  0  0  0  0  0  0  0  0  0
    3.4567    0.6448    2.6708 H   0  0  0  0  0  0  0  0  0  0  0  0
    4.1848   -1.3090    4.8903 H   0  0  0  0  0  0  0  0  0  0  0  0
    5.4244    1.0365    4.0086 H   0  0  0  0  0  0  0  0  0  0  0  0
    3.6402    0.6624    6.2734 H   0  0  0  0  0  0  0  0  0  0  0  0
    3.3853    1.6417    4.8730 H   0  0  0  0  0  0  0  0  0  0  0  0
    2.3172   -1.6910    6.1632 H   0  0  0  0  0  0  0  0  0  0  0  0
    0.6008   -1.3804    6.3348 H   0  0  0  0  0  0  0  0  0  0  0  0
    1.7653   -0.5361    7.3536 H   0  0  0  0  0  0  0  0  0  0  0  0
  1  2  2  0
  1 36  1  0
  1 37  1  0
  2  3  1  0
  2 38  1  0
  3  4  1  0
  3 39  1  0
  3 40  1  0
  4  5  1  0
  5  6  2  0
  5  7  1  0
  7 34  1  0
  7  8  1  0
  7 41  1  1
  8  9  1  0
  8 42  1  0
  8 43  1  0
  9 10  1  0
  9 11  1  0
  9 44  1  6
 10 45  1  0
 11 34  1  0
 11 12  1  0
 11 46  1  1
 12 30  1  0
 12 13  1  0
 12 47  1  1
 13 14  1  0
 13 48  1  0
 13 49  1  0
 14 25  1  0
 14 15  1  0
 14 50  1  6
 16 15  1  1
 16 22  1  0
 16 17  1  0
 16 23  1  0
 17 18  1  0
 17 51  1  0
 17 52  1  0
 18 19  1  0
 18 20  1  0
 18 53  1  6
 19 54  1  0
 19 55  1  0
 19 56  1  0
 20 21  2  0
 20 22  1  0
 23 28  1  0
 23 24  1  0
 23 57  1  6
 24 25  1  0
 24 58  1  0
 24 59  1  0
 25 26  1  1
 25 30  1  0
 26 27  2  0
 26 28  1  0
 28 29  1  0
 28 60  1  1
 29 61  1  0
 30 31  1  0
 30 62  1  6
 31 32  1  0
 31 33  1  0
 31 63  1  1
 32 64  1  0
 33 34  1  0
 33 65  1  0
 33 66  1  0
 34 35  1  1
 35 67  1  0
 35 68  1  0
 35 69  1  0
M  END
>  <i_m_ct_stereo_status>  (176) 
1

>  <s_m_source_file>  (176) 
/var/tmp/pbs.5076255.sched01/tmp1pt1fpgk/39zsbf0m6x.sdf

>  <i_m_source_file_index>  (176) 
34

>  <i_lp_mmshare_version>  (176) 
48012

>  <i_f3d_flags>  (176) 
0

>  <s_epik_input>  (176) 
W0NIMl09W0NIXVtDSDJdT0MoPU8pW0NASF0oW0NIMl1bQ0BIXTFbT0hdKVtDQF0oW0NIM10pKFtDSDJdW0NAQEhdKFtDQEhdMjMpW09IXSlbQ0BASF0xW0NASF0yW0NIMl1bQ0BIXShPNClbQ0BAXTMoQyg9TylbQ0BIXTVbT0hdKVtDSDJdW0NAQEhdNVtDQEBdNDZbQ0gyXVtDQEBIXShbQ0gzXSlDKD1PKU82

>  <s_epik_cmdline>  (176) 
J2VwaWtfcHl0aG9uJywgJy1waHQnLCAnMi4wJywgJy1waCcsICc3LjAnLCAnLXRuJywgJzgnLCAnLW1hJywgJzIwMCcsICctaW1hZScsICc8aW5maWxlLm1hZT4nLCAnLW9tYWUnLCAnPG91dGZpbGUubWFlPic=

>  <r_lp_tautomer_probability>  (176) 
1

>  <r_epik_Ionization_Penalty>  (176) 
1.88826e-06

>  <r_epik_Ionization_Penalty_Charging>  (176) 
0

>  <r_epik_Ionization_Penalty_Neutral>  (176) 
1.88826e-06

>  <r_epik_State_Penalty>  (176) 
-0

>  <r_epik_Charging_Adjusted_Penalty>  (176) 
0

>  <i_epik_Tot_Q>  (176) 
0

>  <i_epik_Tot_abs_Q>  (176) 
0

>  <s_epik_Chemistry_Notes>  (176) 
This compound has an ester and may undergo hydrolysis at high or low pH.

>  <s_lp_Force_Field>  (176) 
OPLS3e

>  <r_lp_Energy>  (176) 
43.0952

>  <b_lp_Chiralities_Consistent>  (176) 
1

>  <s_lp_Variant>  (176) 
57:0-1

>  <s_i_glide_gridfile>  (176) 
pfpi4k_grid

>  <i_i_glide_lignum>  (176) 
34

>  <i_i_glide_rotatable_bonds>  (176) 
7

>  <r_i_docking_score>  (176) 
-3.22991

>  <r_i_glide_ligand_efficiency>  (176) 
-0.092283

>  <r_i_glide_ligand_efficiency_sa>  (176) 
-0.301864

>  <r_i_glide_ligand_efficiency_ln>  (176) 
-0.709036

>  <r_i_glide_gscore>  (176) 
-3.22991

>  <r_i_glide_lipo>  (176) 
-0.745566

>  <r_i_glide_hbond>  (176) 
-0.0843391

>  <r_i_glide_metal>  (176) 
-0

>  <r_i_glide_rewards>  (176) 
-0.201332

>  <r_i_glide_evdw>  (176) 
-41.3157

>  <r_i_glide_ecoul>  (176) 
-2.86374

>  <r_i_glide_erotb>  (176) 
0.338297

>  <r_i_glide_esite>  (176) 
-0.0416192

>  <r_i_glide_emodel>  (176) 
-50.8871

>  <r_i_glide_energy>  (176) 
-44.1794

>  <r_i_glide_einternal>  (176) 
3.11071

>  <r_i_glide_intrahb_reward>  (176) 
-0

>  <i_i_glide_confnum>  (176) 
2

>  <i_i_glide_posenum>  (176) 
18

>  <r_i_glide_eff_state_penalty>  (176) 
0

>  <ligand_id>  (176) 
57

>  <original_smiles>  (176) 
C=CCOC(=O)C1CC(O)C2C3CC4OC5(CC(C)C(=O)O5)C5CC4(C(=O)C5O)C3C(O)CC12C

>  <smiles>  (176) 
[H]OC1([H])C(=O)C23C([H])([H])C1([H])C1(OC(=O)C([H])(C([H])([H])[H])C1([H])[H])OC2([H])C([H])([H])C1([H])C3([H])C([H])(O[H])C([H])([H])C2(C([H])([H])[H])C([H])(C(=O)OC([H])([H])C([H])=C([H])[H])C([H])([H])C([H])(O[H])C12[H]

$$$$
57:0:1
     RDKit          3D

 69 74  0  0  1  0  0  0  0  0999 V2000
   -2.6238    3.1316    3.9064 C   0  0  0  0  0  0  0  0  0  0  0  0
   -1.9861    3.1123    5.0851 C   0  0  0  0  0  0  0  0  0  0  0  0
   -1.6956    1.8510    5.8712 C   0  0  0  0  0  0  0  0  0  0  0  0
   -0.3686    1.4398    5.6081 O   0  0  0  0  0  0  0  0  0  0  0  0
    0.6552    2.0228    6.2502 C   0  0  0  0  0  0  0  0  0  0  0  0
    0.5709    2.6089    7.3283 O   0  0  0  0  0  0  0  0  0  0  0  0
    1.9870    1.9596    5.4769 C   0  0  2  0  0  0  0  0  0  0  0  0
    1.8191    2.6021    4.0865 C   0  0  0  0  0  0  0  0  0  0  0  0
    1.4103    1.4646    3.1413 C   0  0  1  0  0  0  0  0  0  0  0  0
    1.9385    1.6766    1.8550 O   0  0  0  0  0  0  0  0  0  0  0  0
    1.8522    0.1445    3.8282 C   0  0  1  0  0  0  0  0  0  0  0  0
    2.6937   -0.8790    3.0268 C   0  0  1  0  0  0  0  0  0  0  0  0
    2.1784   -1.4149    1.6801 C   0  0  0  0  0  0  0  0  0  0  0  0
    3.3890   -1.2802    0.7396 C   0  0  2  0  0  0  0  0  0  0  0  0
    3.5157   -2.2459   -0.3135 O   0  0  0  0  0  0  0  0  0  0  0  0
    4.6926   -2.1085   -1.0970 C   0  0  1  0  0  0  0  0  0  0  0  0
    4.7178   -3.2756   -2.1036 C   0  0  0  0  0  0  0  0  0  0  0  0
    3.9852   -2.7311   -3.3072 C   0  0  1  0  0  0  0  0  0  0  0  0
    2.5029   -3.1196   -3.3442 C   0  0  0  0  0  0  0  0  0  0  0  0
    4.1686   -1.2358   -3.1253 C   0  0  0  0  0  0  0  0  0  0  0  0
    3.9493   -0.4309   -4.0224 O   0  0  0  0  0  0  0  0  0  0  0  0
    4.6296   -0.9582   -1.8972 O   0  0  0  0  0  0  0  0  0  0  0  0
    5.9577   -2.0276   -0.1606 C   0  0  1  0  0  0  0  0  0  0  0  0
    5.7847   -0.7931    0.7526 C   0  0  0  0  0  0  0  0  0  0  0  0
    4.6330   -1.2753    1.6362 C   0  0  2  0  0  0  0  0  0  0  0  0
    5.0535   -2.7152    1.9593 C   0  0  0  0  0  0  0  0  0  0  0  0
    4.6702   -3.3906    2.9140 O   0  0  0  0  0  0  0  0  0  0  0  0
    6.0295   -3.1757    0.8794 C   0  0  1  0  0  0  0  0  0  0  0  0
    5.7558   -4.4811    0.4138 O   0  0  0  0  0  0  0  0  0  0  0  0
    4.1365   -0.4006    2.7970 C   0  0  2  0  0  0  0  0  0  0  0  0
    4.8331   -0.3577    4.1553 C   0  0  1  0  0  0  0  0  0  0  0  0
    6.1886    0.0207    4.0331 O   0  0  0  0  0  0  0  0  0  0  0  0
    4.1182    0.7056    5.0138 C   0  0  0  0  0  0  0  0  0  0  0  0
    2.5612    0.5470    5.1627 C   0  0  1  0  0  0  0  0  0  0  0  0
    2.2872   -0.4963    6.2737 C   0  0  0  0  0  0  0  0  0  0  0  0
   -2.9886    2.2213    3.4508 H   0  0  0  0  0  0  0  0  0  0  0  0
   -2.7839    4.0570    3.3743 H   0  0  0  0  0  0  0  0  0  0  0  0
   -1.6213    4.0346    5.5152 H   0  0  0  0  0  0  0  0  0  0  0  0
   -1.8804    2.0122    6.9346 H   0  0  0  0  0  0  0  0  0  0  0  0
   -2.3557    1.0484    5.5472 H   0  0  0  0  0  0  0  0  0  0  0  0
    2.7029    2.5320    6.0682 H   0  0  0  0  0  0  0  0  0  0  0  0
    1.0854    3.4091    4.0782 H   0  0  0  0  0  0  0  0  0  0  0  0
    2.7633    3.0434    3.7673 H   0  0  0  0  0  0  0  0  0  0  0  0
    0.3226    1.4686    3.0394 H   0  0  0  0  0  0  0  0  0  0  0  0
    1.4499    1.1429    1.2473 H   0  0  0  0  0  0  0  0  0  0  0  0
    0.9196   -0.3606    4.0842 H   0  0  0  0  0  0  0  0  0  0  0  0
    2.7379   -1.7644    3.6628 H   0  0  0  0  0  0  0  0  0  0  0  0
    1.8765   -2.4586    1.7826 H   0  0  0  0  0  0  0  0  0  0  0  0
    1.3186   -0.8631    1.3055 H   0  0  0  0  0  0  0  0  0  0  0  0
    3.2926   -0.3009    0.2658 H   0  0  0  0  0  0  0  0  0  0  0  0
    5.7601   -3.4820   -2.3699 H   0  0  0  0  0  0  0  0  0  0  0  0
    4.2710   -4.1823   -1.6933 H   0  0  0  0  0  0  0  0  0  0  0  0
    4.4849   -3.0545   -4.2178 H   0  0  0  0  0  0  0  0  0  0  0  0
    1.9794   -2.6671   -4.1812 H   0  0  0  0  0  0  0  0  0  0  0  0
    1.9979   -2.8168   -2.4284 H   0  0  0  0  0  0  0  0  0  0  0  0
    2.3786   -4.1953   -3.4427 H   0  0  0  0  0  0  0  0  0  0  0  0
    6.8649   -1.9663   -0.7660 H   0  0  0  0  0  0  0  0  0  0  0  0
    6.6834   -0.6344    1.3427 H   0  0  0  0  0  0  0  0  0  0  0  0
    5.5600    0.1375    0.2149 H   0  0  0  0  0  0  0  0  0  0  0  0
    7.0169   -3.1908    1.3336 H   0  0  0  0  0  0  0  0  0  0  0  0
    4.8630   -4.5138    0.1018 H   0  0  0  0  0  0  0  0  0  0  0  0
    4.1223    0.6178    2.4138 H   0  0  0  0  0  0  0  0  0  0  0  0
    4.7829   -1.3289    4.6488 H   0  0  0  0  0  0  0  0  0  0  0  0
    6.2329    0.8643    3.6146 H   0  0  0  0  0  0  0  0  0  0  0  0
    4.5785    0.7273    6.0027 H   0  0  0  0  0  0  0  0  0  0  0  0
    4.3490    1.6772    4.5751 H   0  0  0  0  0  0  0  0  0  0  0  0
    2.7840   -1.4452    6.0685 H   0  0  0  0  0  0  0  0  0  0  0  0
    1.2248   -0.7155    6.3724 H   0  0  0  0  0  0  0  0  0  0  0  0
    2.6382   -0.1453    7.2446 H   0  0  0  0  0  0  0  0  0  0  0  0
  1  2  2  0
  1 36  1  0
  1 37  1  0
  2  3  1  0
  2 38  1  0
  3  4  1  0
  3 39  1  0
  3 40  1  0
  4  5  1  0
  5  6  2  0
  5  7  1  0
  7 34  1  0
  7  8  1  0
  7 41  1  1
  8  9  1  0
  8 42  1  0
  8 43  1  0
  9 10  1  0
  9 11  1  0
  9 44  1  6
 10 45  1  0
 11 34  1  0
 11 12  1  0
 11 46  1  1
 12 30  1  0
 12 13  1  0
 12 47  1  1
 13 14  1  0
 13 48  1  0
 13 49  1  0
 14 25  1  0
 14 15  1  0
 14 50  1  6
 16 15  1  1
 16 22  1  0
 16 17  1  0
 16 23  1  0
 17 18  1  0
 17 51  1  0
 17 52  1  0
 18 19  1  0
 18 20  1  0
 18 53  1  6
 19 54  1  0
 19 55  1  0
 19 56  1  0
 20 21  2  0
 20 22  1  0
 23 28  1  0
 23 24  1  0
 23 57  1  6
 24 25  1  0
 24 58  1  0
 24 59  1  0
 25 26  1  1
 25 30  1  0
 26 27  2  0
 26 28  1  0
 28 29  1  0
 28 60  1  1
 29 61  1  0
 30 31  1  0
 30 62  1  6
 31 32  1  0
 31 33  1  0
 31 63  1  1
 32 64  1  0
 33 34  1  0
 33 65  1  0
 33 66  1  0
 34 35  1  1
 35 67  1  0
 35 68  1  0
 35 69  1  0
M  END
>  <i_m_ct_stereo_status>  (177) 
1

>  <s_m_source_file>  (177) 
/var/tmp/pbs.5076255.sched01/tmp1pt1fpgk/39zsbf0m6x.sdf

>  <i_m_source_file_index>  (177) 
34

>  <i_lp_mmshare_version>  (177) 
48012

>  <i_f3d_flags>  (177) 
0

>  <s_epik_input>  (177) 
W0NIMl09W0NIXVtDSDJdT0MoPU8pW0NASF0oW0NIMl1bQ0BIXTFbT0hdKVtDQF0oW0NIM10pKFtDSDJdW0NAQEhdKFtDQEhdMjMpW09IXSlbQ0BASF0xW0NASF0yW0NIMl1bQ0BIXShPNClbQ0BAXTMoQyg9TylbQ0BIXTVbT0hdKVtDSDJdW0NAQEhdNVtDQEBdNDZbQ0gyXVtDQEBIXShbQ0gzXSlDKD1PKU82

>  <s_epik_cmdline>  (177) 
J2VwaWtfcHl0aG9uJywgJy1waHQnLCAnMi4wJywgJy1waCcsICc3LjAnLCAnLXRuJywgJzgnLCAnLW1hJywgJzIwMCcsICctaW1hZScsICc8aW5maWxlLm1hZT4nLCAnLW9tYWUnLCAnPG91dGZpbGUubWFlPic=

>  <r_lp_tautomer_probability>  (177) 
1

>  <r_epik_Ionization_Penalty>  (177) 
1.88826e-06

>  <r_epik_Ionization_Penalty_Charging>  (177) 
0

>  <r_epik_Ionization_Penalty_Neutral>  (177) 
1.88826e-06

>  <r_epik_State_Penalty>  (177) 
-0

>  <r_epik_Charging_Adjusted_Penalty>  (177) 
0

>  <i_epik_Tot_Q>  (177) 
0

>  <i_epik_Tot_abs_Q>  (177) 
0

>  <s_epik_Chemistry_Notes>  (177) 
This compound has an ester and may undergo hydrolysis at high or low pH.

>  <s_lp_Force_Field>  (177) 
OPLS3e

>  <r_lp_Energy>  (177) 
43.0952

>  <b_lp_Chiralities_Consistent>  (177) 
1

>  <s_lp_Variant>  (177) 
57:0-1

>  <s_i_glide_gridfile>  (177) 
pfpi4k_grid

>  <i_i_glide_lignum>  (177) 
34

>  <i_i_glide_rotatable_bonds>  (177) 
7

>  <r_i_docking_score>  (177) 
-2.78479

>  <r_i_glide_ligand_efficiency>  (177) 
-0.0795654

>  <r_i_glide_ligand_efficiency_sa>  (177) 
-0.260264

>  <r_i_glide_ligand_efficiency_ln>  (177) 
-0.611323

>  <r_i_glide_gscore>  (177) 
-2.78479

>  <r_i_glide_lipo>  (177) 
-0.760838

>  <r_i_glide_hbond>  (177) 
0

>  <r_i_glide_metal>  (177) 
-0

>  <r_i_glide_rewards>  (177) 
-0.21943

>  <r_i_glide_evdw>  (177) 
-40.2346

>  <r_i_glide_ecoul>  (177) 
-0.705604

>  <r_i_glide_erotb>  (177) 
0.338297

>  <r_i_glide_esite>  (177) 
-0.0252471

>  <r_i_glide_emodel>  (177) 
-45.3696

>  <r_i_glide_energy>  (177) 
-40.9402

>  <r_i_glide_einternal>  (177) 
5.42335

>  <r_i_glide_intrahb_reward>  (177) 
-0

>  <i_i_glide_confnum>  (177) 
3

>  <i_i_glide_posenum>  (177) 
12

>  <r_i_glide_eff_state_penalty>  (177) 
0

>  <ligand_id>  (177) 
57

>  <original_smiles>  (177) 
C=CCOC(=O)C1CC(O)C2C3CC4OC5(CC(C)C(=O)O5)C5CC4(C(=O)C5O)C3C(O)CC12C

>  <smiles>  (177) 
[H]OC1([H])C(=O)C23C([H])([H])C1([H])C1(OC(=O)C([H])(C([H])([H])[H])C1([H])[H])OC2([H])C([H])([H])C1([H])C3([H])C([H])(O[H])C([H])([H])C2(C([H])([H])[H])C([H])(C(=O)OC([H])([H])C([H])=C([H])[H])C([H])([H])C([H])(O[H])C12[H]

$$$$
57:0:2
     RDKit          3D

 69 74  0  0  1  0  0  0  0  0999 V2000
   -2.7174    3.0680    4.0128 C   0  0  0  0  0  0  0  0  0  0  0  0
   -2.0980    3.0862    5.1987 C   0  0  0  0  0  0  0  0  0  0  0  0
   -1.6769    1.8442    5.9564 C   0  0  0  0  0  0  0  0  0  0  0  0
   -0.3470    1.5188    5.6062 O   0  0  0  0  0  0  0  0  0  0  0  0
    0.6815    2.1419    6.2030 C   0  0  0  0  0  0  0  0  0  0  0  0
    0.6141    2.7571    7.2648 O   0  0  0  0  0  0  0  0  0  0  0  0
    2.0002    2.0674    5.4106 C   0  0  2  0  0  0  0  0  0  0  0  0
    1.8137    2.6799    4.0112 C   0  0  0  0  0  0  0  0  0  0  0  0
    1.3870    1.5261    3.0947 C   0  0  1  0  0  0  0  0  0  0  0  0
    1.8968    1.7117    1.7985 O   0  0  0  0  0  0  0  0  0  0  0  0
    1.8459    0.2227    3.7992 C   0  0  1  0  0  0  0  0  0  0  0  0
    2.6722   -0.8174    3.0078 C   0  0  1  0  0  0  0  0  0  0  0  0
    2.1454   -1.3760    1.6838 C   0  0  0  0  0  0  0  0  0  0  0  0
    3.3430   -1.2545    0.7175 C   0  0  2  0  0  0  0  0  0  0  0  0
    3.4534   -2.2328   -0.3253 O   0  0  0  0  0  0  0  0  0  0  0  0
    4.6212   -2.1168   -1.1224 C   0  0  1  0  0  0  0  0  0  0  0  0
    4.6380   -3.2971   -2.1013 C   0  0  0  0  0  0  0  0  0  0  0  0
    3.8940   -2.7692   -3.3103 C   0  0  1  0  0  0  0  0  0  0  0  0
    2.4043   -3.1560   -3.3260 C   0  0  0  0  0  0  0  0  0  0  0  0
    4.0826   -1.2744   -3.1621 C   0  0  0  0  0  0  0  0  0  0  0  0
    3.8595   -0.4829   -4.0698 O   0  0  0  0  0  0  0  0  0  0  0  0
    4.5645   -0.9846   -1.9441 O   0  0  0  0  0  0  0  0  0  0  0  0
    5.8994   -2.0275   -0.2037 C   0  0  1  0  0  0  0  0  0  0  0  0
    5.7367   -0.7772    0.6779 C   0  0  0  0  0  0  0  0  0  0  0  0
    4.5995   -1.2404    1.5935 C   0  0  2  0  0  0  0  0  0  0  0  0
    5.0231   -2.6708    1.9416 C   0  0  0  0  0  0  0  0  0  0  0  0
    4.6810   -3.3105    2.9404 O   0  0  0  0  0  0  0  0  0  0  0  0
    5.9798   -3.1598    0.8562 C   0  0  1  0  0  0  0  0  0  0  0  0
    5.6900   -4.4746    0.4306 O   0  0  0  0  0  0  0  0  0  0  0  0
    4.1063   -0.3452    2.7409 C   0  0  2  0  0  0  0  0  0  0  0  0
    4.8172   -0.2761    4.0892 C   0  0  1  0  0  0  0  0  0  0  0  0
    6.1392    0.1479    3.8800 O   0  0  0  0  0  0  0  0  0  0  0  0
    4.1224    0.8065    4.9394 C   0  0  0  0  0  0  0  0  0  0  0  0
    2.5716    0.6504    5.1163 C   0  0  1  0  0  0  0  0  0  0  0  0
    2.3176   -0.3753    6.2483 C   0  0  0  0  0  0  0  0  0  0  0  0
   -2.9771    2.1408    3.5221 H   0  0  0  0  0  0  0  0  0  0  0  0
   -2.9763    3.9806    3.5010 H   0  0  0  0  0  0  0  0  0  0  0  0
   -1.8467    4.0302    5.6630 H   0  0  0  0  0  0  0  0  0  0  0  0
   -1.8103    1.9869    7.0306 H   0  0  0  0  0  0  0  0  0  0  0  0
   -2.3019    1.0012    5.6669 H   0  0  0  0  0  0  0  0  0  0  0  0
    2.7263    2.6496    5.9820 H   0  0  0  0  0  0  0  0  0  0  0  0
    1.0799    3.4850    4.0031 H   0  0  0  0  0  0  0  0  0  0  0  0
    2.7513    3.1158    3.6702 H   0  0  0  0  0  0  0  0  0  0  0  0
    0.2981    1.5286    3.0140 H   0  0  0  0  0  0  0  0  0  0  0  0
    1.3564    1.2098    1.2036 H   0  0  0  0  0  0  0  0  0  0  0  0
    0.9210   -0.2812    4.0774 H   0  0  0  0  0  0  0  0  0  0  0  0
    2.7356   -1.6911    3.6585 H   0  0  0  0  0  0  0  0  0  0  0  0
    1.8514   -2.4178    1.8081 H   0  0  0  0  0  0  0  0  0  0  0  0
    1.2810   -0.8301    1.3085 H   0  0  0  0  0  0  0  0  0  0  0  0
    3.2433   -0.2785    0.2400 H   0  0  0  0  0  0  0  0  0  0  0  0
    5.6687   -3.5033   -2.3902 H   0  0  0  0  0  0  0  0  0  0  0  0
    4.1988   -4.1969   -1.6714 H   0  0  0  0  0  0  0  0  0  0  0  0
    4.3780   -3.1099   -4.2228 H   0  0  0  0  0  0  0  0  0  0  0  0
    1.8660   -2.7175   -4.1700 H   0  0  0  0  0  0  0  0  0  0  0  0
    1.9112   -2.8365   -2.4027 H   0  0  0  0  0  0  0  0  0  0  0  0
    2.2747   -4.2349   -3.4017 H   0  0  0  0  0  0  0  0  0  0  0  0
    6.7977   -1.9676   -0.8168 H   0  0  0  0  0  0  0  0  0  0  0  0
    6.6396   -0.6108    1.2566 H   0  0  0  0  0  0  0  0  0  0  0  0
    5.4995    0.1437    0.1289 H   0  0  0  0  0  0  0  0  0  0  0  0
    6.9750   -3.1631    1.3005 H   0  0  0  0  0  0  0  0  0  0  0  0
    6.3145   -4.7352   -0.2313 H   0  0  0  0  0  0  0  0  0  0  0  0
    4.0969    0.6678    2.3491 H   0  0  0  0  0  0  0  0  0  0  0  0
    4.8081   -1.2383    4.6038 H   0  0  0  0  0  0  0  0  0  0  0  0
    6.5678   -0.5117    3.3540 H   0  0  0  0  0  0  0  0  0  0  0  0
    4.6061    0.8391    5.9170 H   0  0  0  0  0  0  0  0  0  0  0  0
    4.3567    1.7667    4.4792 H   0  0  0  0  0  0  0  0  0  0  0  0
    2.8124   -1.3282    6.0526 H   0  0  0  0  0  0  0  0  0  0  0  0
    1.2566   -0.5932    6.3630 H   0  0  0  0  0  0  0  0  0  0  0  0
    2.6799   -0.0056    7.2089 H   0  0  0  0  0  0  0  0  0  0  0  0
  1  2  2  0
  1 36  1  0
  1 37  1  0
  2  3  1  0
  2 38  1  0
  3  4  1  0
  3 39  1  0
  3 40  1  0
  4  5  1  0
  5  6  2  0
  5  7  1  0
  7 34  1  0
  7  8  1  0
  7 41  1  1
  8  9  1  0
  8 42  1  0
  8 43  1  0
  9 10  1  0
  9 11  1  0
  9 44  1  6
 10 45  1  0
 11 34  1  0
 11 12  1  0
 11 46  1  1
 12 30  1  0
 12 13  1  0
 12 47  1  1
 13 14  1  0
 13 48  1  0
 13 49  1  0
 14 25  1  0
 14 15  1  0
 14 50  1  6
 16 15  1  1
 16 22  1  0
 16 17  1  0
 16 23  1  0
 17 18  1  0
 17 51  1  0
 17 52  1  0
 18 19  1  0
 18 20  1  0
 18 53  1  6
 19 54  1  0
 19 55  1  0
 19 56  1  0
 20 21  2  0
 20 22  1  0
 23 28  1  0
 23 24  1  0
 23 57  1  6
 24 25  1  0
 24 58  1  0
 24 59  1  0
 25 26  1  1
 25 30  1  0
 26 27  2  0
 26 28  1  0
 28 29  1  0
 28 60  1  1
 29 61  1  0
 30 31  1  0
 30 62  1  6
 31 32  1  0
 31 33  1  0
 31 63  1  1
 32 64  1  0
 33 34  1  0
 33 65  1  0
 33 66  1  0
 34 35  1  1
 35 67  1  0
 35 68  1  0
 35 69  1  0
M  END
>  <i_m_ct_stereo_status>  (178) 
1

>  <s_m_source_file>  (178) 
/var/tmp/pbs.5076255.sched01/tmp1pt1fpgk/39zsbf0m6x.sdf

>  <i_m_source_file_index>  (178) 
34

>  <i_lp_mmshare_version>  (178) 
48012

>  <i_f3d_flags>  (178) 
0

>  <s_epik_input>  (178) 
W0NIMl09W0NIXVtDSDJdT0MoPU8pW0NASF0oW0NIMl1bQ0BIXTFbT0hdKVtDQF0oW0NIM10pKFtDSDJdW0NAQEhdKFtDQEhdMjMpW09IXSlbQ0BASF0xW0NASF0yW0NIMl1bQ0BIXShPNClbQ0BAXTMoQyg9TylbQ0BIXTVbT0hdKVtDSDJdW0NAQEhdNVtDQEBdNDZbQ0gyXVtDQEBIXShbQ0gzXSlDKD1PKU82

>  <s_epik_cmdline>  (178) 
J2VwaWtfcHl0aG9uJywgJy1waHQnLCAnMi4wJywgJy1waCcsICc3LjAnLCAnLXRuJywgJzgnLCAnLW1hJywgJzIwMCcsICctaW1hZScsICc8aW5maWxlLm1hZT4nLCAnLW9tYWUnLCAnPG91dGZpbGUubWFlPic=

>  <r_lp_tautomer_probability>  (178) 
1

>  <r_epik_Ionization_Penalty>  (178) 
1.88826e-06

>  <r_epik_Ionization_Penalty_Charging>  (178) 
0

>  <r_epik_Ionization_Penalty_Neutral>  (178) 
1.88826e-06

>  <r_epik_State_Penalty>  (178) 
-0

>  <r_epik_Charging_Adjusted_Penalty>  (178) 
0

>  <i_epik_Tot_Q>  (178) 
0

>  <i_epik_Tot_abs_Q>  (178) 
0

>  <s_epik_Chemistry_Notes>  (178) 
This compound has an ester and may undergo hydrolysis at high or low pH.

>  <s_lp_Force_Field>  (178) 
OPLS3e

>  <r_lp_Energy>  (178) 
43.0952

>  <b_lp_Chiralities_Consistent>  (178) 
1

>  <s_lp_Variant>  (178) 
57:0-1

>  <s_i_glide_gridfile>  (178) 
pfpi4k_grid

>  <i_i_glide_lignum>  (178) 
34

>  <i_i_glide_rotatable_bonds>  (178) 
7

>  <r_i_docking_score>  (178) 
-2.76845

>  <r_i_glide_ligand_efficiency>  (178) 
-0.0790985

>  <r_i_glide_ligand_efficiency_sa>  (178) 
-0.258736

>  <r_i_glide_ligand_efficiency_ln>  (178) 
-0.607735

>  <r_i_glide_gscore>  (178) 
-2.76845

>  <r_i_glide_lipo>  (178) 
-0.744271

>  <r_i_glide_hbond>  (178) 
0

>  <r_i_glide_metal>  (178) 
-0

>  <r_i_glide_rewards>  (178) 
-0.232853

>  <r_i_glide_evdw>  (178) 
-40.5762

>  <r_i_glide_ecoul>  (178) 
-0.500515

>  <r_i_glide_erotb>  (178) 
0.338297

>  <r_i_glide_esite>  (178) 
-0.025731

>  <r_i_glide_emodel>  (178) 
-46.1799

>  <r_i_glide_energy>  (178) 
-41.0767

>  <r_i_glide_einternal>  (178) 
3.96755

>  <r_i_glide_intrahb_reward>  (178) 
-0

>  <i_i_glide_confnum>  (178) 
3

>  <i_i_glide_posenum>  (178) 
21

>  <r_i_glide_eff_state_penalty>  (178) 
0

>  <ligand_id>  (178) 
57

>  <original_smiles>  (178) 
C=CCOC(=O)C1CC(O)C2C3CC4OC5(CC(C)C(=O)O5)C5CC4(C(=O)C5O)C3C(O)CC12C

>  <smiles>  (178) 
[H]OC1([H])C(=O)C23C([H])([H])C1([H])C1(OC(=O)C([H])(C([H])([H])[H])C1([H])[H])OC2([H])C([H])([H])C1([H])C3([H])C([H])(O[H])C([H])([H])C2(C([H])([H])[H])C([H])(C(=O)OC([H])([H])C([H])=C([H])[H])C([H])([H])C([H])(O[H])C12[H]

$$$$
58:1:0
     RDKit          3D

 74 82  0  0  1  0  0  0  0  0999 V2000
    3.5111   -1.4754    7.8104 C   0  0  0  0  0  0  0  0  0  0  0  0
    2.8944   -1.1644    6.6519 C   0  0  0  0  0  0  0  0  0  0  0  0
    3.5789   -1.4614    5.2847 C   0  0  1  0  0  0  0  0  0  0  0  0
    4.1147   -2.7659    4.5891 C   0  0  1  0  0  0  0  0  0  0  0  0
    3.6572   -4.1262    5.0745 C   0  0  0  0  0  0  0  0  0  0  0  0
    2.1245   -4.1939    5.2313 C   0  0  0  0  0  0  0  0  0  0  0  0
    1.4017   -5.2683    5.7150 C   0  0  0  0  0  0  0  0  0  0  0  0
    0.1387   -5.0468    6.2871 C   0  0  0  0  0  0  0  0  0  0  0  0
   -0.2914   -3.7330    6.5673 C   0  0  0  0  0  0  0  0  0  0  0  0
   -1.3887   -3.4485    7.3275 O   0  0  0  0  0  0  0  0  0  0  0  0
   -2.1276   -4.5220    7.8961 C   0  0  0  0  0  0  0  0  0  0  0  0
    0.5015   -2.6291    6.1145 C   0  0  0  0  0  0  0  0  0  0  0  0
    1.5230   -2.8892    5.1817 C   0  0  0  0  0  0  0  0  0  0  0  0
    2.3647   -1.7484    4.4616 C   0  0  2  0  0  0  0  0  0  0  0  0
    3.2025   -2.4135    3.3705 C   0  0  1  0  0  0  0  0  0  0  0  0
    3.5142   -1.4538    2.2795 N   0  0  1  0  0  0  0  0  0  0  0  0
    4.4579   -2.0046    1.2621 C   0  0  0  0  0  0  0  0  0  0  0  0
    4.9498   -0.9475    0.2785 C   0  0  0  0  0  0  0  0  0  0  0  0
    5.8406   -1.3518   -0.8742 C   0  0  0  0  0  0  0  0  0  0  0  0
    6.4066   -0.5482    0.2635 C   0  0  0  0  0  0  0  0  0  0  0  0
    2.1927   -1.0133    1.6655 C   0  0  0  0  0  0  0  0  0  0  0  0
    1.0892   -0.6412    2.7154 C   0  0  0  0  0  0  0  0  0  0  0  0
    1.7396   -0.3716    4.0910 C   0  0  2  0  0  0  0  0  0  0  0  0
    2.6729    0.8983    3.8567 C   0  0  0  0  0  0  0  0  0  0  0  0
    1.7512    2.0547    4.0970 C   0  0  0  0  0  0  0  0  0  0  0  0
    0.9484    1.6663    5.2353 N   0  0  0  0  0  0  0  0  0  0  0  0
   -0.3452    2.3701    5.2335 C   0  0  0  0  0  0  0  0  0  0  0  0
   -1.4202    1.7758    4.3276 C   0  0  0  0  0  0  0  0  0  0  0  0
   -1.4549    2.0719    2.8459 C   0  0  0  0  0  0  0  0  0  0  0  0
   -2.5164    2.6331    3.7567 C   0  0  0  0  0  0  0  0  0  0  0  0
    0.9236    0.1790    5.2782 C   0  0  2  0  0  0  0  0  0  0  0  0
    1.4349   -0.4981    6.6300 C   0  0  2  0  0  0  0  0  0  0  0  0
    1.3886    0.4640    7.6574 O   0  0  0  0  0  0  0  0  0  0  0  0
    0.1306    0.7321    8.2554 C   0  0  0  0  0  0  0  0  0  0  0  0
    0.4338   -1.4677    6.8377 O   0  0  0  0  0  0  0  0  0  0  0  0
    3.0094   -1.2450    8.7309 H   0  0  0  0  0  0  0  0  0  0  0  0
    4.5023   -1.9088    7.8368 H   0  0  0  0  0  0  0  0  0  0  0  0
    4.2690   -0.6987    4.9620 H   0  0  0  0  0  0  0  0  0  0  0  0
    5.1823   -2.6897    4.3307 H   0  0  0  0  0  0  0  0  0  0  0  0
    3.9762   -4.9209    4.3868 H   0  0  0  0  0  0  0  0  0  0  0  0
    4.1092   -4.3419    6.0431 H   0  0  0  0  0  0  0  0  0  0  0  0
    1.8418   -6.2619    5.7605 H   0  0  0  0  0  0  0  0  0  0  0  0
   -0.3970   -5.8896    6.6633 H   0  0  0  0  0  0  0  0  0  0  0  0
   -2.9572   -4.1237    8.4738 H   0  0  0  0  0  0  0  0  0  0  0  0
   -1.5224   -5.1106    8.5806 H   0  0  0  0  0  0  0  0  0  0  0  0
   -2.5525   -5.1513    7.1218 H   0  0  0  0  0  0  0  0  0  0  0  0
    2.7101   -3.2979    2.9448 H   0  0  0  0  0  0  0  0  0  0  0  0
    5.3245   -2.4374    1.7766 H   0  0  0  0  0  0  0  0  0  0  0  0
    3.9925   -2.8166    0.6990 H   0  0  0  0  0  0  0  0  0  0  0  0
    4.2278   -0.1711    0.0050 H   0  0  0  0  0  0  0  0  0  0  0  0
    6.1577   -2.3900   -0.9661 H   0  0  0  0  0  0  0  0  0  0  0  0
    5.6883   -0.8214   -1.8093 H   0  0  0  0  0  0  0  0  0  0  0  0
    6.6112    0.5015    0.0750 H   0  0  0  0  0  0  0  0  0  0  0  0
    7.0871   -1.0463    0.9560 H   0  0  0  0  0  0  0  0  0  0  0  0
    2.3560   -0.1282    1.0478 H   0  0  0  0  0  0  0  0  0  0  0  0
    1.8126   -1.7877    0.9956 H   0  0  0  0  0  0  0  0  0  0  0  0
    0.4940    0.1847    2.3301 H   0  0  0  0  0  0  0  0  0  0  0  0
    0.4153   -1.4949    2.8099 H   0  0  0  0  0  0  0  0  0  0  0  0
    3.4603    1.0359    4.5925 H   0  0  0  0  0  0  0  0  0  0  0  0
    3.0955    1.0229    2.8592 H   0  0  0  0  0  0  0  0  0  0  0  0
    2.2973    2.9893    4.2716 H   0  0  0  0  0  0  0  0  0  0  0  0
    1.1571    2.1623    3.1951 H   0  0  0  0  0  0  0  0  0  0  0  0
   -0.7581    2.4463    6.2483 H   0  0  0  0  0  0  0  0  0  0  0  0
   -0.1637    3.4053    4.9082 H   0  0  0  0  0  0  0  0  0  0  0  0
   -1.8147    0.8179    4.6644 H   0  0  0  0  0  0  0  0  0  0  0  0
   -0.7758    2.8191    2.4268 H   0  0  0  0  0  0  0  0  0  0  0  0
   -1.6879    1.2065    2.2210 H   0  0  0  0  0  0  0  0  0  0  0  0
   -3.5084    2.1915    3.6828 H   0  0  0  0  0  0  0  0  0  0  0  0
   -2.4735    3.6921    4.0053 H   0  0  0  0  0  0  0  0  0  0  0  0
   -0.0802   -0.2067    5.1246 H   0  0  0  0  0  0  0  0  0  0  0  0
    0.2243    1.6774    8.7770 H   0  0  0  0  0  0  0  0  0  0  0  0
   -0.1467   -0.0118    8.9992 H   0  0  0  0  0  0  0  0  0  0  0  0
   -0.6694    0.8332    7.5321 H   0  0  0  0  0  0  0  0  0  0  0  0
    3.9421   -0.6313    2.6974 H   0  0  0  0  0  0  0  0  0  0  0  0
  1  2  2  0
  1 36  1  0
  1 37  1  0
  2 32  1  0
  2  3  1  0
  3 14  1  0
  3  4  1  0
  3 38  1  6
  4 15  1  0
  4  5  1  0
  4 39  1  6
  5  6  1  0
  5 40  1  0
  5 41  1  0
  6 13  2  0
  6  7  1  0
  7  8  2  0
  7 42  1  0
  8  9  1  0
  8 43  1  0
  9 10  1  0
  9 12  2  0
 10 11  1  0
 11 44  1  0
 11 45  1  0
 11 46  1  0
 12 35  1  0
 12 13  1  0
 14 13  1  1
 14 23  1  0
 14 15  1  0
 15 16  1  0
 15 47  1  6
 16 17  1  0
 16 21  1  0
 16 74  1  1
 17 18  1  0
 17 48  1  0
 17 49  1  0
 18 20  1  0
 18 19  1  0
 18 50  1  0
 19 20  1  0
 19 51  1  0
 19 52  1  0
 20 53  1  0
 20 54  1  0
 21 22  1  0
 21 55  1  0
 21 56  1  0
 23 22  1  6
 22 57  1  0
 22 58  1  0
 23 31  1  0
 23 24  1  0
 24 25  1  0
 24 59  1  0
 24 60  1  0
 25 26  1  0
 25 61  1  0
 25 62  1  0
 26 27  1  0
 26 31  1  0
 27 28  1  0
 27 63  1  0
 27 64  1  0
 28 30  1  0
 28 29  1  0
 28 65  1  0
 29 30  1  0
 29 66  1  0
 29 67  1  0
 30 68  1  0
 30 69  1  0
 31 32  1  0
 31 70  1  6
 32 33  1  1
 32 35  1  0
 33 34  1  0
 34 71  1  0
 34 72  1  0
 34 73  1  0
M  CHG  1  16   1
M  END
>  <i_m_ct_stereo_status>  (179) 
1

>  <s_m_source_file>  (179) 
/var/tmp/pbs.5076255.sched01/tmp1pt1fpgk/39zsbf0m6x.sdf

>  <i_m_source_file_index>  (179) 
36

>  <i_lp_mmshare_version>  (179) 
48012

>  <i_f3d_flags>  (179) 
0

>  <s_epik_input>  (179) 
W0NIMl0xW0NIMl1bQ0hdMVtDSDJdTihbQ0gyXVtDSDJdMilbQ0BASF0oW0NAXTIzW0NAQF00NTYpW0NAXTcoT1tDSDNdKUMoPVtDSDJdKVtDQEhdNFtDQEhdKFtDQEBIXTZOKFtDSDJdW0NIMl0zKVtDSDJdW0NIXThbQ0gyXVtDSDJdOClbQ0gyXWM5YzVjKE83KWMoW2NIXVtjSF05KU9bQ0gzXQ==

>  <s_epik_cmdline>  (179) 
J2VwaWtfcHl0aG9uJywgJy1waHQnLCAnMi4wJywgJy1waCcsICc3LjAnLCAnLXRuJywgJzgnLCAnLW1hJywgJzIwMCcsICctaW1hZScsICc8aW5maWxlLm1hZT4nLCAnLW9tYWUnLCAnPG91dGZpbGUubWFlPic=

>  <r_lp_tautomer_probability>  (179) 
1

>  <r_epik_Ionization_Penalty>  (179) 
0.533528

>  <r_epik_Ionization_Penalty_Charging>  (179) 
0.0126059

>  <r_epik_Ionization_Penalty_Neutral>  (179) 
0.520922

>  <r_epik_State_Penalty>  (179) 
0.534265

>  <r_epik_Charging_Adjusted_Penalty>  (179) 
0.546871

>  <i_epik_Tot_Q>  (179) 
1

>  <i_epik_Tot_abs_Q>  (179) 
1

>  <s_lp_Force_Field>  (179) 
OPLS3e

>  <r_lp_Energy>  (179) 
195.203

>  <b_lp_Chiralities_Consistent>  (179) 
1

>  <s_lp_Variant>  (179) 
58:0-2

>  <s_i_glide_gridfile>  (179) 
pfpi4k_grid

>  <i_i_glide_lignum>  (179) 
36

>  <i_i_glide_rotatable_bonds>  (179) 
6

>  <r_i_docking_score>  (179) 
-1.82498

>  <r_i_glide_ligand_efficiency>  (179) 
-0.0521423

>  <r_i_glide_ligand_efficiency_sa>  (179) 
-0.170561

>  <r_i_glide_ligand_efficiency_ln>  (179) 
-0.400624

>  <r_i_glide_gscore>  (179) 
-1.82498

>  <r_i_glide_lipo>  (179) 
-0.0867751

>  <r_i_glide_hbond>  (179) 
-0.0104722

>  <r_i_glide_metal>  (179) 
-0

>  <r_i_glide_rewards>  (179) 
-0.166075

>  <r_i_glide_evdw>  (179) 
-21.7152

>  <r_i_glide_ecoul>  (179) 
-5.52689

>  <r_i_glide_erotb>  (179) 
0.357926

>  <r_i_glide_esite>  (179) 
-0.00478936

>  <r_i_glide_emodel>  (179) 
-25.3155

>  <r_i_glide_energy>  (179) 
-27.2421

>  <r_i_glide_einternal>  (179) 
9.21901

>  <r_i_glide_intrahb_reward>  (179) 
-0

>  <i_i_glide_confnum>  (179) 
5

>  <i_i_glide_posenum>  (179) 
27

>  <r_i_glide_eff_state_penalty>  (179) 
0

>  <ligand_id>  (179) 
58

>  <original_smiles>  (179) 
C=C1C2C3Cc4ccc(OC)c5c4C24C3N(CC2CC2)CCC42CCN(CC3CC3)C2C1(OC)O5

>  <smiles>  (179) 
[H]C([H])=C1C2(OC([H])([H])[H])Oc3c(OC([H])([H])[H])c([H])c([H])c4c3C35C1([H])C([H])(C4([H])[H])C3([H])[N+]([H])(C([H])([H])C1([H])C([H])([H])C1([H])[H])C([H])([H])C([H])([H])C51C([H])([H])C([H])([H])N(C([H])([H])C3([H])C([H])([H])C3([H])[H])C21[H]

$$$$
58:1:1
     RDKit          3D

 74 82  0  0  1  0  0  0  0  0999 V2000
    3.5824   -1.4710    7.7730 C   0  0  0  0  0  0  0  0  0  0  0  0
    2.8947   -1.1379    6.6628 C   0  0  0  0  0  0  0  0  0  0  0  0
    3.5761   -1.3503    5.2795 C   0  0  1  0  0  0  0  0  0  0  0  0
    4.1447   -2.6279    4.5653 C   0  0  1  0  0  0  0  0  0  0  0  0
    3.7158   -4.0112    5.0343 C   0  0  0  0  0  0  0  0  0  0  0  0
    2.1928   -4.1073    5.1707 C   0  0  0  0  0  0  0  0  0  0  0  0
    1.4806   -5.2159    5.6397 C   0  0  0  0  0  0  0  0  0  0  0  0
    0.2007   -5.0323    6.1948 C   0  0  0  0  0  0  0  0  0  0  0  0
   -0.2596   -3.7288    6.4801 C   0  0  0  0  0  0  0  0  0  0  0  0
   -1.3767   -3.4707    7.2522 O   0  0  0  0  0  0  0  0  0  0  0  0
   -2.1238   -4.5760    7.7504 C   0  0  0  0  0  0  0  0  0  0  0  0
    0.5002   -2.5954    6.0452 C   0  0  0  0  0  0  0  0  0  0  0  0
    1.5625   -2.8260    5.1473 C   0  0  0  0  0  0  0  0  0  0  0  0
    2.3831   -1.6456    4.4365 C   0  0  2  0  0  0  0  0  0  0  0  0
    3.2403   -2.2727    3.3445 C   0  0  1  0  0  0  0  0  0  0  0  0
    3.5257   -1.2978    2.2671 N   0  0  1  0  0  0  0  0  0  0  0  0
    4.5068   -1.7860    1.2652 C   0  0  0  0  0  0  0  0  0  0  0  0
    4.5536   -0.9468   -0.0068 C   0  0  0  0  0  0  0  0  0  0  0  0
    3.8118   -1.4118   -1.2469 C   0  0  0  0  0  0  0  0  0  0  0  0
    5.3144   -1.4168   -1.2296 C   0  0  0  0  0  0  0  0  0  0  0  0
    2.2137   -0.8590    1.6647 C   0  0  0  0  0  0  0  0  0  0  0  0
    1.0864   -0.5396    2.7056 C   0  0  0  0  0  0  0  0  0  0  0  0
    1.7279   -0.2885    4.0921 C   0  0  2  0  0  0  0  0  0  0  0  0
    2.6202    1.0184    3.8846 C   0  0  0  0  0  0  0  0  0  0  0  0
    1.6699    2.1443    4.1600 C   0  0  0  0  0  0  0  0  0  0  0  0
    0.8988    1.6896    5.2943 N   0  0  0  0  0  0  0  0  0  0  0  0
   -0.4284    2.3043    5.3678 C   0  0  0  0  0  0  0  0  0  0  0  0
   -1.4724    1.7512    4.4010 C   0  0  0  0  0  0  0  0  0  0  0  0
   -1.4669    2.0843    2.9211 C   0  0  0  0  0  0  0  0  0  0  0  0
   -2.5530    2.6182    3.8078 C   0  0  0  0  0  0  0  0  0  0  0  0
    0.9183    0.2137    5.3025 C   0  0  2  0  0  0  0  0  0  0  0  0
    1.4084   -0.4971    6.6555 C   0  0  2  0  0  0  0  0  0  0  0  0
    1.2478    0.4603    7.6835 O   0  0  0  0  0  0  0  0  0  0  0  0
    0.8329    0.0359    8.9956 C   0  0  0  0  0  0  0  0  0  0  0  0
    0.3797   -1.4490    6.7746 O   0  0  0  0  0  0  0  0  0  0  0  0
    3.1760   -1.3644    8.7630 H   0  0  0  0  0  0  0  0  0  0  0  0
    4.5923   -1.8764    7.7020 H   0  0  0  0  0  0  0  0  0  0  0  0
    4.2365   -0.5503    5.0043 H   0  0  0  0  0  0  0  0  0  0  0  0
    5.2132   -2.5402    4.3355 H   0  0  0  0  0  0  0  0  0  0  0  0
    4.0460   -4.7865    4.3378 H   0  0  0  0  0  0  0  0  0  0  0  0
    4.1740   -4.2400    5.9984 H   0  0  0  0  0  0  0  0  0  0  0  0
    1.9444   -6.1928    5.6550 H   0  0  0  0  0  0  0  0  0  0  0  0
   -0.3194   -5.9058    6.5425 H   0  0  0  0  0  0  0  0  0  0  0  0
   -2.9711   -4.2157    8.3297 H   0  0  0  0  0  0  0  0  0  0  0  0
   -1.5356   -5.2055    8.4180 H   0  0  0  0  0  0  0  0  0  0  0  0
   -2.5290   -5.1794    6.9404 H   0  0  0  0  0  0  0  0  0  0  0  0
    2.7707   -3.1554    2.8889 H   0  0  0  0  0  0  0  0  0  0  0  0
    5.4980   -1.7894    1.7146 H   0  0  0  0  0  0  0  0  0  0  0  0
    4.2864   -2.8205    0.9848 H   0  0  0  0  0  0  0  0  0  0  0  0
    4.5928    0.1326    0.1630 H   0  0  0  0  0  0  0  0  0  0  0  0
    3.2897   -2.3653   -1.1952 H   0  0  0  0  0  0  0  0  0  0  0  0
    3.3126   -0.6576   -1.8504 H   0  0  0  0  0  0  0  0  0  0  0  0
    5.8016   -0.6656   -1.8456 H   0  0  0  0  0  0  0  0  0  0  0  0
    5.8143   -2.3839   -1.1853 H   0  0  0  0  0  0  0  0  0  0  0  0
    2.3721    0.0422    1.0721 H   0  0  0  0  0  0  0  0  0  0  0  0
    1.8556   -1.6140    0.9611 H   0  0  0  0  0  0  0  0  0  0  0  0
    0.4737    0.2821    2.3485 H   0  0  0  0  0  0  0  0  0  0  0  0
    0.4235   -1.4031    2.7825 H   0  0  0  0  0  0  0  0  0  0  0  0
    3.3966    1.1807    4.6251 H   0  0  0  0  0  0  0  0  0  0  0  0
    3.0609    1.1746    2.9017 H   0  0  0  0  0  0  0  0  0  0  0  0
    2.1645    3.1033    4.3536 H   0  0  0  0  0  0  0  0  0  0  0  0
    1.0660    2.2729    3.2716 H   0  0  0  0  0  0  0  0  0  0  0  0
   -0.8118    2.1984    6.3843 H   0  0  0  0  0  0  0  0  0  0  0  0
   -0.3342    3.3811    5.2048 H   0  0  0  0  0  0  0  0  0  0  0  0
   -1.8593    0.7686    4.6762 H   0  0  0  0  0  0  0  0  0  0  0  0
   -0.8007    2.8457    2.5171 H   0  0  0  0  0  0  0  0  0  0  0  0
   -1.6906    1.2534    2.2534 H   0  0  0  0  0  0  0  0  0  0  0  0
   -3.5335    2.1733    3.6773 H   0  0  0  0  0  0  0  0  0  0  0  0
   -2.5277    3.6808    4.0470 H   0  0  0  0  0  0  0  0  0  0  0  0
   -0.0796   -0.1695    5.1153 H   0  0  0  0  0  0  0  0  0  0  0  0
    0.5811    0.9203    9.5798 H   0  0  0  0  0  0  0  0  0  0  0  0
    1.5921   -0.4704    9.5902 H   0  0  0  0  0  0  0  0  0  0  0  0
   -0.0480   -0.6048    8.9765 H   0  0  0  0  0  0  0  0  0  0  0  0
    3.9257   -0.4667    2.7087 H   0  0  0  0  0  0  0  0  0  0  0  0
  1  2  2  0
  1 36  1  0
  1 37  1  0
  2 32  1  0
  2  3  1  0
  3 14  1  0
  3  4  1  0
  3 38  1  6
  4 15  1  0
  4  5  1  0
  4 39  1  6
  5  6  1  0
  5 40  1  0
  5 41  1  0
  6 13  2  0
  6  7  1  0
  7  8  2  0
  7 42  1  0
  8  9  1  0
  8 43  1  0
  9 10  1  0
  9 12  2  0
 10 11  1  0
 11 44  1  0
 11 45  1  0
 11 46  1  0
 12 35  1  0
 12 13  1  0
 14 13  1  1
 14 23  1  0
 14 15  1  0
 15 16  1  0
 15 47  1  6
 16 17  1  0
 16 21  1  0
 16 74  1  1
 17 18  1  0
 17 48  1  0
 17 49  1  0
 18 20  1  0
 18 19  1  0
 18 50  1  0
 19 20  1  0
 19 51  1  0
 19 52  1  0
 20 53  1  0
 20 54  1  0
 21 22  1  0
 21 55  1  0
 21 56  1  0
 23 22  1  6
 22 57  1  0
 22 58  1  0
 23 31  1  0
 23 24  1  0
 24 25  1  0
 24 59  1  0
 24 60  1  0
 25 26  1  0
 25 61  1  0
 25 62  1  0
 26 27  1  0
 26 31  1  0
 27 28  1  0
 27 63  1  0
 27 64  1  0
 28 30  1  0
 28 29  1  0
 28 65  1  0
 29 30  1  0
 29 66  1  0
 29 67  1  0
 30 68  1  0
 30 69  1  0
 31 32  1  0
 31 70  1  6
 32 33  1  1
 32 35  1  0
 33 34  1  0
 34 71  1  0
 34 72  1  0
 34 73  1  0
M  CHG  1  16   1
M  END
>  <i_m_ct_stereo_status>  (180) 
1

>  <s_m_source_file>  (180) 
/var/tmp/pbs.5076255.sched01/tmp1pt1fpgk/39zsbf0m6x.sdf

>  <i_m_source_file_index>  (180) 
36

>  <i_lp_mmshare_version>  (180) 
48012

>  <i_f3d_flags>  (180) 
0

>  <s_epik_input>  (180) 
W0NIMl0xW0NIMl1bQ0hdMVtDSDJdTihbQ0gyXVtDSDJdMilbQ0BASF0oW0NAXTIzW0NAQF00NTYpW0NAXTcoT1tDSDNdKUMoPVtDSDJdKVtDQEhdNFtDQEhdKFtDQEBIXTZOKFtDSDJdW0NIMl0zKVtDSDJdW0NIXThbQ0gyXVtDSDJdOClbQ0gyXWM5YzVjKE83KWMoW2NIXVtjSF05KU9bQ0gzXQ==

>  <s_epik_cmdline>  (180) 
J2VwaWtfcHl0aG9uJywgJy1waHQnLCAnMi4wJywgJy1waCcsICc3LjAnLCAnLXRuJywgJzgnLCAnLW1hJywgJzIwMCcsICctaW1hZScsICc8aW5maWxlLm1hZT4nLCAnLW9tYWUnLCAnPG91dGZpbGUubWFlPic=

>  <r_lp_tautomer_probability>  (180) 
1

>  <r_epik_Ionization_Penalty>  (180) 
0.533528

>  <r_epik_Ionization_Penalty_Charging>  (180) 
0.0126059

>  <r_epik_Ionization_Penalty_Neutral>  (180) 
0.520922

>  <r_epik_State_Penalty>  (180) 
0.534265

>  <r_epik_Charging_Adjusted_Penalty>  (180) 
0.546871

>  <i_epik_Tot_Q>  (180) 
1

>  <i_epik_Tot_abs_Q>  (180) 
1

>  <s_lp_Force_Field>  (180) 
OPLS3e

>  <r_lp_Energy>  (180) 
195.203

>  <b_lp_Chiralities_Consistent>  (180) 
1

>  <s_lp_Variant>  (180) 
58:0-2

>  <s_i_glide_gridfile>  (180) 
pfpi4k_grid

>  <i_i_glide_lignum>  (180) 
36

>  <i_i_glide_rotatable_bonds>  (180) 
6

>  <r_i_docking_score>  (180) 
-1.75152

>  <r_i_glide_ligand_efficiency>  (180) 
-0.0500435

>  <r_i_glide_ligand_efficiency_sa>  (180) 
-0.163696

>  <r_i_glide_ligand_efficiency_ln>  (180) 
-0.384498

>  <r_i_glide_gscore>  (180) 
-1.75152

>  <r_i_glide_lipo>  (180) 
-0.0172523

>  <r_i_glide_hbond>  (180) 
-0.00602527

>  <r_i_glide_metal>  (180) 
-0

>  <r_i_glide_rewards>  (180) 
-0.166075

>  <r_i_glide_evdw>  (180) 
-22.5248

>  <r_i_glide_ecoul>  (180) 
-5.25883

>  <r_i_glide_erotb>  (180) 
0.357926

>  <r_i_glide_esite>  (180) 
-0.00503179

>  <r_i_glide_emodel>  (180) 
-25.1333

>  <r_i_glide_energy>  (180) 
-27.7836

>  <r_i_glide_einternal>  (180) 
10.3465

>  <r_i_glide_intrahb_reward>  (180) 
-0

>  <i_i_glide_confnum>  (180) 
5

>  <i_i_glide_posenum>  (180) 
17

>  <r_i_glide_eff_state_penalty>  (180) 
0

>  <ligand_id>  (180) 
58

>  <original_smiles>  (180) 
C=C1C2C3Cc4ccc(OC)c5c4C24C3N(CC2CC2)CCC42CCN(CC3CC3)C2C1(OC)O5

>  <smiles>  (180) 
[H]C([H])=C1C2(OC([H])([H])[H])Oc3c(OC([H])([H])[H])c([H])c([H])c4c3C35C1([H])C([H])(C4([H])[H])C3([H])[N+]([H])(C([H])([H])C1([H])C([H])([H])C1([H])[H])C([H])([H])C([H])([H])C51C([H])([H])C([H])([H])N(C([H])([H])C3([H])C([H])([H])C3([H])[H])C21[H]

$$$$
58:1:2
     RDKit          3D

 74 82  0  0  1  0  0  0  0  0999 V2000
    4.1459   -2.2175    7.0432 C   0  0  0  0  0  0  0  0  0  0  0  0
    3.4837   -1.8102    5.9541 C   0  0  0  0  0  0  0  0  0  0  0  0
    4.0767   -2.1610    4.5482 C   0  0  1  0  0  0  0  0  0  0  0  0
    4.4167   -3.5315    3.8632 C   0  0  1  0  0  0  0  0  0  0  0  0
    3.7930   -4.8183    4.3913 C   0  0  0  0  0  0  0  0  0  0  0  0
    2.2747   -4.6699    4.5672 C   0  0  0  0  0  0  0  0  0  0  0  0
    1.4206   -5.6402    5.0928 C   0  0  0  0  0  0  0  0  0  0  0  0
    0.2060   -5.2434    5.6800 C   0  0  0  0  0  0  0  0  0  0  0  0
   -0.0389   -3.8718    5.9353 C   0  0  0  0  0  0  0  0  0  0  0  0
   -1.0765   -3.4300    6.7294 O   0  0  0  0  0  0  0  0  0  0  0  0
   -1.9519   -4.3980    7.3054 C   0  0  0  0  0  0  0  0  0  0  0  0
    0.8711   -2.8890    5.4418 C   0  0  0  0  0  0  0  0  0  0  0  0
    1.8571   -3.3042    4.5240 C   0  0  0  0  0  0  0  0  0  0  0  0
    2.8271   -2.2945    3.7534 C   0  0  2  0  0  0  0  0  0  0  0  0
    3.5373   -3.0779    2.6687 C   0  0  1  0  0  0  0  0  0  0  0  0
    3.9508   -2.1901    1.5564 N   0  0  1  0  0  0  0  0  0  0  0  0
    4.8094   -2.8562    0.5347 C   0  0  0  0  0  0  0  0  0  0  0  0
    5.4748   -1.8656   -0.3979 C   0  0  0  0  0  0  0  0  0  0  0  0
    4.8625   -1.5179   -1.7369 C   0  0  0  0  0  0  0  0  0  0  0  0
    6.1165   -2.3484   -1.6830 C   0  0  0  0  0  0  0  0  0  0  0  0
    2.7050   -1.5615    0.9585 C   0  0  0  0  0  0  0  0  0  0  0  0
    1.6698   -1.0390    2.0133 C   0  0  0  0  0  0  0  0  0  0  0  0
    2.3842   -0.8555    3.3743 C   0  0  2  0  0  0  0  0  0  0  0  0
    3.4329    0.3004    3.0921 C   0  0  0  0  0  0  0  0  0  0  0  0
    2.6580    1.5637    3.3475 C   0  0  0  0  0  0  0  0  0  0  0  0
    1.9088    1.2651    4.5433 N   0  0  0  0  0  0  0  0  0  0  0  0
    0.6842    2.0619    4.6559 C   0  0  0  0  0  0  0  0  0  0  0  0
   -0.4672    1.6016    3.7686 C   0  0  0  0  0  0  0  0  0  0  0  0
   -1.8883    2.0626    3.9757 C   0  0  0  0  0  0  0  0  0  0  0  0
   -1.4967    0.6519    4.3314 C   0  0  0  0  0  0  0  0  0  0  0  0
    1.7143   -0.1996    4.5984 C   0  0  2  0  0  0  0  0  0  0  0  0
    2.1124   -0.9364    5.9550 C   0  0  2  0  0  0  0  0  0  0  0  0
    2.1287    0.0579    6.9574 O   0  0  0  0  0  0  0  0  0  0  0  0
    1.6854   -0.2590    8.2876 C   0  0  0  0  0  0  0  0  0  0  0  0
    0.9538   -1.7111    6.1274 O   0  0  0  0  0  0  0  0  0  0  0  0
    3.7940   -2.0182    8.0446 H   0  0  0  0  0  0  0  0  0  0  0  0
    5.0776   -2.7754    6.9652 H   0  0  0  0  0  0  0  0  0  0  0  0
    4.8431   -1.4795    4.2302 H   0  0  0  0  0  0  0  0  0  0  0  0
    5.4752   -3.6134    3.6084 H   0  0  0  0  0  0  0  0  0  0  0  0
    3.9807   -5.6527    3.7122 H   0  0  0  0  0  0  0  0  0  0  0  0
    4.2399   -5.0870    5.3510 H   0  0  0  0  0  0  0  0  0  0  0  0
    1.7253   -6.6838    5.1283 H   0  0  0  0  0  0  0  0  0  0  0  0
   -0.4360   -6.0172    6.0688 H   0  0  0  0  0  0  0  0  0  0  0  0
   -2.7117   -3.8832    7.8868 H   0  0  0  0  0  0  0  0  0  0  0  0
   -1.4326   -5.0664    7.9924 H   0  0  0  0  0  0  0  0  0  0  0  0
   -2.4740   -4.9914    6.5540 H   0  0  0  0  0  0  0  0  0  0  0  0
    2.9331   -3.8802    2.2504 H   0  0  0  0  0  0  0  0  0  0  0  0
    5.5851   -3.4221    1.0337 H   0  0  0  0  0  0  0  0  0  0  0  0
    4.2255   -3.5705   -0.0428 H   0  0  0  0  0  0  0  0  0  0  0  0
    6.0226   -1.0734    0.1113 H   0  0  0  0  0  0  0  0  0  0  0  0
    3.9310   -2.0148   -2.0022 H   0  0  0  0  0  0  0  0  0  0  0  0
    4.9472   -0.4831   -2.0703 H   0  0  0  0  0  0  0  0  0  0  0  0
    7.0326   -1.8708   -2.0221 H   0  0  0  0  0  0  0  0  0  0  0  0
    6.0334   -3.4023   -1.9486 H   0  0  0  0  0  0  0  0  0  0  0  0
    3.0106   -0.7341    0.3268 H   0  0  0  0  0  0  0  0  0  0  0  0
    2.2192   -2.2726    0.2943 H   0  0  0  0  0  0  0  0  0  0  0  0
    1.1696   -0.1438    1.6522 H   0  0  0  0  0  0  0  0  0  0  0  0
    0.8898   -1.7865    2.1331 H   0  0  0  0  0  0  0  0  0  0  0  0
    4.2386    0.3621    3.8157 H   0  0  0  0  0  0  0  0  0  0  0  0
    3.8787    0.3492    2.1023 H   0  0  0  0  0  0  0  0  0  0  0  0
    3.3097    2.4334    3.4833 H   0  0  0  0  0  0  0  0  0  0  0  0
    2.0056    1.7878    2.5070 H   0  0  0  0  0  0  0  0  0  0  0  0
    0.3503    2.0745    5.6923 H   0  0  0  0  0  0  0  0  0  0  0  0
    0.9097    3.1016    4.4003 H   0  0  0  0  0  0  0  0  0  0  0  0
   -0.1966    1.4384    2.7270 H   0  0  0  0  0  0  0  0  0  0  0  0
   -2.0957    2.7401    4.7992 H   0  0  0  0  0  0  0  0  0  0  0  0
   -2.5028    2.1788    3.0872 H   0  0  0  0  0  0  0  0  0  0  0  0
   -1.7893   -0.1610    3.6751 H   0  0  0  0  0  0  0  0  0  0  0  0
   -1.3928    0.3847    5.3816 H   0  0  0  0  0  0  0  0  0  0  0  0
    0.6755   -0.4491    4.4386 H   0  0  0  0  0  0  0  0  0  0  0  0
    1.5969    0.6704    8.8533 H   0  0  0  0  0  0  0  0  0  0  0  0
    2.3612   -0.8668    8.8866 H   0  0  0  0  0  0  0  0  0  0  0  0
    0.7091   -0.7441    8.3105 H   0  0  0  0  0  0  0  0  0  0  0  0
    4.4970   -1.4254    1.9695 H   0  0  0  0  0  0  0  0  0  0  0  0
  1  2  2  0
  1 36  1  0
  1 37  1  0
  2 32  1  0
  2  3  1  0
  3 14  1  0
  3  4  1  0
  3 38  1  6
  4 15  1  0
  4  5  1  0
  4 39  1  6
  5  6  1  0
  5 40  1  0
  5 41  1  0
  6 13  2  0
  6  7  1  0
  7  8  2  0
  7 42  1  0
  8  9  1  0
  8 43  1  0
  9 10  1  0
  9 12  2  0
 10 11  1  0
 11 44  1  0
 11 45  1  0
 11 46  1  0
 12 35  1  0
 12 13  1  0
 14 13  1  1
 14 23  1  0
 14 15  1  0
 15 16  1  0
 15 47  1  6
 16 17  1  0
 16 21  1  0
 16 74  1  1
 17 18  1  0
 17 48  1  0
 17 49  1  0
 18 20  1  0
 18 19  1  0
 18 50  1  0
 19 20  1  0
 19 51  1  0
 19 52  1  0
 20 53  1  0
 20 54  1  0
 21 22  1  0
 21 55  1  0
 21 56  1  0
 23 22  1  6
 22 57  1  0
 22 58  1  0
 23 31  1  0
 23 24  1  0
 24 25  1  0
 24 59  1  0
 24 60  1  0
 25 26  1  0
 25 61  1  0
 25 62  1  0
 26 27  1  0
 26 31  1  0
 27 28  1  0
 27 63  1  0
 27 64  1  0
 28 30  1  0
 28 29  1  0
 28 65  1  0
 29 30  1  0
 29 66  1  0
 29 67  1  0
 30 68  1  0
 30 69  1  0
 31 32  1  0
 31 70  1  6
 32 33  1  1
 32 35  1  0
 33 34  1  0
 34 71  1  0
 34 72  1  0
 34 73  1  0
M  CHG  1  16   1
M  END
>  <i_m_ct_stereo_status>  (181) 
1

>  <s_m_source_file>  (181) 
/var/tmp/pbs.5076255.sched01/tmp1pt1fpgk/39zsbf0m6x.sdf

>  <i_m_source_file_index>  (181) 
36

>  <i_lp_mmshare_version>  (181) 
48012

>  <i_f3d_flags>  (181) 
0

>  <s_epik_input>  (181) 
W0NIMl0xW0NIMl1bQ0hdMVtDSDJdTihbQ0gyXVtDSDJdMilbQ0BASF0oW0NAXTIzW0NAQF00NTYpW0NAXTcoT1tDSDNdKUMoPVtDSDJdKVtDQEhdNFtDQEhdKFtDQEBIXTZOKFtDSDJdW0NIMl0zKVtDSDJdW0NIXThbQ0gyXVtDSDJdOClbQ0gyXWM5YzVjKE83KWMoW2NIXVtjSF05KU9bQ0gzXQ==

>  <s_epik_cmdline>  (181) 
J2VwaWtfcHl0aG9uJywgJy1waHQnLCAnMi4wJywgJy1waCcsICc3LjAnLCAnLXRuJywgJzgnLCAnLW1hJywgJzIwMCcsICctaW1hZScsICc8aW5maWxlLm1hZT4nLCAnLW9tYWUnLCAnPG91dGZpbGUubWFlPic=

>  <r_lp_tautomer_probability>  (181) 
1

>  <r_epik_Ionization_Penalty>  (181) 
0.533528

>  <r_epik_Ionization_Penalty_Charging>  (181) 
0.0126059

>  <r_epik_Ionization_Penalty_Neutral>  (181) 
0.520922

>  <r_epik_State_Penalty>  (181) 
0.534265

>  <r_epik_Charging_Adjusted_Penalty>  (181) 
0.546871

>  <i_epik_Tot_Q>  (181) 
1

>  <i_epik_Tot_abs_Q>  (181) 
1

>  <s_lp_Force_Field>  (181) 
OPLS3e

>  <r_lp_Energy>  (181) 
195.203

>  <b_lp_Chiralities_Consistent>  (181) 
1

>  <s_lp_Variant>  (181) 
58:0-2

>  <s_i_glide_gridfile>  (181) 
pfpi4k_grid

>  <i_i_glide_lignum>  (181) 
36

>  <i_i_glide_rotatable_bonds>  (181) 
6

>  <r_i_docking_score>  (181) 
-1.72912

>  <r_i_glide_ligand_efficiency>  (181) 
-0.0494034

>  <r_i_glide_ligand_efficiency_sa>  (181) 
-0.161602

>  <r_i_glide_ligand_efficiency_ln>  (181) 
-0.37958

>  <r_i_glide_gscore>  (181) 
-1.72912

>  <r_i_glide_lipo>  (181) 
-0.161571

>  <r_i_glide_hbond>  (181) 
0

>  <r_i_glide_metal>  (181) 
-0

>  <r_i_glide_rewards>  (181) 
-0.166075

>  <r_i_glide_evdw>  (181) 
-23.0812

>  <r_i_glide_ecoul>  (181) 
-4.01391

>  <r_i_glide_erotb>  (181) 
0.357926

>  <r_i_glide_esite>  (181) 
-0.00325083

>  <r_i_glide_emodel>  (181) 
-25.4159

>  <r_i_glide_energy>  (181) 
-27.0951

>  <r_i_glide_einternal>  (181) 
8.24348

>  <r_i_glide_intrahb_reward>  (181) 
-0

>  <i_i_glide_confnum>  (181) 
5

>  <i_i_glide_posenum>  (181) 
24

>  <r_i_glide_eff_state_penalty>  (181) 
0

>  <ligand_id>  (181) 
58

>  <original_smiles>  (181) 
C=C1C2C3Cc4ccc(OC)c5c4C24C3N(CC2CC2)CCC42CCN(CC3CC3)C2C1(OC)O5

>  <smiles>  (181) 
[H]C([H])=C1C2(OC([H])([H])[H])Oc3c(OC([H])([H])[H])c([H])c([H])c4c3C35C1([H])C([H])(C4([H])[H])C3([H])[N+]([H])(C([H])([H])C1([H])C([H])([H])C1([H])[H])C([H])([H])C([H])([H])C51C([H])([H])C([H])([H])N(C([H])([H])C3([H])C([H])([H])C3([H])[H])C21[H]

$$$$
58:2:0
     RDKit          3D

 74 82  0  0  1  0  0  0  0  0999 V2000
    5.6944   -9.3600    1.0955 C   0  0  0  0  0  0  0  0  0  0  0  0
    5.1361   -8.2120    1.5586 C   0  0  0  0  0  0  0  0  0  0  0  0
    3.6161   -8.1833    1.8361 C   0  0  1  0  0  0  0  0  0  0  0  0
    2.6821   -9.0578    2.7311 C   0  0  1  0  0  0  0  0  0  0  0  0
    3.2437   -9.8350    3.9273 C   0  0  0  0  0  0  0  0  0  0  0  0
    4.1680   -8.9486    4.7602 C   0  0  0  0  0  0  0  0  0  0  0  0
    4.9283   -9.4042    5.8628 C   0  0  0  0  0  0  0  0  0  0  0  0
    6.0821   -8.6854    6.2058 C   0  0  0  0  0  0  0  0  0  0  0  0
    6.5724   -7.6815    5.3805 C   0  0  0  0  0  0  0  0  0  0  0  0
    7.8245   -7.1876    5.6529 O   0  0  0  0  0  0  0  0  0  0  0  0
    7.9889   -5.7822    5.5730 C   0  0  0  0  0  0  0  0  0  0  0  0
    5.8496   -7.2958    4.2076 C   0  0  0  0  0  0  0  0  0  0  0  0
    4.5119   -7.7340    4.1220 C   0  0  0  0  0  0  0  0  0  0  0  0
    3.5181   -7.2321    2.9763 C   0  0  2  0  0  0  0  0  0  0  0  0
    2.1225   -7.6992    3.2826 C   0  0  1  0  0  0  0  0  0  0  0  0
    1.0408   -6.7930    2.8635 N   0  0  0  0  0  0  0  0  0  0  0  0
   -0.2840   -7.2965    3.2038 C   0  0  0  0  0  0  0  0  0  0  0  0
   -0.5931   -8.5423    2.4157 C   0  0  0  0  0  0  0  0  0  0  0  0
   -1.7640   -9.4144    2.8031 C   0  0  0  0  0  0  0  0  0  0  0  0
   -0.3550   -9.9013    3.0191 C   0  0  0  0  0  0  0  0  0  0  0  0
    1.2922   -5.4720    3.5133 C   0  0  0  0  0  0  0  0  0  0  0  0
    2.7878   -4.9669    3.4407 C   0  0  0  0  0  0  0  0  0  0  0  0
    3.5999   -5.7972    2.4142 C   0  0  2  0  0  0  0  0  0  0  0  0
    2.9181   -5.4652    1.0187 C   0  0  0  0  0  0  0  0  0  0  0  0
    3.6554   -4.2653    0.5177 C   0  0  0  0  0  0  0  0  0  0  0  0
    5.0593   -4.6173    0.8154 N   0  0  1  0  0  0  0  0  0  0  0  0
    5.9755   -3.4405    0.8515 C   0  0  0  0  0  0  0  0  0  0  0  0
    5.6483   -2.4458    1.9603 C   0  0  0  0  0  0  0  0  0  0  0  0
    4.7344   -1.2723    1.6858 C   0  0  0  0  0  0  0  0  0  0  0  0
    6.1978   -1.0351    1.9512 C   0  0  0  0  0  0  0  0  0  0  0  0
    5.0658   -5.4913    2.0424 C   0  0  2  0  0  0  0  0  0  0  0  0
    5.9228   -6.8416    1.8774 C   0  0  2  0  0  0  0  0  0  0  0  0
    6.8816   -6.5893    0.8859 O   0  0  0  0  0  0  0  0  0  0  0  0
    8.2085   -7.0891    1.0697 C   0  0  0  0  0  0  0  0  0  0  0  0
    6.5554   -6.8552    3.1298 O   0  0  0  0  0  0  0  0  0  0  0  0
    6.7483   -9.4080    0.8844 H   0  0  0  0  0  0  0  0  0  0  0  0
    5.0543  -10.2306    0.9349 H   0  0  0  0  0  0  0  0  0  0  0  0
    3.0058   -8.0053    0.9629 H   0  0  0  0  0  0  0  0  0  0  0  0
    1.9980   -9.6295    2.1024 H   0  0  0  0  0  0  0  0  0  0  0  0
    2.4479  -10.2254    4.5693 H   0  0  0  0  0  0  0  0  0  0  0  0
    3.7972  -10.7026    3.5739 H   0  0  0  0  0  0  0  0  0  0  0  0
    4.6887  -10.3208    6.3747 H   0  0  0  0  0  0  0  0  0  0  0  0
    6.6981   -9.0070    7.0343 H   0  0  0  0  0  0  0  0  0  0  0  0
    9.0487   -5.5337    5.6700 H   0  0  0  0  0  0  0  0  0  0  0  0
    7.4372   -5.3160    6.3896 H   0  0  0  0  0  0  0  0  0  0  0  0
    7.6384   -5.3610    4.6341 H   0  0  0  0  0  0  0  0  0  0  0  0
    1.9762   -7.7562    4.3577 H   0  0  0  0  0  0  0  0  0  0  0  0
   -0.3993   -7.4748    4.2757 H   0  0  0  0  0  0  0  0  0  0  0  0
   -1.0322   -6.5678    2.9049 H   0  0  0  0  0  0  0  0  0  0  0  0
   -0.4339   -8.4210    1.3492 H   0  0  0  0  0  0  0  0  0  0  0  0
   -2.3418   -9.1435    3.6857 H   0  0  0  0  0  0  0  0  0  0  0  0
   -2.3208   -9.9130    2.0144 H   0  0  0  0  0  0  0  0  0  0  0  0
    0.0059  -10.6895    2.3593 H   0  0  0  0  0  0  0  0  0  0  0  0
    0.0379   -9.9126    4.0339 H   0  0  0  0  0  0  0  0  0  0  0  0
    0.6747   -4.7506    2.9855 H   0  0  0  0  0  0  0  0  0  0  0  0
    0.9421   -5.4522    4.5496 H   0  0  0  0  0  0  0  0  0  0  0  0
    2.8454   -3.8914    3.2565 H   0  0  0  0  0  0  0  0  0  0  0  0
    3.2395   -5.1141    4.4194 H   0  0  0  0  0  0  0  0  0  0  0  0
    3.0648   -6.2013    0.2316 H   0  0  0  0  0  0  0  0  0  0  0  0
    1.8627   -5.2117    1.0483 H   0  0  0  0  0  0  0  0  0  0  0  0
    3.5026   -4.0690   -0.5461 H   0  0  0  0  0  0  0  0  0  0  0  0
    3.3167   -3.3957    1.0748 H   0  0  0  0  0  0  0  0  0  0  0  0
    6.9942   -3.8012    0.9743 H   0  0  0  0  0  0  0  0  0  0  0  0
    5.9395   -2.9477   -0.1213 H   0  0  0  0  0  0  0  0  0  0  0  0
    5.6116   -2.8795    2.9661 H   0  0  0  0  0  0  0  0  0  0  0  0
    4.3704   -1.1419    0.6641 H   0  0  0  0  0  0  0  0  0  0  0  0
    4.0157   -1.0763    2.4789 H   0  0  0  0  0  0  0  0  0  0  0  0
    6.4498   -0.6143    2.9232 H   0  0  0  0  0  0  0  0  0  0  0  0
    6.8204   -0.7039    1.1160 H   0  0  0  0  0  0  0  0  0  0  0  0
    5.4901   -4.9315    2.8728 H   0  0  0  0  0  0  0  0  0  0  0  0
    8.7786   -6.8433    0.1718 H   0  0  0  0  0  0  0  0  0  0  0  0
    8.2400   -8.1593    1.2172 H   0  0  0  0  0  0  0  0  0  0  0  0
    8.7152   -6.5935    1.9062 H   0  0  0  0  0  0  0  0  0  0  0  0
    5.3608   -5.2254    0.0670 H   0  0  0  0  0  0  0  0  0  0  0  0
  1  2  2  0
  1 36  1  0
  1 37  1  0
  2 32  1  0
  2  3  1  0
  3 14  1  0
  3  4  1  0
  3 38  1  6
  4 15  1  0
  4  5  1  0
  4 39  1  6
  5  6  1  0
  5 40  1  0
  5 41  1  0
  6 13  2  0
  6  7  1  0
  7  8  2  0
  7 42  1  0
  8  9  1  0
  8 43  1  0
  9 10  1  0
  9 12  2  0
 10 11  1  0
 11 44  1  0
 11 45  1  0
 11 46  1  0
 12 35  1  0
 12 13  1  0
 14 13  1  1
 14 23  1  0
 14 15  1  0
 15 16  1  0
 15 47  1  1
 16 17  1  0
 16 21  1  0
 17 18  1  0
 17 48  1  0
 17 49  1  0
 18 20  1  0
 18 19  1  0
 18 50  1  0
 19 20  1  0
 19 51  1  0
 19 52  1  0
 20 53  1  0
 20 54  1  0
 21 22  1  0
 21 55  1  0
 21 56  1  0
 23 22  1  1
 22 57  1  0
 22 58  1  0
 23 31  1  0
 23 24  1  0
 24 25  1  0
 24 59  1  0
 24 60  1  0
 25 26  1  0
 25 61  1  0
 25 62  1  0
 26 27  1  0
 26 31  1  0
 26 74  1  6
 27 28  1  0
 27 63  1  0
 27 64  1  0
 28 30  1  0
 28 29  1  0
 28 65  1  0
 29 30  1  0
 29 66  1  0
 29 67  1  0
 30 68  1  0
 30 69  1  0
 31 32  1  0
 31 70  1  1
 32 33  1  6
 32 35  1  0
 33 34  1  0
 34 71  1  0
 34 72  1  0
 34 73  1  0
M  CHG  1  26   1
M  END
>  <i_m_ct_stereo_status>  (182) 
1

>  <s_m_source_file>  (182) 
/var/tmp/pbs.5076255.sched01/tmp1pt1fpgk/39zsbf0m6x.sdf

>  <i_m_source_file_index>  (182) 
37

>  <i_lp_mmshare_version>  (182) 
48012

>  <i_f3d_flags>  (182) 
0

>  <s_epik_input>  (182) 
W0NIMl0xW0NIMl1bQ0hdMVtDSDJdTihbQ0gyXVtDSDJdMilbQ0BASF0oW0NAXTIzW0NAQF00NTYpW0NAXTcoT1tDSDNdKUMoPVtDSDJdKVtDQEhdNFtDQEhdKFtDQEBIXTZOKFtDSDJdW0NIMl0zKVtDSDJdW0NIXThbQ0gyXVtDSDJdOClbQ0gyXWM5YzVjKE83KWMoW2NIXVtjSF05KU9bQ0gzXQ==

>  <s_epik_cmdline>  (182) 
J2VwaWtfcHl0aG9uJywgJy1waHQnLCAnMi4wJywgJy1waCcsICc3LjAnLCAnLXRuJywgJzgnLCAnLW1hJywgJzIwMCcsICctaW1hZScsICc8aW5maWxlLm1hZT4nLCAnLW9tYWUnLCAnPG91dGZpbGUubWFlPic=

>  <r_epik_Ionization_Penalty>  (182) 
0.637654

>  <r_epik_Ionization_Penalty_Charging>  (182) 
0.0525742

>  <r_epik_Ionization_Penalty_Neutral>  (182) 
0.58508

>  <r_epik_State_Penalty>  (182) 
1.05291

>  <r_epik_Charging_Adjusted_Penalty>  (182) 
1.10549

>  <i_epik_Tot_Q>  (182) 
1

>  <i_epik_Tot_abs_Q>  (182) 
1

>  <s_lp_Force_Field>  (182) 
OPLS3e

>  <r_lp_Energy>  (182) 
190.416

>  <b_lp_Chiralities_Consistent>  (182) 
1

>  <s_lp_Variant>  (182) 
58:0-3

>  <s_i_glide_gridfile>  (182) 
pfpi4k_grid

>  <i_i_glide_lignum>  (182) 
37

>  <i_i_glide_rotatable_bonds>  (182) 
6

>  <r_i_docking_score>  (182) 
-2.04071

>  <r_i_glide_ligand_efficiency>  (182) 
-0.058306

>  <r_i_glide_ligand_efficiency_sa>  (182) 
-0.190723

>  <r_i_glide_ligand_efficiency_ln>  (182) 
-0.447981

>  <r_i_glide_gscore>  (182) 
-2.04071

>  <r_i_glide_lipo>  (182) 
-0.399401

>  <r_i_glide_hbond>  (182) 
0

>  <r_i_glide_metal>  (182) 
-0

>  <r_i_glide_rewards>  (182) 
-0.247463

>  <r_i_glide_evdw>  (182) 
-24.9263

>  <r_i_glide_ecoul>  (182) 
-3.36971

>  <r_i_glide_erotb>  (182) 
0.357926

>  <r_i_glide_esite>  (182) 
0

>  <r_i_glide_emodel>  (182) 
-25.6407

>  <r_i_glide_energy>  (182) 
-28.296

>  <r_i_glide_einternal>  (182) 
9.5315

>  <r_i_glide_intrahb_reward>  (182) 
-0

>  <i_i_glide_confnum>  (182) 
5

>  <i_i_glide_posenum>  (182) 
10

>  <r_i_glide_eff_state_penalty>  (182) 
0

>  <ligand_id>  (182) 
58

>  <original_smiles>  (182) 
C=C1C2C3Cc4ccc(OC)c5c4C24C3N(CC2CC2)CCC42CCN(CC3CC3)C2C1(OC)O5

>  <smiles>  (182) 
[H]C([H])=C1C2(OC([H])([H])[H])Oc3c(OC([H])([H])[H])c([H])c([H])c4c3C35C1([H])C([H])(C4([H])[H])C3([H])N(C([H])([H])C1([H])C([H])([H])C1([H])[H])C([H])([H])C([H])([H])C51C([H])([H])C([H])([H])[N+]([H])(C([H])([H])C3([H])C([H])([H])C3([H])[H])C21[H]

$$$$
58:2:1
     RDKit          3D

 74 82  0  0  1  0  0  0  0  0999 V2000
    5.9043   -8.8964    1.4620 C   0  0  0  0  0  0  0  0  0  0  0  0
    5.3813   -7.7136    1.8055 C   0  0  0  0  0  0  0  0  0  0  0  0
    3.9149   -7.6841    2.3136 C   0  0  1  0  0  0  0  0  0  0  0  0
    3.1928   -8.3774    3.5251 C   0  0  1  0  0  0  0  0  0  0  0  0
    3.9762   -8.8952    4.7122 C   0  0  0  0  0  0  0  0  0  0  0  0
    4.9763   -7.8525    5.2005 C   0  0  0  0  0  0  0  0  0  0  0  0
    5.9143   -8.0571    6.2233 C   0  0  0  0  0  0  0  0  0  0  0  0
    7.0756   -7.2692    6.2480 C   0  0  0  0  0  0  0  0  0  0  0  0
    7.3918   -6.4511    5.1349 C   0  0  0  0  0  0  0  0  0  0  0  0
    8.6259   -5.8551    4.9776 O   0  0  0  0  0  0  0  0  0  0  0  0
    9.6162   -6.0580    5.9766 C   0  0  0  0  0  0  0  0  0  0  0  0
    6.4639   -6.2970    4.0711 C   0  0  0  0  0  0  0  0  0  0  0  0
    5.1515   -6.7822    4.2809 C   0  0  0  0  0  0  0  0  0  0  0  0
    3.9562   -6.5270    3.2504 C   0  0  2  0  0  0  0  0  0  0  0  0
    2.6500   -6.9529    3.8791 C   0  0  1  0  0  0  0  0  0  0  0  0
    1.4699   -6.1683    3.4750 N   0  0  0  0  0  0  0  0  0  0  0  0
    0.2241   -6.6282    4.0790 C   0  0  0  0  0  0  0  0  0  0  0  0
   -0.2835   -7.8643    3.3572 C   0  0  0  0  0  0  0  0  0  0  0  0
   -1.3340   -7.7480    2.2815 C   0  0  0  0  0  0  0  0  0  0  0  0
   -1.6764   -8.3687    3.6100 C   0  0  0  0  0  0  0  0  0  0  0  0
    1.7477   -4.7372    3.7920 C   0  0  0  0  0  0  0  0  0  0  0  0
    3.1855   -4.2273    3.3774 C   0  0  0  0  0  0  0  0  0  0  0  0
    3.8644   -5.2287    2.4089 C   0  0  2  0  0  0  0  0  0  0  0  0
    2.9472   -5.2058    1.0994 C   0  0  0  0  0  0  0  0  0  0  0  0
    3.5253   -4.1093    0.2628 C   0  0  0  0  0  0  0  0  0  0  0  0
    4.9760   -4.3409    0.3874 N   0  0  1  0  0  0  0  0  0  0  0  0
    5.8416   -3.1830    0.0268 C   0  0  0  0  0  0  0  0  0  0  0  0
    5.3433   -1.8469    0.5629 C   0  0  0  0  0  0  0  0  0  0  0  0
    6.2487   -0.6578    0.7378 C   0  0  0  0  0  0  0  0  0  0  0  0
    5.7339   -1.3857    1.9507 C   0  0  0  0  0  0  0  0  0  0  0  0
    5.2266   -4.9467    1.7326 C   0  0  2  0  0  0  0  0  0  0  0  0
    6.1328   -6.2744    1.7171 C   0  0  2  0  0  0  0  0  0  0  0  0
    6.9081   -6.2035    0.5453 O   0  0  0  0  0  0  0  0  0  0  0  0
    8.2601   -6.6855    0.5873 C   0  0  0  0  0  0  0  0  0  0  0  0
    6.9481   -6.0021    2.8264 O   0  0  0  0  0  0  0  0  0  0  0  0
    6.9114   -9.0135    1.0950 H   0  0  0  0  0  0  0  0  0  0  0  0
    5.3197   -9.8133    1.5524 H   0  0  0  0  0  0  0  0  0  0  0  0
    3.1866   -7.6960    1.5211 H   0  0  0  0  0  0  0  0  0  0  0  0
    2.4361   -9.0912    3.1892 H   0  0  0  0  0  0  0  0  0  0  0  0
    3.3129   -9.1665    5.5413 H   0  0  0  0  0  0  0  0  0  0  0  0
    4.5032   -9.8078    4.4330 H   0  0  0  0  0  0  0  0  0  0  0  0
    5.7837   -8.8637    6.9303 H   0  0  0  0  0  0  0  0  0  0  0  0
    7.7739   -7.4399    7.0471 H   0  0  0  0  0  0  0  0  0  0  0  0
   10.5108   -5.4993    5.7078 H   0  0  0  0  0  0  0  0  0  0  0  0
    9.9034   -7.1069    6.0530 H   0  0  0  0  0  0  0  0  0  0  0  0
    9.2992   -5.7007    6.9568 H   0  0  0  0  0  0  0  0  0  0  0  0
    2.6890   -6.7971    4.9609 H   0  0  0  0  0  0  0  0  0  0  0  0
    0.3420   -6.8290    5.1458 H   0  0  0  0  0  0  0  0  0  0  0  0
   -0.5343   -5.8488    3.9889 H   0  0  0  0  0  0  0  0  0  0  0  0
    0.4458   -8.6552    3.2185 H   0  0  0  0  0  0  0  0  0  0  0  0
   -1.7269   -6.7552    2.0787 H   0  0  0  0  0  0  0  0  0  0  0  0
   -1.2312   -8.4129    1.4249 H   0  0  0  0  0  0  0  0  0  0  0  0
   -1.7957   -9.4474    3.6423 H   0  0  0  0  0  0  0  0  0  0  0  0
   -2.2692   -7.7933    4.3133 H   0  0  0  0  0  0  0  0  0  0  0  0
    1.0174   -4.1520    3.2327 H   0  0  0  0  0  0  0  0  0  0  0  0
    1.5616   -4.5079    4.8432 H   0  0  0  0  0  0  0  0  0  0  0  0
    3.1588   -3.2099    2.9904 H   0  0  0  0  0  0  0  0  0  0  0  0
    3.7960   -4.1709    4.2810 H   0  0  0  0  0  0  0  0  0  0  0  0
    3.0061   -6.0746    0.4519 H   0  0  0  0  0  0  0  0  0  0  0  0
    1.8990   -4.9926    1.2600 H   0  0  0  0  0  0  0  0  0  0  0  0
    3.1886   -4.1121   -0.7787 H   0  0  0  0  0  0  0  0  0  0  0  0
    3.1830   -3.1783    0.7183 H   0  0  0  0  0  0  0  0  0  0  0  0
    6.8641   -3.3718    0.3596 H   0  0  0  0  0  0  0  0  0  0  0  0
    5.8923   -3.1123   -1.0596 H   0  0  0  0  0  0  0  0  0  0  0  0
    4.3749   -1.5268    0.1645 H   0  0  0  0  0  0  0  0  0  0  0  0
    7.3044   -0.7576    0.4860 H   0  0  0  0  0  0  0  0  0  0  0  0
    5.8018    0.3122    0.5238 H   0  0  0  0  0  0  0  0  0  0  0  0
    4.9538   -0.9176    2.5466 H   0  0  0  0  0  0  0  0  0  0  0  0
    6.4509   -1.9921    2.4975 H   0  0  0  0  0  0  0  0  0  0  0  0
    5.7333   -4.1896    2.3282 H   0  0  0  0  0  0  0  0  0  0  0  0
    8.6743   -6.6225   -0.4162 H   0  0  0  0  0  0  0  0  0  0  0  0
    8.3872   -7.7171    0.8960 H   0  0  0  0  0  0  0  0  0  0  0  0
    8.8880   -6.0849    1.2414 H   0  0  0  0  0  0  0  0  0  0  0  0
    5.2017   -5.0883   -0.2635 H   0  0  0  0  0  0  0  0  0  0  0  0
  1  2  2  0
  1 36  1  0
  1 37  1  0
  2 32  1  0
  2  3  1  0
  3 14  1  0
  3  4  1  0
  3 38  1  6
  4 15  1  0
  4  5  1  0
  4 39  1  6
  5  6  1  0
  5 40  1  0
  5 41  1  0
  6 13  2  0
  6  7  1  0
  7  8  2  0
  7 42  1  0
  8  9  1  0
  8 43  1  0
  9 10  1  0
  9 12  2  0
 10 11  1  0
 11 44  1  0
 11 45  1  0
 11 46  1  0
 12 35  1  0
 12 13  1  0
 14 13  1  1
 14 23  1  0
 14 15  1  0
 15 16  1  0
 15 47  1  1
 16 17  1  0
 16 21  1  0
 17 18  1  0
 17 48  1  0
 17 49  1  0
 18 20  1  0
 18 19  1  0
 18 50  1  0
 19 20  1  0
 19 51  1  0
 19 52  1  0
 20 53  1  0
 20 54  1  0
 21 22  1  0
 21 55  1  0
 21 56  1  0
 23 22  1  1
 22 57  1  0
 22 58  1  0
 23 31  1  0
 23 24  1  0
 24 25  1  0
 24 59  1  0
 24 60  1  0
 25 26  1  0
 25 61  1  0
 25 62  1  0
 26 27  1  0
 26 31  1  0
 26 74  1  6
 27 28  1  0
 27 63  1  0
 27 64  1  0
 28 30  1  0
 28 29  1  0
 28 65  1  0
 29 30  1  0
 29 66  1  0
 29 67  1  0
 30 68  1  0
 30 69  1  0
 31 32  1  0
 31 70  1  1
 32 33  1  6
 32 35  1  0
 33 34  1  0
 34 71  1  0
 34 72  1  0
 34 73  1  0
M  CHG  1  26   1
M  END
>  <i_m_ct_stereo_status>  (183) 
1

>  <s_m_source_file>  (183) 
/var/tmp/pbs.5076255.sched01/tmp1pt1fpgk/39zsbf0m6x.sdf

>  <i_m_source_file_index>  (183) 
37

>  <i_lp_mmshare_version>  (183) 
48012

>  <i_f3d_flags>  (183) 
0

>  <s_epik_input>  (183) 
W0NIMl0xW0NIMl1bQ0hdMVtDSDJdTihbQ0gyXVtDSDJdMilbQ0BASF0oW0NAXTIzW0NAQF00NTYpW0NAXTcoT1tDSDNdKUMoPVtDSDJdKVtDQEhdNFtDQEhdKFtDQEBIXTZOKFtDSDJdW0NIMl0zKVtDSDJdW0NIXThbQ0gyXVtDSDJdOClbQ0gyXWM5YzVjKE83KWMoW2NIXVtjSF05KU9bQ0gzXQ==

>  <s_epik_cmdline>  (183) 
J2VwaWtfcHl0aG9uJywgJy1waHQnLCAnMi4wJywgJy1waCcsICc3LjAnLCAnLXRuJywgJzgnLCAnLW1hJywgJzIwMCcsICctaW1hZScsICc8aW5maWxlLm1hZT4nLCAnLW9tYWUnLCAnPG91dGZpbGUubWFlPic=

>  <r_epik_Ionization_Penalty>  (183) 
0.637654

>  <r_epik_Ionization_Penalty_Charging>  (183) 
0.0525742

>  <r_epik_Ionization_Penalty_Neutral>  (183) 
0.58508

>  <r_epik_State_Penalty>  (183) 
1.05291

>  <r_epik_Charging_Adjusted_Penalty>  (183) 
1.10549

>  <i_epik_Tot_Q>  (183) 
1

>  <i_epik_Tot_abs_Q>  (183) 
1

>  <s_lp_Force_Field>  (183) 
OPLS3e

>  <r_lp_Energy>  (183) 
190.416

>  <b_lp_Chiralities_Consistent>  (183) 
1

>  <s_lp_Variant>  (183) 
58:0-3

>  <s_i_glide_gridfile>  (183) 
pfpi4k_grid

>  <i_i_glide_lignum>  (183) 
37

>  <i_i_glide_rotatable_bonds>  (183) 
6

>  <r_i_docking_score>  (183) 
-2.03394

>  <r_i_glide_ligand_efficiency>  (183) 
-0.0581126

>  <r_i_glide_ligand_efficiency_sa>  (183) 
-0.19009

>  <r_i_glide_ligand_efficiency_ln>  (183) 
-0.446495

>  <r_i_glide_gscore>  (183) 
-2.03394

>  <r_i_glide_lipo>  (183) 
-0.530927

>  <r_i_glide_hbond>  (183) 
0

>  <r_i_glide_metal>  (183) 
-0

>  <r_i_glide_rewards>  (183) 
-0.264184

>  <r_i_glide_evdw>  (183) 
-23.5892

>  <r_i_glide_ecoul>  (183) 
-2.78198

>  <r_i_glide_erotb>  (183) 
0.357926

>  <r_i_glide_esite>  (183) 
0

>  <r_i_glide_emodel>  (183) 
-25.5021

>  <r_i_glide_energy>  (183) 
-26.3712

>  <r_i_glide_einternal>  (183) 
6.79242

>  <r_i_glide_intrahb_reward>  (183) 
-0

>  <i_i_glide_confnum>  (183) 
5

>  <i_i_glide_posenum>  (183) 
32

>  <r_i_glide_eff_state_penalty>  (183) 
0

>  <ligand_id>  (183) 
58

>  <original_smiles>  (183) 
C=C1C2C3Cc4ccc(OC)c5c4C24C3N(CC2CC2)CCC42CCN(CC3CC3)C2C1(OC)O5

>  <smiles>  (183) 
[H]C([H])=C1C2(OC([H])([H])[H])Oc3c(OC([H])([H])[H])c([H])c([H])c4c3C35C1([H])C([H])(C4([H])[H])C3([H])N(C([H])([H])C1([H])C([H])([H])C1([H])[H])C([H])([H])C([H])([H])C51C([H])([H])C([H])([H])[N+]([H])(C([H])([H])C3([H])C([H])([H])C3([H])[H])C21[H]

$$$$
58:2:2
     RDKit          3D

 74 82  0  0  1  0  0  0  0  0999 V2000
    5.5410   -9.0592    1.1007 C   0  0  0  0  0  0  0  0  0  0  0  0
    4.9321   -8.0367    1.7151 C   0  0  0  0  0  0  0  0  0  0  0  0
    3.3983   -8.0927    2.0195 C   0  0  1  0  0  0  0  0  0  0  0  0
    2.4968   -9.0764    2.8492 C   0  0  1  0  0  0  0  0  0  0  0  0
    3.0899  -10.0240    3.8734 C   0  0  0  0  0  0  0  0  0  0  0  0
    4.0573   -9.2744    4.7856 C   0  0  0  0  0  0  0  0  0  0  0  0
    4.8445   -9.8752    5.7849 C   0  0  0  0  0  0  0  0  0  0  0  0
    6.0141   -9.2243    6.1997 C   0  0  0  0  0  0  0  0  0  0  0  0
    6.4845   -8.0969    5.4918 C   0  0  0  0  0  0  0  0  0  0  0  0
    7.7529   -7.6505    5.7805 O   0  0  0  0  0  0  0  0  0  0  0  0
    7.9304   -6.2398    5.8521 C   0  0  0  0  0  0  0  0  0  0  0  0
    5.7273   -7.5455    4.4114 C   0  0  0  0  0  0  0  0  0  0  0  0
    4.3888   -7.9770    4.3085 C   0  0  0  0  0  0  0  0  0  0  0  0
    3.3612   -7.3020    3.2852 C   0  0  2  0  0  0  0  0  0  0  0  0
    1.9694   -7.8050    3.5849 C   0  0  1  0  0  0  0  0  0  0  0  0
    0.8835   -6.8380    3.3283 N   0  0  0  0  0  0  0  0  0  0  0  0
   -0.4467   -7.3747    3.6016 C   0  0  0  0  0  0  0  0  0  0  0  0
   -0.8154   -8.3958    2.5551 C   0  0  0  0  0  0  0  0  0  0  0  0
   -2.0371   -9.2498    2.7446 C   0  0  0  0  0  0  0  0  0  0  0  0
   -0.6750   -9.8630    2.8666 C   0  0  0  0  0  0  0  0  0  0  0  0
    1.1649   -5.6231    4.1317 C   0  0  0  0  0  0  0  0  0  0  0  0
    2.6652   -5.1220    4.0865 C   0  0  0  0  0  0  0  0  0  0  0  0
    3.4370   -5.8031    2.9284 C   0  0  2  0  0  0  0  0  0  0  0  0
    2.7045   -5.2642    1.6197 C   0  0  0  0  0  0  0  0  0  0  0  0
    3.4469   -4.0067    1.2590 C   0  0  0  0  0  0  0  0  0  0  0  0
    4.8606   -4.3885    1.4403 N   0  0  1  0  0  0  0  0  0  0  0  0
    5.7440   -3.2212    1.5657 C   0  0  0  0  0  0  0  0  0  0  0  0
    5.6517   -2.2249    0.4355 C   0  0  0  0  0  0  0  0  0  0  0  0
    6.0932   -0.7932    0.6638 C   0  0  0  0  0  0  0  0  0  0  0  0
    4.6296   -1.1081    0.4290 C   0  0  0  0  0  0  0  0  0  0  0  0
    4.8815   -5.3992    2.5209 C   0  0  2  0  0  0  0  0  0  0  0  0
    5.7159   -6.7209    2.1831 C   0  0  2  0  0  0  0  0  0  0  0  0
    6.6515   -6.3760    1.1731 O   0  0  0  0  0  0  0  0  0  0  0  0
    7.9053   -5.8326    1.5662 C   0  0  0  0  0  0  0  0  0  0  0  0
    6.4006   -6.9443    3.3904 O   0  0  0  0  0  0  0  0  0  0  0  0
    6.5984   -9.0142    0.8899 H   0  0  0  0  0  0  0  0  0  0  0  0
    4.9974   -9.9351    0.7789 H   0  0  0  0  0  0  0  0  0  0  0  0
    2.8027   -7.7831    1.1842 H   0  0  0  0  0  0  0  0  0  0  0  0
    1.7456   -9.5425    2.2071 H   0  0  0  0  0  0  0  0  0  0  0  0
    2.3139  -10.4963    4.4860 H   0  0  0  0  0  0  0  0  0  0  0  0
    3.6109  -10.8392    3.3637 H   0  0  0  0  0  0  0  0  0  0  0  0
    4.5877  -10.8533    6.1707 H   0  0  0  0  0  0  0  0  0  0  0  0
    6.6203   -9.6688    6.9621 H   0  0  0  0  0  0  0  0  0  0  0  0
    8.9891   -6.0068    5.9632 H   0  0  0  0  0  0  0  0  0  0  0  0
    7.4024   -5.8620    6.7248 H   0  0  0  0  0  0  0  0  0  0  0  0
    7.5834   -5.6842    4.9852 H   0  0  0  0  0  0  0  0  0  0  0  0
    1.8640   -8.0217    4.6515 H   0  0  0  0  0  0  0  0  0  0  0  0
   -0.5215   -7.8150    4.5987 H   0  0  0  0  0  0  0  0  0  0  0  0
   -1.1767   -6.5705    3.5514 H   0  0  0  0  0  0  0  0  0  0  0  0
   -0.6164   -8.0934    1.5266 H   0  0  0  0  0  0  0  0  0  0  0  0
   -2.5922   -9.1154    3.6788 H   0  0  0  0  0  0  0  0  0  0  0  0
   -2.6269   -9.5237    1.8722 H   0  0  0  0  0  0  0  0  0  0  0  0
   -0.3423  -10.5221    2.0698 H   0  0  0  0  0  0  0  0  0  0  0  0
   -0.2942  -10.1075    3.8570 H   0  0  0  0  0  0  0  0  0  0  0  0
    0.5477   -4.8301    3.7131 H   0  0  0  0  0  0  0  0  0  0  0  0
    0.8421   -5.7287    5.1725 H   0  0  0  0  0  0  0  0  0  0  0  0
    2.7326   -4.0353    4.0591 H   0  0  0  0  0  0  0  0  0  0  0  0
    3.1468   -5.4213    5.0208 H   0  0  0  0  0  0  0  0  0  0  0  0
    2.8167   -5.8760    0.7291 H   0  0  0  0  0  0  0  0  0  0  0  0
    1.6403   -5.0471    1.7079 H   0  0  0  0  0  0  0  0  0  0  0  0
    3.2209   -3.6524    0.2539 H   0  0  0  0  0  0  0  0  0  0  0  0
    3.1893   -3.2085    1.9625 H   0  0  0  0  0  0  0  0  0  0  0  0
    5.5765   -2.7036    2.5360 H   0  0  0  0  0  0  0  0  0  0  0  0
    6.8062   -3.4779    1.5249 H   0  0  0  0  0  0  0  0  0  0  0  0
    5.9791   -2.6320   -0.5197 H   0  0  0  0  0  0  0  0  0  0  0  0
    6.3759   -0.5089    1.6730 H   0  0  0  0  0  0  0  0  0  0  0  0
    6.5988   -0.2680   -0.1287 H   0  0  0  0  0  0  0  0  0  0  0  0
    4.1905   -0.8932   -0.5441 H   0  0  0  0  0  0  0  0  0  0  0  0
    3.9624   -1.0925    1.2851 H   0  0  0  0  0  0  0  0  0  0  0  0
    5.3441   -4.9209    3.3990 H   0  0  0  0  0  0  0  0  0  0  0  0
    8.4514   -5.5827    0.6611 H   0  0  0  0  0  0  0  0  0  0  0  0
    8.5272   -6.4987    2.1619 H   0  0  0  0  0  0  0  0  0  0  0  0
    7.8066   -4.9243    2.1544 H   0  0  0  0  0  0  0  0  0  0  0  0
    5.1110   -4.8928    0.5763 H   0  0  0  0  0  0  0  0  0  0  0  0
  1  2  2  0
  1 36  1  0
  1 37  1  0
  2 32  1  0
  2  3  1  0
  3 14  1  0
  3  4  1  0
  3 38  1  6
  4 15  1  0
  4  5  1  0
  4 39  1  6
  5  6  1  0
  5 40  1  0
  5 41  1  0
  6 13  2  0
  6  7  1  0
  7  8  2  0
  7 42  1  0
  8  9  1  0
  8 43  1  0
  9 10  1  0
  9 12  2  0
 10 11  1  0
 11 44  1  0
 11 45  1  0
 11 46  1  0
 12 35  1  0
 12 13  1  0
 14 13  1  1
 14 23  1  0
 14 15  1  0
 15 16  1  0
 15 47  1  1
 16 17  1  0
 16 21  1  0
 17 18  1  0
 17 48  1  0
 17 49  1  0
 18 20  1  0
 18 19  1  0
 18 50  1  0
 19 20  1  0
 19 51  1  0
 19 52  1  0
 20 53  1  0
 20 54  1  0
 21 22  1  0
 21 55  1  0
 21 56  1  0
 23 22  1  1
 22 57  1  0
 22 58  1  0
 23 31  1  0
 23 24  1  0
 24 25  1  0
 24 59  1  0
 24 60  1  0
 25 26  1  0
 25 61  1  0
 25 62  1  0
 26 27  1  0
 26 31  1  0
 26 74  1  6
 27 28  1  0
 27 63  1  0
 27 64  1  0
 28 30  1  0
 28 29  1  0
 28 65  1  0
 29 30  1  0
 29 66  1  0
 29 67  1  0
 30 68  1  0
 30 69  1  0
 31 32  1  0
 31 70  1  1
 32 33  1  6
 32 35  1  0
 33 34  1  0
 34 71  1  0
 34 72  1  0
 34 73  1  0
M  CHG  1  26   1
M  END
>  <i_m_ct_stereo_status>  (184) 
1

>  <s_m_source_file>  (184) 
/var/tmp/pbs.5076255.sched01/tmp1pt1fpgk/39zsbf0m6x.sdf

>  <i_m_source_file_index>  (184) 
37

>  <i_lp_mmshare_version>  (184) 
48012

>  <i_f3d_flags>  (184) 
0

>  <s_epik_input>  (184) 
W0NIMl0xW0NIMl1bQ0hdMVtDSDJdTihbQ0gyXVtDSDJdMilbQ0BASF0oW0NAXTIzW0NAQF00NTYpW0NAXTcoT1tDSDNdKUMoPVtDSDJdKVtDQEhdNFtDQEhdKFtDQEBIXTZOKFtDSDJdW0NIMl0zKVtDSDJdW0NIXThbQ0gyXVtDSDJdOClbQ0gyXWM5YzVjKE83KWMoW2NIXVtjSF05KU9bQ0gzXQ==

>  <s_epik_cmdline>  (184) 
J2VwaWtfcHl0aG9uJywgJy1waHQnLCAnMi4wJywgJy1waCcsICc3LjAnLCAnLXRuJywgJzgnLCAnLW1hJywgJzIwMCcsICctaW1hZScsICc8aW5maWxlLm1hZT4nLCAnLW9tYWUnLCAnPG91dGZpbGUubWFlPic=

>  <r_epik_Ionization_Penalty>  (184) 
0.637654

>  <r_epik_Ionization_Penalty_Charging>  (184) 
0.0525742

>  <r_epik_Ionization_Penalty_Neutral>  (184) 
0.58508

>  <r_epik_State_Penalty>  (184) 
1.05291

>  <r_epik_Charging_Adjusted_Penalty>  (184) 
1.10549

>  <i_epik_Tot_Q>  (184) 
1

>  <i_epik_Tot_abs_Q>  (184) 
1

>  <s_lp_Force_Field>  (184) 
OPLS3e

>  <r_lp_Energy>  (184) 
190.416

>  <b_lp_Chiralities_Consistent>  (184) 
1

>  <s_lp_Variant>  (184) 
58:0-3

>  <s_i_glide_gridfile>  (184) 
pfpi4k_grid

>  <i_i_glide_lignum>  (184) 
37

>  <i_i_glide_rotatable_bonds>  (184) 
6

>  <r_i_docking_score>  (184) 
-1.90406

>  <r_i_glide_ligand_efficiency>  (184) 
-0.0544017

>  <r_i_glide_ligand_efficiency_sa>  (184) 
-0.177952

>  <r_i_glide_ligand_efficiency_ln>  (184) 
-0.417983

>  <r_i_glide_gscore>  (184) 
-1.90406

>  <r_i_glide_lipo>  (184) 
-0.381025

>  <r_i_glide_hbond>  (184) 
0

>  <r_i_glide_metal>  (184) 
-0

>  <r_i_glide_rewards>  (184) 
-0.205184

>  <r_i_glide_evdw>  (184) 
-24.7769

>  <r_i_glide_ecoul>  (184) 
-2.91286

>  <r_i_glide_erotb>  (184) 
0.357926

>  <r_i_glide_esite>  (184) 
0

>  <r_i_glide_emodel>  (184) 
-26.3089

>  <r_i_glide_energy>  (184) 
-27.6898

>  <r_i_glide_einternal>  (184) 
6.6708

>  <r_i_glide_intrahb_reward>  (184) 
-0

>  <i_i_glide_confnum>  (184) 
5

>  <i_i_glide_posenum>  (184) 
14

>  <r_i_glide_eff_state_penalty>  (184) 
0

>  <ligand_id>  (184) 
58

>  <original_smiles>  (184) 
C=C1C2C3Cc4ccc(OC)c5c4C24C3N(CC2CC2)CCC42CCN(CC3CC3)C2C1(OC)O5

>  <smiles>  (184) 
[H]C([H])=C1C2(OC([H])([H])[H])Oc3c(OC([H])([H])[H])c([H])c([H])c4c3C35C1([H])C([H])(C4([H])[H])C3([H])N(C([H])([H])C1([H])C([H])([H])C1([H])[H])C([H])([H])C([H])([H])C51C([H])([H])C([H])([H])[N+]([H])(C([H])([H])C3([H])C([H])([H])C3([H])[H])C21[H]

$$$$
59:0:0
     RDKit          3D

 69 75  0  0  1  0  0  0  0  0999 V2000
    2.8207   -3.1634   -2.0902 C   0  0  0  0  0  0  0  0  0  0  0  0
    3.0153   -2.3927   -0.8370 N   0  0  2  0  0  0  0  0  0  0  0  0
    4.0855   -1.3585   -0.9669 C   0  0  0  0  0  0  0  0  0  0  0  0
    4.3577   -0.6787    0.4017 C   0  0  2  0  0  0  0  0  0  0  0  0
    4.8820   -1.7435    1.1966 O   0  0  0  0  0  0  0  0  0  0  0  0
    3.7615   -2.5133    1.6227 C   0  0  2  0  0  0  0  0  0  0  0  0
    4.2509   -3.5045    2.6948 C   0  0  0  0  0  0  0  0  0  0  0  0
    3.2291   -3.2732    0.3573 C   0  0  0  0  0  0  0  0  0  0  0  0
    2.8680   -1.3721    2.1694 C   0  0  1  0  0  0  0  0  0  0  0  0
    1.3582   -1.5052    2.4013 C   0  0  0  0  0  0  0  0  0  0  0  0
    1.1482   -0.2980    3.3642 C   0  0  1  0  0  0  0  0  0  0  0  0
   -0.1955    0.4254    3.1430 C   0  0  0  0  0  0  0  0  0  0  0  0
    1.3261   -0.8334    4.8057 C   0  0  1  0  0  0  0  0  0  0  0  0
    0.4191   -1.8545    5.1869 O   0  0  0  0  0  0  0  0  0  0  0  0
    2.7989   -1.2860    4.7880 C   0  0  0  0  0  0  0  0  0  0  0  0
    3.3479   -0.6724    3.4641 C   0  0  2  0  0  0  0  0  0  0  0  0
    2.4809    0.5407    3.1820 C   0  0  2  0  0  0  0  0  0  0  0  0
    2.7204    1.7661    4.0954 C   0  0  0  0  0  0  0  0  0  0  0  0
    3.7704    1.8095    4.7324 O   0  0  0  0  0  0  0  0  0  0  0  0
    1.6826    2.8296    4.1112 C   0  0  0  0  0  0  0  0  0  0  0  0
    1.5626    3.9004    4.9354 C   0  0  0  0  0  0  0  0  0  0  0  0
    2.4674    4.3492    6.0213 C   0  0  0  0  0  0  0  0  0  0  0  0
    3.5916    3.9374    6.2896 O   0  0  0  0  0  0  0  0  0  0  0  0
    1.8782    5.3484    6.6676 O   0  0  0  0  0  0  0  0  0  0  0  0
    0.5127    5.5090    6.3394 C   0  0  1  0  0  0  0  0  0  0  0  0
    0.0547    6.9342    6.5335 C   0  0  0  0  0  0  0  0  0  0  0  0
   -0.7836    7.3808    7.5965 C   0  0  0  0  0  0  0  0  0  0  0  0
   -0.9441    8.7286    7.4348 C   0  0  0  0  0  0  0  0  0  0  0  0
   -0.2599    9.1637    6.3480 O   0  0  0  0  0  0  0  0  0  0  0  0
    0.3614    8.0688    5.8310 C   0  0  0  0  0  0  0  0  0  0  0  0
    0.3858    4.8634    4.9278 C   0  0  0  0  0  0  0  0  0  0  0  0
    0.5631    5.8397    3.7423 C   0  0  0  0  0  0  0  0  0  0  0  0
   -0.9967    4.1768    4.8066 C   0  0  0  0  0  0  0  0  0  0  0  0
    2.9052    0.8969    1.8621 O   0  0  0  0  0  0  0  0  0  0  0  0
    3.0408   -0.2931    1.1158 C   0  0  1  0  0  0  0  0  0  0  0  0
    3.7164   -3.7353   -2.3566 H   0  0  0  0  0  0  0  0  0  0  0  0
    2.5768   -2.4858   -2.9147 H   0  0  0  0  0  0  0  0  0  0  0  0
    1.9822   -3.8606   -1.9722 H   0  0  0  0  0  0  0  0  0  0  0  0
    5.0115   -1.8174   -1.3277 H   0  0  0  0  0  0  0  0  0  0  0  0
    3.7760   -0.6216   -1.7162 H   0  0  0  0  0  0  0  0  0  0  0  0
    5.0659    0.1497    0.3190 H   0  0  0  0  0  0  0  0  0  0  0  0
    3.4209   -4.0547    3.1330 H   0  0  0  0  0  0  0  0  0  0  0  0
    4.7836   -2.9897    3.4968 H   0  0  0  0  0  0  0  0  0  0  0  0
    4.9518   -4.2287    2.2722 H   0  0  0  0  0  0  0  0  0  0  0  0
    2.2954   -3.8005    0.5881 H   0  0  0  0  0  0  0  0  0  0  0  0
    3.9669   -4.0348    0.0847 H   0  0  0  0  0  0  0  0  0  0  0  0
    0.7805   -1.4067    1.4849 H   0  0  0  0  0  0  0  0  0  0  0  0
    1.1004   -2.4735    2.8335 H   0  0  0  0  0  0  0  0  0  0  0  0
   -0.3966    1.1534    3.9308 H   0  0  0  0  0  0  0  0  0  0  0  0
   -1.0294   -0.2705    3.1356 H   0  0  0  0  0  0  0  0  0  0  0  0
   -0.1937    0.9564    2.1892 H   0  0  0  0  0  0  0  0  0  0  0  0
    1.2028   -0.0250    5.5243 H   0  0  0  0  0  0  0  0  0  0  0  0
    0.5863   -2.6141    4.6507 H   0  0  0  0  0  0  0  0  0  0  0  0
    3.3308   -0.8930    5.6568 H   0  0  0  0  0  0  0  0  0  0  0  0
    2.9023   -2.3714    4.8084 H   0  0  0  0  0  0  0  0  0  0  0  0
    4.4209   -0.4627    3.4794 H   0  0  0  0  0  0  0  0  0  0  0  0
    0.9007    2.7241    3.3792 H   0  0  0  0  0  0  0  0  0  0  0  0
   -0.0207    4.8866    7.0616 H   0  0  0  0  0  0  0  0  0  0  0  0
   -1.2049    6.7830    8.3917 H   0  0  0  0  0  0  0  0  0  0  0  0
   -1.4763    9.4888    7.9845 H   0  0  0  0  0  0  0  0  0  0  0  0
    0.9706    8.2778    4.9634 H   0  0  0  0  0  0  0  0  0  0  0  0
   -0.2252    6.5898    3.6933 H   0  0  0  0  0  0  0  0  0  0  0  0
    0.5483    5.3114    2.7903 H   0  0  0  0  0  0  0  0  0  0  0  0
    1.5256    6.3534    3.8025 H   0  0  0  0  0  0  0  0  0  0  0  0
   -1.7866    4.9132    4.9295 H   0  0  0  0  0  0  0  0  0  0  0  0
   -1.1519    3.4097    5.5659 H   0  0  0  0  0  0  0  0  0  0  0  0
   -1.1556    3.7207    3.8260 H   0  0  0  0  0  0  0  0  0  0  0  0
    2.2165   -0.2453    0.4148 H   0  0  0  0  0  0  0  0  0  0  0  0
    2.1386   -1.8716   -0.7046 H   0  0  0  0  0  0  0  0  0  0  0  0
  1  2  1  0
  1 36  1  0
  1 37  1  0
  1 38  1  0
  2  8  1  0
  2  3  1  0
  2 69  1  1
  3  4  1  0
  3 39  1  0
  3 40  1  0
  4 35  1  0
  4  5  1  0
  4 41  1  6
  5  6  1  0
  6  7  1  1
  6  8  1  0
  6  9  1  0
  7 42  1  0
  7 43  1  0
  7 44  1  0
  8 45  1  0
  8 46  1  0
  9 16  1  0
  9 35  1  0
  9 10  1  1
 10 11  1  0
 10 47  1  0
 10 48  1  0
 11 17  1  0
 11 12  1  1
 11 13  1  0
 12 49  1  0
 12 50  1  0
 12 51  1  0
 13 14  1  0
 13 15  1  0
 13 52  1  1
 14 53  1  0
 15 16  1  0
 15 54  1  0
 15 55  1  0
 16 17  1  0
 16 56  1  1
 17 18  1  1
 17 34  1  0
 18 19  2  0
 18 20  1  0
 20 21  2  3
 20 57  1  0
 21 31  1  0
 21 22  1  0
 22 23  2  0
 22 24  1  0
 24 25  1  0
 25 26  1  0
 25 31  1  0
 25 58  1  1
 26 30  2  0
 26 27  1  0
 27 28  2  0
 27 59  1  0
 28 29  1  0
 28 60  1  0
 29 30  1  0
 30 61  1  0
 31 32  1  0
 31 33  1  0
 32 62  1  0
 32 63  1  0
 32 64  1  0
 33 65  1  0
 33 66  1  0
 33 67  1  0
 34 35  1  0
 35 68  1  6
M  CHG  1   2   1
M  END
>  <i_m_ct_stereo_status>  (185) 
1

>  <s_m_source_file>  (185) 
/var/tmp/pbs.5076255.sched01/tmp1pt1fpgk/39zsbf0m6x.sdf

>  <i_m_source_file_index>  (185) 
38

>  <i_lp_mmshare_version>  (185) 
48012

>  <i_f3d_flags>  (185) 
0

>  <s_epik_input>  (185) 
W0NIM11OKFtDSDJdMSlbQ0gyXVtDQEhdKE9bQ0BdMShbQ0BAXTIzNClbQ0gzXSlbQ0BASF00T1tDQF01KFtDQF0oW0NIMl0yKShbQ0gzXSlbQ0BASF0oW09IXSlbQ0gyXVtDQEBIXTM1KUMoPU8pL1tDSF09QyhDNihbQ0gzXSlbQ0gzXSlcQyg9TylPW0NASF02YzdbY0hdW2NIXW9bY0hdNw==

>  <s_epik_cmdline>  (185) 
J2VwaWtfcHl0aG9uJywgJy1waHQnLCAnMi4wJywgJy1waCcsICc3LjAnLCAnLXRuJywgJzgnLCAnLW1hJywgJzIwMCcsICctaW1hZScsICc8aW5maWxlLm1hZT4nLCAnLW9tYWUnLCAnPG91dGZpbGUubWFlPic=

>  <r_epik_Ionization_Penalty>  (185) 
0.253973

>  <r_epik_Ionization_Penalty_Charging>  (185) 
0.253973

>  <r_epik_Ionization_Penalty_Neutral>  (185) 
1.18036e-07

>  <r_epik_State_Penalty>  (185) 
0.245429

>  <r_epik_Charging_Adjusted_Penalty>  (185) 
0.499401

>  <i_epik_Tot_Q>  (185) 
1

>  <i_epik_Tot_abs_Q>  (185) 
1

>  <s_epik_Chemistry_Notes>  (185) 
This compound has an ester and may undergo hydrolysis at high or low pH.

>  <s_lp_Force_Field>  (185) 
OPLS3e

>  <r_lp_Energy>  (185) 
89.2719

>  <b_lp_Chiralities_Consistent>  (185) 
1

>  <s_lp_Variant>  (185) 
59:0-1

>  <s_i_glide_gridfile>  (185) 
pfpi4k_grid

>  <i_i_glide_lignum>  (185) 
38

>  <i_i_glide_rotatable_bonds>  (185) 
4

>  <r_i_docking_score>  (185) 
-2.85804

>  <r_i_glide_ligand_efficiency>  (185) 
-0.0816582

>  <r_i_glide_ligand_efficiency_sa>  (185) 
-0.267109

>  <r_i_glide_ligand_efficiency_ln>  (185) 
-0.627403

>  <r_i_glide_gscore>  (185) 
-2.85804

>  <r_i_glide_lipo>  (185) 
-0.117243

>  <r_i_glide_hbond>  (185) 
-0.2

>  <r_i_glide_metal>  (185) 
-0

>  <r_i_glide_rewards>  (185) 
-0.105263

>  <r_i_glide_evdw>  (185) 
-23.9777

>  <r_i_glide_ecoul>  (185) 
-9.41783

>  <r_i_glide_erotb>  (185) 
0.259483

>  <r_i_glide_esite>  (185) 
-0.0834549

>  <r_i_glide_emodel>  (185) 
-39.7348

>  <r_i_glide_energy>  (185) 
-33.3955

>  <r_i_glide_einternal>  (185) 
2.21962

>  <r_i_glide_intrahb_reward>  (185) 
-0

>  <i_i_glide_confnum>  (185) 
1

>  <i_i_glide_posenum>  (185) 
4

>  <r_i_glide_eff_state_penalty>  (185) 
0

>  <ligand_id>  (185) 
59

>  <original_smiles>  (185) 
CN1CC2OC(C)(C1)C13CC4(C)C(O)CC1C4(C(=O)C=C1C(=O)OC(c4ccoc4)C1(C)C)OC23

>  <smiles>  (185) 
[H]OC1([H])C([H])([H])C2([H])C3(C(=O)C([H])=C4C(=O)OC([H])(c5c([H])oc([H])c5[H])C4(C([H])([H])[H])C([H])([H])[H])OC4([H])C5([H])OC(C([H])([H])[H])(C42C([H])([H])C13C([H])([H])[H])C([H])([H])[N+]([H])(C([H])([H])[H])C5([H])[H]

$$$$
59:0:1
     RDKit          3D

 69 75  0  0  1  0  0  0  0  0999 V2000
    3.1857   -3.5651   -4.0995 C   0  0  0  0  0  0  0  0  0  0  0  0
    3.6072   -2.9410   -2.8258 N   0  0  2  0  0  0  0  0  0  0  0  0
    3.9708   -1.5012   -3.0120 C   0  0  0  0  0  0  0  0  0  0  0  0
    4.5266   -0.9373   -1.7092 C   0  0  2  0  0  0  0  0  0  0  0  0
    5.7433   -1.6599   -1.5329 O   0  0  0  0  0  0  0  0  0  0  0  0
    5.3560   -2.9128   -0.9654 C   0  0  2  0  0  0  0  0  0  0  0  0
    6.6227   -3.6257   -0.4737 C   0  0  0  0  0  0  0  0  0  0  0  0
    4.6793   -3.7085   -2.1079 C   0  0  0  0  0  0  0  0  0  0  0  0
    4.4249   -2.4295    0.1681 C   0  0  1  0  0  0  0  0  0  0  0  0
    3.3681   -3.3048    0.8646 C   0  0  0  0  0  0  0  0  0  0  0  0
    3.1575   -2.4337    2.1460 C   0  0  1  0  0  0  0  0  0  0  0  0
    1.7083   -2.3731    2.6512 C   0  0  0  0  0  0  0  0  0  0  0  0
    4.1614   -2.9540    3.2023 C   0  0  1  0  0  0  0  0  0  0  0  0
    4.0479   -4.3232    3.4944 O   0  0  0  0  0  0  0  0  0  0  0  0
    5.5082   -2.6447    2.5237 C   0  0  0  0  0  0  0  0  0  0  0  0
    5.1073   -1.7097    1.3486 C   0  0  2  0  0  0  0  0  0  0  0  0
    3.8046   -1.0528    1.7564 C   0  0  2  0  0  0  0  0  0  0  0  0
    3.9101    0.0304    2.8607 C   0  0  0  0  0  0  0  0  0  0  0  0
    4.8605   -0.0245    3.6348 O   0  0  0  0  0  0  0  0  0  0  0  0
    2.8916    1.1125    2.8902 C   0  0  0  0  0  0  0  0  0  0  0  0
    2.7381    2.1269    3.7878 C   0  0  0  0  0  0  0  0  0  0  0  0
    3.4413    2.3872    5.0661 C   0  0  0  0  0  0  0  0  0  0  0  0
    4.4747    1.8885    5.5046 O   0  0  0  0  0  0  0  0  0  0  0  0
    2.7801    3.3429    5.7106 O   0  0  0  0  0  0  0  0  0  0  0  0
    1.5466    3.6995    5.1248 C   0  0  1  0  0  0  0  0  0  0  0  0
    1.2081    5.1424    5.4419 C   0  0  0  0  0  0  0  0  0  0  0  0
    1.4367    5.7849    6.6880 C   0  0  0  0  0  0  0  0  0  0  0  0
    0.9260    7.0565    6.5833 C   0  0  0  0  0  0  0  0  0  0  0  0
    0.3475    7.2313    5.3747 O   0  0  0  0  0  0  0  0  0  0  0  0
    0.5112    6.0775    4.6853 C   0  0  0  0  0  0  0  0  0  0  0  0
    1.6911    3.2233    3.6575 C   0  0  0  0  0  0  0  0  0  0  0  0
    2.2470    4.2799    2.6587 C   0  0  0  0  0  0  0  0  0  0  0  0
    0.3199    2.6975    3.1825 C   0  0  0  0  0  0  0  0  0  0  0  0
    3.4132   -0.4235    0.5379 O   0  0  0  0  0  0  0  0  0  0  0  0
    3.6479   -1.3283   -0.5148 C   0  0  1  0  0  0  0  0  0  0  0  0
    4.0282   -3.6255   -4.7822 H   0  0  0  0  0  0  0  0  0  0  0  0
    2.3602   -3.0154   -4.5550 H   0  0  0  0  0  0  0  0  0  0  0  0
    2.8104   -4.5719   -3.9525 H   0  0  0  0  0  0  0  0  0  0  0  0
    4.7139   -1.3990   -3.7913 H   0  0  0  0  0  0  0  0  0  0  0  0
    3.0857   -0.9567   -3.3275 H   0  0  0  0  0  0  0  0  0  0  0  0
    4.6719    0.1356   -1.8221 H   0  0  0  0  0  0  0  0  0  0  0  0
    6.3730   -4.5561    0.0408 H   0  0  0  0  0  0  0  0  0  0  0  0
    7.1920   -2.9938    0.2084 H   0  0  0  0  0  0  0  0  0  0  0  0
    7.2817   -3.8580   -1.3104 H   0  0  0  0  0  0  0  0  0  0  0  0
    4.2631   -4.6332   -1.7046 H   0  0  0  0  0  0  0  0  0  0  0  0
    5.4491   -3.9795   -2.8277 H   0  0  0  0  0  0  0  0  0  0  0  0
    2.4524   -3.4177    0.2850 H   0  0  0  0  0  0  0  0  0  0  0  0
    3.7411   -4.3080    1.0752 H   0  0  0  0  0  0  0  0  0  0  0  0
    1.6350   -1.8409    3.6010 H   0  0  0  0  0  0  0  0  0  0  0  0
    1.3185   -3.3790    2.8116 H   0  0  0  0  0  0  0  0  0  0  0  0
    1.0665   -1.8585    1.9352 H   0  0  0  0  0  0  0  0  0  0  0  0
    4.0585   -2.4231    4.1559 H   0  0  0  0  0  0  0  0  0  0  0  0
    4.6813   -4.5171    4.1719 H   0  0  0  0  0  0  0  0  0  0  0  0
    6.1662   -2.1300    3.2135 H   0  0  0  0  0  0  0  0  0  0  0  0
    6.0322   -3.5448    2.1968 H   0  0  0  0  0  0  0  0  0  0  0  0
    5.8761   -0.9878    1.0622 H   0  0  0  0  0  0  0  0  0  0  0  0
    2.2046    1.1347    2.0577 H   0  0  0  0  0  0  0  0  0  0  0  0
    0.8296    3.0694    5.6530 H   0  0  0  0  0  0  0  0  0  0  0  0
    1.8906    5.3803    7.5856 H   0  0  0  0  0  0  0  0  0  0  0  0
    0.8503    7.8991    7.2422 H   0  0  0  0  0  0  0  0  0  0  0  0
    0.0447    6.0847    3.7200 H   0  0  0  0  0  0  0  0  0  0  0  0
    1.5751    5.1126    2.4338 H   0  0  0  0  0  0  0  0  0  0  0  0
    2.4162    3.8137    1.6916 H   0  0  0  0  0  0  0  0  0  0  0  0
    3.1993    4.6934    3.0086 H   0  0  0  0  0  0  0  0  0  0  0  0
   -0.4260    3.4894    3.2547 H   0  0  0  0  0  0  0  0  0  0  0  0
   -0.0380    1.8617    3.7871 H   0  0  0  0  0  0  0  0  0  0  0  0
    0.3337    2.3854    2.1384 H   0  0  0  0  0  0  0  0  0  0  0  0
    2.6700   -1.6666   -0.8550 H   0  0  0  0  0  0  0  0  0  0  0  0
    2.7888   -2.9506   -2.2462 H   0  0  0  0  0  0  0  0  0  0  0  0
  1  2  1  0
  1 36  1  0
  1 37  1  0
  1 38  1  0
  2  8  1  0
  2  3  1  0
  2 69  1  1
  3  4  1  0
  3 39  1  0
  3 40  1  0
  4 35  1  0
  4  5  1  0
  4 41  1  6
  5  6  1  0
  6  7  1  1
  6  8  1  0
  6  9  1  0
  7 42  1  0
  7 43  1  0
  7 44  1  0
  8 45  1  0
  8 46  1  0
  9 16  1  0
  9 35  1  0
  9 10  1  1
 10 11  1  0
 10 47  1  0
 10 48  1  0
 11 17  1  0
 11 12  1  1
 11 13  1  0
 12 49  1  0
 12 50  1  0
 12 51  1  0
 13 14  1  0
 13 15  1  0
 13 52  1  1
 14 53  1  0
 15 16  1  0
 15 54  1  0
 15 55  1  0
 16 17  1  0
 16 56  1  6
 17 18  1  1
 17 34  1  0
 18 19  2  0
 18 20  1  0
 20 21  2  3
 20 57  1  0
 21 31  1  0
 21 22  1  0
 22 23  2  0
 22 24  1  0
 24 25  1  0
 25 26  1  0
 25 31  1  0
 25 58  1  1
 26 30  2  0
 26 27  1  0
 27 28  2  0
 27 59  1  0
 28 29  1  0
 28 60  1  0
 29 30  1  0
 30 61  1  0
 31 32  1  0
 31 33  1  0
 32 62  1  0
 32 63  1  0
 32 64  1  0
 33 65  1  0
 33 66  1  0
 33 67  1  0
 34 35  1  0
 35 68  1  6
M  CHG  1   2   1
M  END
>  <i_m_ct_stereo_status>  (186) 
1

>  <s_m_source_file>  (186) 
/var/tmp/pbs.5076255.sched01/tmp1pt1fpgk/39zsbf0m6x.sdf

>  <i_m_source_file_index>  (186) 
38

>  <i_lp_mmshare_version>  (186) 
48012

>  <i_f3d_flags>  (186) 
0

>  <s_epik_input>  (186) 
W0NIM11OKFtDSDJdMSlbQ0gyXVtDQEhdKE9bQ0BdMShbQ0BAXTIzNClbQ0gzXSlbQ0BASF00T1tDQF01KFtDQF0oW0NIMl0yKShbQ0gzXSlbQ0BASF0oW09IXSlbQ0gyXVtDQEBIXTM1KUMoPU8pL1tDSF09QyhDNihbQ0gzXSlbQ0gzXSlcQyg9TylPW0NASF02YzdbY0hdW2NIXW9bY0hdNw==

>  <s_epik_cmdline>  (186) 
J2VwaWtfcHl0aG9uJywgJy1waHQnLCAnMi4wJywgJy1waCcsICc3LjAnLCAnLXRuJywgJzgnLCAnLW1hJywgJzIwMCcsICctaW1hZScsICc8aW5maWxlLm1hZT4nLCAnLW9tYWUnLCAnPG91dGZpbGUubWFlPic=

>  <r_epik_Ionization_Penalty>  (186) 
0.253973

>  <r_epik_Ionization_Penalty_Charging>  (186) 
0.253973

>  <r_epik_Ionization_Penalty_Neutral>  (186) 
1.18036e-07

>  <r_epik_State_Penalty>  (186) 
0.245429

>  <r_epik_Charging_Adjusted_Penalty>  (186) 
0.499401

>  <i_epik_Tot_Q>  (186) 
1

>  <i_epik_Tot_abs_Q>  (186) 
1

>  <s_epik_Chemistry_Notes>  (186) 
This compound has an ester and may undergo hydrolysis at high or low pH.

>  <s_lp_Force_Field>  (186) 
OPLS3e

>  <r_lp_Energy>  (186) 
89.2719

>  <b_lp_Chiralities_Consistent>  (186) 
1

>  <s_lp_Variant>  (186) 
59:0-1

>  <s_i_glide_gridfile>  (186) 
pfpi4k_grid

>  <i_i_glide_lignum>  (186) 
38

>  <i_i_glide_rotatable_bonds>  (186) 
4

>  <r_i_docking_score>  (186) 
-2.34466

>  <r_i_glide_ligand_efficiency>  (186) 
-0.0669903

>  <r_i_glide_ligand_efficiency_sa>  (186) 
-0.21913

>  <r_i_glide_ligand_efficiency_ln>  (186) 
-0.514705

>  <r_i_glide_gscore>  (186) 
-2.34466

>  <r_i_glide_lipo>  (186) 
-0.246611

>  <r_i_glide_hbond>  (186) 
-0.0613509

>  <r_i_glide_metal>  (186) 
-0

>  <r_i_glide_rewards>  (186) 
-0.119785

>  <r_i_glide_evdw>  (186) 
-25.5197

>  <r_i_glide_ecoul>  (186) 
-5.93245

>  <r_i_glide_erotb>  (186) 
0.259483

>  <r_i_glide_esite>  (186) 
-0.0105467

>  <r_i_glide_emodel>  (186) 
-35.348

>  <r_i_glide_energy>  (186) 
-31.4521

>  <r_i_glide_einternal>  (186) 
3.64395

>  <r_i_glide_intrahb_reward>  (186) 
-0

>  <i_i_glide_confnum>  (186) 
3

>  <i_i_glide_posenum>  (186) 
20

>  <r_i_glide_eff_state_penalty>  (186) 
0

>  <ligand_id>  (186) 
59

>  <original_smiles>  (186) 
CN1CC2OC(C)(C1)C13CC4(C)C(O)CC1C4(C(=O)C=C1C(=O)OC(c4ccoc4)C1(C)C)OC23

>  <smiles>  (186) 
[H]OC1([H])C([H])([H])C2([H])C3(C(=O)C([H])=C4C(=O)OC([H])(c5c([H])oc([H])c5[H])C4(C([H])([H])[H])C([H])([H])[H])OC4([H])C5([H])OC(C([H])([H])[H])(C42C([H])([H])C13C([H])([H])[H])C([H])([H])[N+]([H])(C([H])([H])[H])C5([H])[H]

$$$$
59:0:2
     RDKit          3D

 69 75  0  0  1  0  0  0  0  0999 V2000
    4.7580   -8.8633    1.0150 C   0  0  0  0  0  0  0  0  0  0  0  0
    4.2042   -7.7849    1.8738 N   0  0  2  0  0  0  0  0  0  0  0  0
    4.1844   -6.4516    1.2002 C   0  0  0  0  0  0  0  0  0  0  0  0
    3.7182   -5.3575    2.1868 C   0  0  2  0  0  0  0  0  0  0  0  0
    4.7583   -5.3441    3.1636 O   0  0  0  0  0  0  0  0  0  0  0  0
    4.4984   -6.4409    4.0340 C   0  0  2  0  0  0  0  0  0  0  0  0
    5.4204   -6.3065    5.2546 C   0  0  0  0  0  0  0  0  0  0  0  0
    4.8360   -7.7324    3.2280 C   0  0  0  0  0  0  0  0  0  0  0  0
    3.0004   -6.1757    4.3260 C   0  0  1  0  0  0  0  0  0  0  0  0
    2.0353   -7.2351    4.8714 C   0  0  0  0  0  0  0  0  0  0  0  0
    0.9202   -6.2828    5.4045 C   0  0  1  0  0  0  0  0  0  0  0  0
   -0.5044   -6.8280    5.1877 C   0  0  0  0  0  0  0  0  0  0  0  0
    1.2736   -5.9817    6.8889 C   0  0  1  0  0  0  0  0  0  0  0  0
    1.3372   -7.1003    7.7463 O   0  0  0  0  0  0  0  0  0  0  0  0
    2.6000   -5.2134    6.7317 C   0  0  0  0  0  0  0  0  0  0  0  0
    2.6865   -4.9331    5.1998 C   0  0  2  0  0  0  0  0  0  0  0  0
    1.2555   -4.8999    4.7150 C   0  0  2  0  0  0  0  0  0  0  0  0
    0.4222   -3.6631    5.1493 C   0  0  0  0  0  0  0  0  0  0  0  0
   -0.5206   -3.8204    5.9112 O   0  0  0  0  0  0  0  0  0  0  0  0
    0.8266   -2.3320    4.6521 C   0  0  0  0  0  0  0  0  0  0  0  0
    0.1072   -1.1781    4.6789 C   0  0  0  0  0  0  0  0  0  0  0  0
   -1.3020   -0.9451    5.1039 C   0  0  0  0  0  0  0  0  0  0  0  0
   -2.0801   -1.6987    5.6785 O   0  0  0  0  0  0  0  0  0  0  0  0
   -1.6377    0.2767    4.7547 O   0  0  0  0  0  0  0  0  0  0  0  0
   -0.7260    0.8954    3.8758 C   0  0  1  0  0  0  0  0  0  0  0  0
   -0.7382    2.3902    4.0345 C   0  0  0  0  0  0  0  0  0  0  0  0
    0.0585    3.3245    3.3079 C   0  0  0  0  0  0  0  0  0  0  0  0
   -0.3452    4.5690    3.6905 C   0  0  0  0  0  0  0  0  0  0  0  0
   -1.3574    4.4879    4.5953 O   0  0  0  0  0  0  0  0  0  0  0  0
   -1.5816    3.1575    4.7949 C   0  0  0  0  0  0  0  0  0  0  0  0
    0.6062    0.1470    4.1473 C   0  0  0  0  0  0  0  0  0  0  0  0
    1.4952    0.8128    5.2282 C   0  0  0  0  0  0  0  0  0  0  0  0
    1.4132    0.0149    2.8350 C   0  0  0  0  0  0  0  0  0  0  0  0
    1.4078   -4.8899    3.2872 O   0  0  0  0  0  0  0  0  0  0  0  0
    2.4514   -5.7957    2.9608 C   0  0  1  0  0  0  0  0  0  0  0  0
    5.8086   -8.6925    0.7827 H   0  0  0  0  0  0  0  0  0  0  0  0
    4.2036   -8.9256    0.0774 H   0  0  0  0  0  0  0  0  0  0  0  0
    4.6669   -9.8315    1.5115 H   0  0  0  0  0  0  0  0  0  0  0  0
    5.1799   -6.2038    0.8336 H   0  0  0  0  0  0  0  0  0  0  0  0
    3.5228   -6.4927    0.3320 H   0  0  0  0  0  0  0  0  0  0  0  0
    3.6185   -4.3927    1.6910 H   0  0  0  0  0  0  0  0  0  0  0  0
    5.2004   -7.0668    6.0047 H   0  0  0  0  0  0  0  0  0  0  0  0
    5.3218   -5.3260    5.7235 H   0  0  0  0  0  0  0  0  0  0  0  0
    6.4695   -6.4097    4.9702 H   0  0  0  0  0  0  0  0  0  0  0  0
    4.5444   -8.6226    3.7889 H   0  0  0  0  0  0  0  0  0  0  0  0
    5.9165   -7.7746    3.0936 H   0  0  0  0  0  0  0  0  0  0  0  0
    1.6729   -7.9264    4.1086 H   0  0  0  0  0  0  0  0  0  0  0  0
    2.5003   -7.8454    5.6466 H   0  0  0  0  0  0  0  0  0  0  0  0
   -1.2638   -6.2093    5.6648 H   0  0  0  0  0  0  0  0  0  0  0  0
   -0.5916   -7.8261    5.6168 H   0  0  0  0  0  0  0  0  0  0  0  0
   -0.7531   -6.8907    4.1279 H   0  0  0  0  0  0  0  0  0  0  0  0
    0.5411   -5.3478    7.3826 H   0  0  0  0  0  0  0  0  0  0  0  0
    1.9728   -7.7125    7.4098 H   0  0  0  0  0  0  0  0  0  0  0  0
    2.5635   -4.2821    7.2982 H   0  0  0  0  0  0  0  0  0  0  0  0
    3.4476   -5.7910    7.1000 H   0  0  0  0  0  0  0  0  0  0  0  0
    3.2738   -4.0493    4.9398 H   0  0  0  0  0  0  0  0  0  0  0  0
    1.8169   -2.2874    4.2205 H   0  0  0  0  0  0  0  0  0  0  0  0
   -1.0913    0.6533    2.8774 H   0  0  0  0  0  0  0  0  0  0  0  0
    0.8067    3.1213    2.5590 H   0  0  0  0  0  0  0  0  0  0  0  0
   -0.0354    5.5578    3.3971 H   0  0  0  0  0  0  0  0  0  0  0  0
   -2.3972    2.9310    5.4677 H   0  0  0  0  0  0  0  0  0  0  0  0
    1.8611    1.7955    4.9253 H   0  0  0  0  0  0  0  0  0  0  0  0
    2.3709    0.1945    5.4401 H   0  0  0  0  0  0  0  0  0  0  0  0
    0.9555    0.9324    6.1700 H   0  0  0  0  0  0  0  0  0  0  0  0
    1.6505    0.9970    2.4254 H   0  0  0  0  0  0  0  0  0  0  0  0
    0.8573   -0.5246    2.0659 H   0  0  0  0  0  0  0  0  0  0  0  0
    2.3689   -0.4896    2.9855 H   0  0  0  0  0  0  0  0  0  0  0  0
    1.9649   -6.6159    2.4328 H   0  0  0  0  0  0  0  0  0  0  0  0
    3.2343   -8.0342    2.0254 H   0  0  0  0  0  0  0  0  0  0  0  0
  1  2  1  0
  1 36  1  0
  1 37  1  0
  1 38  1  0
  2  8  1  0
  2  3  1  0
  2 69  1  1
  3  4  1  0
  3 39  1  0
  3 40  1  0
  4 35  1  0
  4  5  1  0
  4 41  1  6
  5  6  1  0
  6  7  1  1
  6  8  1  0
  6  9  1  0
  7 42  1  0
  7 43  1  0
  7 44  1  0
  8 45  1  0
  8 46  1  0
  9 16  1  0
  9 35  1  0
  9 10  1  1
 10 11  1  0
 10 47  1  0
 10 48  1  0
 11 17  1  0
 11 12  1  1
 11 13  1  0
 12 49  1  0
 12 50  1  0
 12 51  1  0
 13 14  1  0
 13 15  1  0
 13 52  1  1
 14 53  1  0
 15 16  1  0
 15 54  1  0
 15 55  1  0
 16 17  1  0
 16 56  1  1
 17 18  1  1
 17 34  1  0
 18 19  2  0
 18 20  1  0
 20 21  2  3
 20 57  1  0
 21 31  1  0
 21 22  1  0
 22 23  2  0
 22 24  1  0
 24 25  1  0
 25 26  1  0
 25 31  1  0
 25 58  1  6
 26 30  2  0
 26 27  1  0
 27 28  2  0
 27 59  1  0
 28 29  1  0
 28 60  1  0
 29 30  1  0
 30 61  1  0
 31 32  1  0
 31 33  1  0
 32 62  1  0
 32 63  1  0
 32 64  1  0
 33 65  1  0
 33 66  1  0
 33 67  1  0
 34 35  1  0
 35 68  1  6
M  CHG  1   2   1
M  END
>  <i_m_ct_stereo_status>  (187) 
1

>  <s_m_source_file>  (187) 
/var/tmp/pbs.5076255.sched01/tmp1pt1fpgk/39zsbf0m6x.sdf

>  <i_m_source_file_index>  (187) 
38

>  <i_lp_mmshare_version>  (187) 
48012

>  <i_f3d_flags>  (187) 
0

>  <s_epik_input>  (187) 
W0NIM11OKFtDSDJdMSlbQ0gyXVtDQEhdKE9bQ0BdMShbQ0BAXTIzNClbQ0gzXSlbQ0BASF00T1tDQF01KFtDQF0oW0NIMl0yKShbQ0gzXSlbQ0BASF0oW09IXSlbQ0gyXVtDQEBIXTM1KUMoPU8pL1tDSF09QyhDNihbQ0gzXSlbQ0gzXSlcQyg9TylPW0NASF02YzdbY0hdW2NIXW9bY0hdNw==

>  <s_epik_cmdline>  (187) 
J2VwaWtfcHl0aG9uJywgJy1waHQnLCAnMi4wJywgJy1waCcsICc3LjAnLCAnLXRuJywgJzgnLCAnLW1hJywgJzIwMCcsICctaW1hZScsICc8aW5maWxlLm1hZT4nLCAnLW9tYWUnLCAnPG91dGZpbGUubWFlPic=

>  <r_epik_Ionization_Penalty>  (187) 
0.253973

>  <r_epik_Ionization_Penalty_Charging>  (187) 
0.253973

>  <r_epik_Ionization_Penalty_Neutral>  (187) 
1.18036e-07

>  <r_epik_State_Penalty>  (187) 
0.245429

>  <r_epik_Charging_Adjusted_Penalty>  (187) 
0.499401

>  <i_epik_Tot_Q>  (187) 
1

>  <i_epik_Tot_abs_Q>  (187) 
1

>  <s_epik_Chemistry_Notes>  (187) 
This compound has an ester and may undergo hydrolysis at high or low pH.

>  <s_lp_Force_Field>  (187) 
OPLS3e

>  <r_lp_Energy>  (187) 
89.2719

>  <b_lp_Chiralities_Consistent>  (187) 
1

>  <s_lp_Variant>  (187) 
59:0-1

>  <s_i_glide_gridfile>  (187) 
pfpi4k_grid

>  <i_i_glide_lignum>  (187) 
38

>  <i_i_glide_rotatable_bonds>  (187) 
4

>  <r_i_docking_score>  (187) 
-2.20411

>  <r_i_glide_ligand_efficiency>  (187) 
-0.0629746

>  <r_i_glide_ligand_efficiency_sa>  (187) 
-0.205994

>  <r_i_glide_ligand_efficiency_ln>  (187) 
-0.483851

>  <r_i_glide_gscore>  (187) 
-2.20411

>  <r_i_glide_lipo>  (187) 
-0.102949

>  <r_i_glide_hbond>  (187) 
-0.0451496

>  <r_i_glide_metal>  (187) 
-0

>  <r_i_glide_rewards>  (187) 
-0.105263

>  <r_i_glide_evdw>  (187) 
-22.9519

>  <r_i_glide_ecoul>  (187) 
-6.78632

>  <r_i_glide_erotb>  (187) 
0.259483

>  <r_i_glide_esite>  (187) 
-0.0446902

>  <r_i_glide_emodel>  (187) 
-34.1687

>  <r_i_glide_energy>  (187) 
-29.7382

>  <r_i_glide_einternal>  (187) 
2.15518

>  <r_i_glide_intrahb_reward>  (187) 
-0

>  <i_i_glide_confnum>  (187) 
5

>  <i_i_glide_posenum>  (187) 
2

>  <r_i_glide_eff_state_penalty>  (187) 
0

>  <ligand_id>  (187) 
59

>  <original_smiles>  (187) 
CN1CC2OC(C)(C1)C13CC4(C)C(O)CC1C4(C(=O)C=C1C(=O)OC(c4ccoc4)C1(C)C)OC23

>  <smiles>  (187) 
[H]OC1([H])C([H])([H])C2([H])C3(C(=O)C([H])=C4C(=O)OC([H])(c5c([H])oc([H])c5[H])C4(C([H])([H])[H])C([H])([H])[H])OC4([H])C5([H])OC(C([H])([H])[H])(C42C([H])([H])C13C([H])([H])[H])C([H])([H])[N+]([H])(C([H])([H])[H])C5([H])[H]

$$$$
59:1:0
     RDKit          3D

 69 75  0  0  1  0  0  0  0  0999 V2000
    2.5096  -10.9005    3.1354 C   0  0  0  0  0  0  0  0  0  0  0  0
    2.5432   -9.4190    3.0001 N   0  0  2  0  0  0  0  0  0  0  0  0
    1.7555   -8.9320    1.8317 C   0  0  0  0  0  0  0  0  0  0  0  0
    1.9321   -7.4170    1.6775 C   0  0  2  0  0  0  0  0  0  0  0  0
    3.3150   -7.2746    1.3590 O   0  0  0  0  0  0  0  0  0  0  0  0
    4.0102   -7.3699    2.5988 C   0  0  2  0  0  0  0  0  0  0  0  0
    5.4703   -6.9509    2.3534 C   0  0  0  0  0  0  0  0  0  0  0  0
    3.9298   -8.8567    3.0387 C   0  0  0  0  0  0  0  0  0  0  0  0
    3.1769   -6.3744    3.4440 C   0  0  1  0  0  0  0  0  0  0  0  0
    3.1795   -6.3205    4.9788 C   0  0  0  0  0  0  0  0  0  0  0  0
    2.6099   -4.8703    5.1557 C   0  0  1  0  0  0  0  0  0  0  0  0
    1.6457   -4.7137    6.3505 C   0  0  0  0  0  0  0  0  0  0  0  0
    3.8265   -3.9094    5.2224 C   0  0  1  0  0  0  0  0  0  0  0  0
    4.7427   -4.1438    6.2713 O   0  0  0  0  0  0  0  0  0  0  0  0
    4.4438   -4.1104    3.8295 C   0  0  0  0  0  0  0  0  0  0  0  0
    3.3334   -4.8917    3.0601 C   0  0  2  0  0  0  0  0  0  0  0  0
    2.0294   -4.5285    3.7298 C   0  0  2  0  0  0  0  0  0  0  0  0
    1.5446   -3.0749    3.4889 C   0  0  0  0  0  0  0  0  0  0  0  0
    2.2009   -2.3852    2.7452 O   0  0  0  0  0  0  0  0  0  0  0  0
    0.3067   -2.6315    4.1844 C   0  0  0  0  0  0  0  0  0  0  0  0
   -0.1535   -1.3669    4.2872 C   0  0  0  0  0  0  0  0  0  0  0  0
   -1.4247   -1.0797    4.9952 C   0  0  0  0  0  0  0  0  0  0  0  0
   -2.0872   -1.8512    5.6743 O   0  0  0  0  0  0  0  0  0  0  0  0
   -1.7492    0.1982    4.7861 O   0  0  0  0  0  0  0  0  0  0  0  0
   -0.9423    0.8197    3.7947 C   0  0  1  0  0  0  0  0  0  0  0  0
   -0.8057    2.3164    4.0026 C   0  0  0  0  0  0  0  0  0  0  0  0
    0.0491    3.2144    3.2961 C   0  0  0  0  0  0  0  0  0  0  0  0
   -0.2070    4.4643    3.7528 C   0  0  0  0  0  0  0  0  0  0  0  0
   -1.1963    4.4411    4.6840 O   0  0  0  0  0  0  0  0  0  0  0  0
   -1.5422    3.1358    4.8327 C   0  0  0  0  0  0  0  0  0  0  0  0
    0.3616   -0.0168    3.7466 C   0  0  0  0  0  0  0  0  0  0  0  0
    1.4589    0.4920    4.7101 C   0  0  0  0  0  0  0  0  0  0  0  0
    0.8777    0.0093    2.2861 C   0  0  0  0  0  0  0  0  0  0  0  0
    1.0985   -5.4525    3.1467 O   0  0  0  0  0  0  0  0  0  0  0  0
    1.7547   -6.6995    3.0363 C   0  0  1  0  0  0  0  0  0  0  0  0
    3.0079  -11.3994    2.2941 H   0  0  0  0  0  0  0  0  0  0  0  0
    1.4784  -11.2639    3.1873 H   0  0  0  0  0  0  0  0  0  0  0  0
    3.0130  -11.2119    4.0542 H   0  0  0  0  0  0  0  0  0  0  0  0
    2.0962   -9.4290    0.9232 H   0  0  0  0  0  0  0  0  0  0  0  0
    0.7110   -9.1856    1.9813 H   0  0  0  0  0  0  0  0  0  0  0  0
    1.2928   -7.0198    0.8880 H   0  0  0  0  0  0  0  0  0  0  0  0
    6.0342   -6.9143    3.2846 H   0  0  0  0  0  0  0  0  0  0  0  0
    5.5285   -5.9735    1.8797 H   0  0  0  0  0  0  0  0  0  0  0  0
    5.9680   -7.6530    1.6854 H   0  0  0  0  0  0  0  0  0  0  0  0
    4.3313   -8.9905    4.0396 H   0  0  0  0  0  0  0  0  0  0  0  0
    4.5421   -9.4500    2.3578 H   0  0  0  0  0  0  0  0  0  0  0  0
    2.5303   -7.0770    5.4311 H   0  0  0  0  0  0  0  0  0  0  0  0
    4.1859   -6.4505    5.3916 H   0  0  0  0  0  0  0  0  0  0  0  0
    1.3653   -3.6695    6.5008 H   0  0  0  0  0  0  0  0  0  0  0  0
    2.1007   -5.0590    7.2867 H   0  0  0  0  0  0  0  0  0  0  0  0
    0.7303   -5.2843    6.1779 H   0  0  0  0  0  0  0  0  0  0  0  0
    3.5101   -2.8719    5.3381 H   0  0  0  0  0  0  0  0  0  0  0  0
    5.0864   -5.0191    6.1844 H   0  0  0  0  0  0  0  0  0  0  0  0
    4.6613   -3.1464    3.3726 H   0  0  0  0  0  0  0  0  0  0  0  0
    5.3874   -4.6519    3.8625 H   0  0  0  0  0  0  0  0  0  0  0  0
    3.3182   -4.6963    1.9915 H   0  0  0  0  0  0  0  0  0  0  0  0
   -0.3079   -3.3993    4.6430 H   0  0  0  0  0  0  0  0  0  0  0  0
   -1.5000    0.6866    2.8675 H   0  0  0  0  0  0  0  0  0  0  0  0
    0.7657    3.0087    2.5053 H   0  0  0  0  0  0  0  0  0  0  0  0
    0.1982    5.4357    3.4897 H   0  0  0  0  0  0  0  0  0  0  0  0
   -2.3540    2.9464    5.5191 H   0  0  0  0  0  0  0  0  0  0  0  0
    1.8331    1.4745    4.4252 H   0  0  0  0  0  0  0  0  0  0  0  0
    2.3078   -0.1907    4.7116 H   0  0  0  0  0  0  0  0  0  0  0  0
    1.1026    0.5618    5.7435 H   0  0  0  0  0  0  0  0  0  0  0  0
    0.8437    1.0184    1.8682 H   0  0  0  0  0  0  0  0  0  0  0  0
    0.2449   -0.5923    1.6430 H   0  0  0  0  0  0  0  0  0  0  0  0
    1.9031   -0.3146    2.2088 H   0  0  0  0  0  0  0  0  0  0  0  0
    1.2259   -7.3411    3.7391 H   0  0  0  0  0  0  0  0  0  0  0  0
    2.0656   -9.0772    3.8194 H   0  0  0  0  0  0  0  0  0  0  0  0
  1  2  1  0
  1 36  1  0
  1 37  1  0
  1 38  1  0
  2  8  1  0
  2  3  1  0
  2 69  1  1
  3  4  1  0
  3 39  1  0
  3 40  1  0
  4 35  1  0
  4  5  1  0
  4 41  1  6
  5  6  1  0
  6  7  1  6
  6  8  1  0
  6  9  1  0
  7 42  1  0
  7 43  1  0
  7 44  1  0
  8 45  1  0
  8 46  1  0
  9 16  1  0
  9 35  1  0
  9 10  1  1
 10 11  1  0
 10 47  1  0
 10 48  1  0
 11 17  1  0
 11 12  1  1
 11 13  1  0
 12 49  1  0
 12 50  1  0
 12 51  1  0
 13 14  1  0
 13 15  1  0
 13 52  1  6
 14 53  1  0
 15 16  1  0
 15 54  1  0
 15 55  1  0
 16 17  1  0
 16 56  1  6
 17 18  1  1
 17 34  1  0
 18 19  2  0
 18 20  1  0
 20 21  2  3
 20 57  1  0
 21 31  1  0
 21 22  1  0
 22 23  2  0
 22 24  1  0
 24 25  1  0
 25 26  1  0
 25 31  1  0
 25 58  1  6
 26 30  2  0
 26 27  1  0
 27 28  2  0
 27 59  1  0
 28 29  1  0
 28 60  1  0
 29 30  1  0
 30 61  1  0
 31 32  1  0
 31 33  1  0
 32 62  1  0
 32 63  1  0
 32 64  1  0
 33 65  1  0
 33 66  1  0
 33 67  1  0
 34 35  1  0
 35 68  1  1
M  CHG  1   2   1
M  END
>  <i_m_ct_stereo_status>  (188) 
1

>  <s_m_source_file>  (188) 
/var/tmp/pbs.5076255.sched01/tmp1pt1fpgk/39zsbf0m6x.sdf

>  <i_m_source_file_index>  (188) 
39

>  <i_lp_mmshare_version>  (188) 
48012

>  <i_f3d_flags>  (188) 
0

>  <s_epik_input>  (188) 
W0NIM11OKFtDSDJdMSlbQ0gyXVtDQEhdKE9bQ0BdMShbQ0BAXTIzNClbQ0gzXSlbQ0BASF00T1tDQF01KFtDQF0oW0NIMl0yKShbQ0gzXSlbQ0BASF0oW09IXSlbQ0gyXVtDQEBIXTM1KUMoPU8pL1tDSF09QyhDNihbQ0gzXSlbQ0gzXSlcQyg9TylPW0NASF02YzdbY0hdW2NIXW9bY0hdNw==

>  <s_epik_cmdline>  (188) 
J2VwaWtfcHl0aG9uJywgJy1waHQnLCAnMi4wJywgJy1waCcsICc3LjAnLCAnLXRuJywgJzgnLCAnLW1hJywgJzIwMCcsICctaW1hZScsICc8aW5maWxlLm1hZT4nLCAnLW9tYWUnLCAnPG91dGZpbGUubWFlPic=

>  <r_epik_Ionization_Penalty>  (188) 
0.253973

>  <r_epik_Ionization_Penalty_Charging>  (188) 
0.253973

>  <r_epik_Ionization_Penalty_Neutral>  (188) 
1.18036e-07

>  <r_epik_State_Penalty>  (188) 
0.245429

>  <r_epik_Charging_Adjusted_Penalty>  (188) 
0.499401

>  <i_epik_Tot_Q>  (188) 
1

>  <i_epik_Tot_abs_Q>  (188) 
1

>  <s_epik_Chemistry_Notes>  (188) 
This compound has an ester and may undergo hydrolysis at high or low pH.

>  <s_lp_Force_Field>  (188) 
OPLS3e

>  <r_lp_Energy>  (188) 
90.7418

>  <b_lp_Chiralities_Consistent>  (188) 
1

>  <s_lp_Variant>  (188) 
59:0-2

>  <s_i_glide_gridfile>  (188) 
pfpi4k_grid

>  <i_i_glide_lignum>  (188) 
39

>  <i_i_glide_rotatable_bonds>  (188) 
4

>  <r_i_docking_score>  (188) 
-2.25602

>  <r_i_glide_ligand_efficiency>  (188) 
-0.0644576

>  <r_i_glide_ligand_efficiency_sa>  (188) 
-0.210845

>  <r_i_glide_ligand_efficiency_ln>  (188) 
-0.495245

>  <r_i_glide_gscore>  (188) 
-2.25602

>  <r_i_glide_lipo>  (188) 
-0.0707234

>  <r_i_glide_hbond>  (188) 
-0.0093016

>  <r_i_glide_metal>  (188) 
-0

>  <r_i_glide_rewards>  (188) 
-0.151064

>  <r_i_glide_evdw>  (188) 
-24.8291

>  <r_i_glide_ecoul>  (188) 
-6.62957

>  <r_i_glide_erotb>  (188) 
0.259483

>  <r_i_glide_esite>  (188) 
-0.0485196

>  <r_i_glide_emodel>  (188) 
-35.9227

>  <r_i_glide_energy>  (188) 
-31.4586

>  <r_i_glide_einternal>  (188) 
1.34961

>  <r_i_glide_intrahb_reward>  (188) 
-0

>  <i_i_glide_confnum>  (188) 
2

>  <i_i_glide_posenum>  (188) 
16

>  <r_i_glide_eff_state_penalty>  (188) 
0

>  <ligand_id>  (188) 
59

>  <original_smiles>  (188) 
CN1CC2OC(C)(C1)C13CC4(C)C(O)CC1C4(C(=O)C=C1C(=O)OC(c4ccoc4)C1(C)C)OC23

>  <smiles>  (188) 
[H]OC1([H])C([H])([H])C2([H])C3(C(=O)C([H])=C4C(=O)OC([H])(c5c([H])oc([H])c5[H])C4(C([H])([H])[H])C([H])([H])[H])OC4([H])C5([H])OC(C([H])([H])[H])(C42C([H])([H])C13C([H])([H])[H])C([H])([H])[N+]([H])(C([H])([H])[H])C5([H])[H]

$$$$
59:1:1
     RDKit          3D

 69 75  0  0  1  0  0  0  0  0999 V2000
    1.1694  -10.7632    4.3524 C   0  0  0  0  0  0  0  0  0  0  0  0
    1.1455   -9.2837    4.1956 N   0  0  2  0  0  0  0  0  0  0  0  0
   -0.1304   -8.6760    4.6775 C   0  0  0  0  0  0  0  0  0  0  0  0
   -0.1504   -7.1637    4.3777 C   0  0  2  0  0  0  0  0  0  0  0  0
   -0.1580   -7.0904    2.9459 O   0  0  0  0  0  0  0  0  0  0  0  0
    1.1947   -7.3193    2.5564 C   0  0  2  0  0  0  0  0  0  0  0  0
    1.2981   -7.0070    1.0620 C   0  0  0  0  0  0  0  0  0  0  0  0
    1.5137   -8.8249    2.8189 C   0  0  0  0  0  0  0  0  0  0  0  0
    1.8930   -6.2772    3.4720 C   0  0  1  0  0  0  0  0  0  0  0  0
    3.3885   -6.3124    3.8074 C   0  0  0  0  0  0  0  0  0  0  0  0
    3.5475   -4.8404    4.2996 C   0  0  1  0  0  0  0  0  0  0  0  0
    4.5085   -4.6982    5.4972 C   0  0  0  0  0  0  0  0  0  0  0  0
    3.9375   -3.9928    3.0548 C   0  0  1  0  0  0  0  0  0  0  0  0
    5.1416   -4.3795    2.4217 O   0  0  0  0  0  0  0  0  0  0  0  0
    2.6813   -4.1501    2.1767 C   0  0  0  0  0  0  0  0  0  0  0  0
    1.6355   -4.7761    3.1480 C   0  0  2  0  0  0  0  0  0  0  0  0
    2.0577   -4.3684    4.5469 C   0  0  2  0  0  0  0  0  0  0  0  0
    1.8408   -2.8950    5.0092 C   0  0  0  0  0  0  0  0  0  0  0  0
    2.7923   -2.2376    5.4157 O   0  0  0  0  0  0  0  0  0  0  0  0
    0.4686   -2.3631    5.0892 C   0  0  0  0  0  0  0  0  0  0  0  0
    0.1165   -1.0617    4.9746 C   0  0  0  0  0  0  0  0  0  0  0  0
   -1.2821   -0.6772    5.1821 C   0  0  0  0  0  0  0  0  0  0  0  0
   -2.1783   -1.3748    5.6704 O   0  0  0  0  0  0  0  0  0  0  0  0
   -1.4222    0.5931    4.8046 O   0  0  0  0  0  0  0  0  0  0  0  0
   -0.2844    1.0980    4.1162 C   0  0  1  0  0  0  0  0  0  0  0  0
   -0.1068    2.5954    4.2638 C   0  0  0  0  0  0  0  0  0  0  0  0
    0.6269    3.4415    3.3763 C   0  0  0  0  0  0  0  0  0  0  0  0
    0.4661    4.7161    3.8189 C   0  0  0  0  0  0  0  0  0  0  0  0
   -0.3225    4.7388    4.9252 O   0  0  0  0  0  0  0  0  0  0  0  0
   -0.6425    3.4463    5.1892 C   0  0  0  0  0  0  0  0  0  0  0  0
    0.8923    0.1960    4.5734 C   0  0  0  0  0  0  0  0  0  0  0  0
    1.6436    0.7740    5.8055 C   0  0  0  0  0  0  0  0  0  0  0  0
    1.8627    0.0304    3.3742 C   0  0  0  0  0  0  0  0  0  0  0  0
    1.2100   -5.1884    5.3534 O   0  0  0  0  0  0  0  0  0  0  0  0
    1.1832   -6.4838    4.7922 C   0  0  1  0  0  0  0  0  0  0  0  0
    0.4145  -11.2575    3.7274 H   0  0  0  0  0  0  0  0  0  0  0  0
    0.9842  -11.0366    5.3958 H   0  0  0  0  0  0  0  0  0  0  0  0
    2.1558  -11.1456    4.0800 H   0  0  0  0  0  0  0  0  0  0  0  0
   -0.9825   -9.1339    4.1732 H   0  0  0  0  0  0  0  0  0  0  0  0
   -0.2315   -8.8529    5.7470 H   0  0  0  0  0  0  0  0  0  0  0  0
   -1.0338   -6.6838    4.8113 H   0  0  0  0  0  0  0  0  0  0  0  0
    2.3395   -7.0577    0.7403 H   0  0  0  0  0  0  0  0  0  0  0  0
    0.9158   -6.0137    0.8178 H   0  0  0  0  0  0  0  0  0  0  0  0
    0.7096   -7.7277    0.4891 H   0  0  0  0  0  0  0  0  0  0  0  0
    2.5709   -9.0228    2.6477 H   0  0  0  0  0  0  0  0  0  0  0  0
    0.9436   -9.4167    2.0999 H   0  0  0  0  0  0  0  0  0  0  0  0
    3.6430   -7.0456    4.5756 H   0  0  0  0  0  0  0  0  0  0  0  0
    4.0002   -6.5559    2.9380 H   0  0  0  0  0  0  0  0  0  0  0  0
    4.7042   -3.6609    5.7605 H   0  0  0  0  0  0  0  0  0  0  0  0
    5.4836   -5.1263    5.2693 H   0  0  0  0  0  0  0  0  0  0  0  0
    4.1018   -5.1851    6.3864 H   0  0  0  0  0  0  0  0  0  0  0  0
    4.0757   -2.9365    3.2880 H   0  0  0  0  0  0  0  0  0  0  0  0
    5.0831   -5.2900    2.1773 H   0  0  0  0  0  0  0  0  0  0  0  0
    2.3434   -3.1772    1.8222 H   0  0  0  0  0  0  0  0  0  0  0  0
    2.8790   -4.7739    1.3015 H   0  0  0  0  0  0  0  0  0  0  0  0
    0.5995   -4.5442    2.9042 H   0  0  0  0  0  0  0  0  0  0  0  0
   -0.2959   -3.0827    5.3239 H   0  0  0  0  0  0  0  0  0  0  0  0
   -0.4892    0.9144    3.0619 H   0  0  0  0  0  0  0  0  0  0  0  0
    1.1698    3.1664    2.4842 H   0  0  0  0  0  0  0  0  0  0  0  0
    0.8014    5.6767    3.4407 H   0  0  0  0  0  0  0  0  0  0  0  0
   -1.2922    3.3044    6.0396 H   0  0  0  0  0  0  0  0  0  0  0  0
    2.1462    1.7197    5.5760 H   0  0  0  0  0  0  0  0  0  0  0  0
    2.4117    0.0869    6.1677 H   0  0  0  0  0  0  0  0  0  0  0  0
    0.9674    0.9486    6.6502 H   0  0  0  0  0  0  0  0  0  0  0  0
    2.1129    1.0140    2.9725 H   0  0  0  0  0  0  0  0  0  0  0  0
    1.4006   -0.5395    2.5669 H   0  0  0  0  0  0  0  0  0  0  0  0
    2.8205   -0.4356    3.6343 H   0  0  0  0  0  0  0  0  0  0  0  0
    1.7164   -7.1190    5.5011 H   0  0  0  0  0  0  0  0  0  0  0  0
    1.8688   -8.9457    4.8196 H   0  0  0  0  0  0  0  0  0  0  0  0
  1  2  1  0
  1 36  1  0
  1 37  1  0
  1 38  1  0
  2  8  1  0
  2  3  1  0
  2 69  1  1
  3  4  1  0
  3 39  1  0
  3 40  1  0
  4 35  1  0
  4  5  1  0
  4 41  1  1
  5  6  1  0
  6  7  1  6
  6  8  1  0
  6  9  1  0
  7 42  1  0
  7 43  1  0
  7 44  1  0
  8 45  1  0
  8 46  1  0
  9 16  1  0
  9 35  1  0
  9 10  1  1
 10 11  1  0
 10 47  1  0
 10 48  1  0
 11 17  1  0
 11 12  1  1
 11 13  1  0
 12 49  1  0
 12 50  1  0
 12 51  1  0
 13 14  1  0
 13 15  1  0
 13 52  1  1
 14 53  1  0
 15 16  1  0
 15 54  1  0
 15 55  1  0
 16 17  1  0
 16 56  1  6
 17 18  1  1
 17 34  1  0
 18 19  2  0
 18 20  1  0
 20 21  2  3
 20 57  1  0
 21 31  1  0
 21 22  1  0
 22 23  2  0
 22 24  1  0
 24 25  1  0
 25 26  1  0
 25 31  1  0
 25 58  1  6
 26 30  2  0
 26 27  1  0
 27 28  2  0
 27 59  1  0
 28 29  1  0
 28 60  1  0
 29 30  1  0
 30 61  1  0
 31 32  1  0
 31 33  1  0
 32 62  1  0
 32 63  1  0
 32 64  1  0
 33 65  1  0
 33 66  1  0
 33 67  1  0
 34 35  1  0
 35 68  1  1
M  CHG  1   2   1
M  END
>  <i_m_ct_stereo_status>  (189) 
1

>  <s_m_source_file>  (189) 
/var/tmp/pbs.5076255.sched01/tmp1pt1fpgk/39zsbf0m6x.sdf

>  <i_m_source_file_index>  (189) 
39

>  <i_lp_mmshare_version>  (189) 
48012

>  <i_f3d_flags>  (189) 
0

>  <s_epik_input>  (189) 
W0NIM11OKFtDSDJdMSlbQ0gyXVtDQEhdKE9bQ0BdMShbQ0BAXTIzNClbQ0gzXSlbQ0BASF00T1tDQF01KFtDQF0oW0NIMl0yKShbQ0gzXSlbQ0BASF0oW09IXSlbQ0gyXVtDQEBIXTM1KUMoPU8pL1tDSF09QyhDNihbQ0gzXSlbQ0gzXSlcQyg9TylPW0NASF02YzdbY0hdW2NIXW9bY0hdNw==

>  <s_epik_cmdline>  (189) 
J2VwaWtfcHl0aG9uJywgJy1waHQnLCAnMi4wJywgJy1waCcsICc3LjAnLCAnLXRuJywgJzgnLCAnLW1hJywgJzIwMCcsICctaW1hZScsICc8aW5maWxlLm1hZT4nLCAnLW9tYWUnLCAnPG91dGZpbGUubWFlPic=

>  <r_epik_Ionization_Penalty>  (189) 
0.253973

>  <r_epik_Ionization_Penalty_Charging>  (189) 
0.253973

>  <r_epik_Ionization_Penalty_Neutral>  (189) 
1.18036e-07

>  <r_epik_State_Penalty>  (189) 
0.245429

>  <r_epik_Charging_Adjusted_Penalty>  (189) 
0.499401

>  <i_epik_Tot_Q>  (189) 
1

>  <i_epik_Tot_abs_Q>  (189) 
1

>  <s_epik_Chemistry_Notes>  (189) 
This compound has an ester and may undergo hydrolysis at high or low pH.

>  <s_lp_Force_Field>  (189) 
OPLS3e

>  <r_lp_Energy>  (189) 
90.7418

>  <b_lp_Chiralities_Consistent>  (189) 
1

>  <s_lp_Variant>  (189) 
59:0-2

>  <s_i_glide_gridfile>  (189) 
pfpi4k_grid

>  <i_i_glide_lignum>  (189) 
39

>  <i_i_glide_rotatable_bonds>  (189) 
4

>  <r_i_docking_score>  (189) 
-2.24079

>  <r_i_glide_ligand_efficiency>  (189) 
-0.0640226

>  <r_i_glide_ligand_efficiency_sa>  (189) 
-0.209422

>  <r_i_glide_ligand_efficiency_ln>  (189) 
-0.491904

>  <r_i_glide_gscore>  (189) 
-2.24079

>  <r_i_glide_lipo>  (189) 
-0.00593896

>  <r_i_glide_hbond>  (189) 
-0.0431138

>  <r_i_glide_metal>  (189) 
-0

>  <r_i_glide_rewards>  (189) 
-0.107157

>  <r_i_glide_evdw>  (189) 
-24.6966

>  <r_i_glide_ecoul>  (189) 
-6.97274

>  <r_i_glide_erotb>  (189) 
0.259483

>  <r_i_glide_esite>  (189) 
-0.0633262

>  <r_i_glide_emodel>  (189) 
-35.4737

>  <r_i_glide_energy>  (189) 
-31.6693

>  <r_i_glide_einternal>  (189) 
3.14557

>  <r_i_glide_intrahb_reward>  (189) 
-0

>  <i_i_glide_confnum>  (189) 
1

>  <i_i_glide_posenum>  (189) 
26

>  <r_i_glide_eff_state_penalty>  (189) 
0

>  <ligand_id>  (189) 
59

>  <original_smiles>  (189) 
CN1CC2OC(C)(C1)C13CC4(C)C(O)CC1C4(C(=O)C=C1C(=O)OC(c4ccoc4)C1(C)C)OC23

>  <smiles>  (189) 
[H]OC1([H])C([H])([H])C2([H])C3(C(=O)C([H])=C4C(=O)OC([H])(c5c([H])oc([H])c5[H])C4(C([H])([H])[H])C([H])([H])[H])OC4([H])C5([H])OC(C([H])([H])[H])(C42C([H])([H])C13C([H])([H])[H])C([H])([H])[N+]([H])(C([H])([H])[H])C5([H])[H]

$$$$
59:1:2
     RDKit          3D

 69 75  0  0  1  0  0  0  0  0999 V2000
    0.8695   -9.4665    8.0265 C   0  0  0  0  0  0  0  0  0  0  0  0
    1.3170   -9.0826    6.6674 N   0  0  2  0  0  0  0  0  0  0  0  0
    0.3221   -8.2453    5.9457 C   0  0  0  0  0  0  0  0  0  0  0  0
    0.7927   -7.9818    4.4985 C   0  0  2  0  0  0  0  0  0  0  0  0
    0.7921   -9.2803    3.9084 O   0  0  0  0  0  0  0  0  0  0  0  0
    1.9891   -9.9188    4.3454 C   0  0  2  0  0  0  0  0  0  0  0  0
    2.1565  -11.2097    3.5369 C   0  0  0  0  0  0  0  0  0  0  0  0
    1.7903  -10.2408    5.8564 C   0  0  0  0  0  0  0  0  0  0  0  0
    3.0002   -8.7961    4.0038 C   0  0  1  0  0  0  0  0  0  0  0  0
    4.4124   -8.7011    4.5938 C   0  0  0  0  0  0  0  0  0  0  0  0
    5.0484   -7.7445    3.5417 C   0  0  1  0  0  0  0  0  0  0  0  0
    6.0346   -6.7263    4.1412 C   0  0  0  0  0  0  0  0  0  0  0  0
    5.6672   -8.6344    2.4295 C   0  0  1  0  0  0  0  0  0  0  0  0
    6.6378   -9.5524    2.8881 O   0  0  0  0  0  0  0  0  0  0  0  0
    4.4222   -9.3479    1.8766 C   0  0  0  0  0  0  0  0  0  0  0  0
    3.2459   -8.5342    2.4978 C   0  0  2  0  0  0  0  0  0  0  0  0
    3.8023   -7.1512    2.7868 C   0  0  2  0  0  0  0  0  0  0  0  0
    4.1038   -6.2652    1.5552 C   0  0  0  0  0  0  0  0  0  0  0  0
    4.0220   -6.7747    0.4425 O   0  0  0  0  0  0  0  0  0  0  0  0
    4.5725   -4.8805    1.7627 C   0  0  0  0  0  0  0  0  0  0  0  0
    4.5081   -3.8559    0.8773 C   0  0  0  0  0  0  0  0  0  0  0  0
    5.0724   -2.5433    1.2188 C   0  0  0  0  0  0  0  0  0  0  0  0
    5.8144   -2.2808    2.1672 O   0  0  0  0  0  0  0  0  0  0  0  0
    4.6830   -1.6732    0.2963 O   0  0  0  0  0  0  0  0  0  0  0  0
    3.6683   -2.1782   -0.5567 C   0  0  1  0  0  0  0  0  0  0  0  0
    3.6771   -1.5557   -1.9275 C   0  0  0  0  0  0  0  0  0  0  0  0
    2.6846   -1.6945   -2.9348 C   0  0  0  0  0  0  0  0  0  0  0  0
    3.0545   -0.8906   -3.9777 C   0  0  0  0  0  0  0  0  0  0  0  0
    4.2125   -0.2581   -3.6943 O   0  0  0  0  0  0  0  0  0  0  0  0
    4.5786   -0.6707   -2.4490 C   0  0  0  0  0  0  0  0  0  0  0  0
    3.8450   -3.7196   -0.4867 C   0  0  0  0  0  0  0  0  0  0  0  0
    4.7981   -4.2726   -1.5698 C   0  0  0  0  0  0  0  0  0  0  0  0
    2.4344   -4.3490   -0.5957 C   0  0  0  0  0  0  0  0  0  0  0  0
    2.7426   -6.5586    3.5522 O   0  0  0  0  0  0  0  0  0  0  0  0
    2.2779   -7.5395    4.4631 C   0  0  1  0  0  0  0  0  0  0  0  0
   -0.0062  -10.1175    7.9789 H   0  0  0  0  0  0  0  0  0  0  0  0
    0.6138   -8.5821    8.6158 H   0  0  0  0  0  0  0  0  0  0  0  0
    1.6640  -10.0014    8.5509 H   0  0  0  0  0  0  0  0  0  0  0  0
   -0.6402   -8.7611    5.9187 H   0  0  0  0  0  0  0  0  0  0  0  0
    0.1810   -7.3030    6.4807 H   0  0  0  0  0  0  0  0  0  0  0  0
    0.1236   -7.2993    3.9761 H   0  0  0  0  0  0  0  0  0  0  0  0
    3.1067  -11.7003    3.7507 H   0  0  0  0  0  0  0  0  0  0  0  0
    2.1147  -11.0065    2.4684 H   0  0  0  0  0  0  0  0  0  0  0  0
    1.3545  -11.9210    3.7495 H   0  0  0  0  0  0  0  0  0  0  0  0
    2.7113  -10.6351    6.2926 H   0  0  0  0  0  0  0  0  0  0  0  0
    1.0354  -11.0256    5.9216 H   0  0  0  0  0  0  0  0  0  0  0  0
    4.4316   -8.2863    5.6022 H   0  0  0  0  0  0  0  0  0  0  0  0
    4.8974   -9.6783    4.6467 H   0  0  0  0  0  0  0  0  0  0  0  0
    6.5539   -6.1594    3.3680 H   0  0  0  0  0  0  0  0  0  0  0  0
    6.8062   -7.2214    4.7330 H   0  0  0  0  0  0  0  0  0  0  0  0
    5.5128   -6.0197    4.7893 H   0  0  0  0  0  0  0  0  0  0  0  0
    6.1370   -8.0311    1.6496 H   0  0  0  0  0  0  0  0  0  0  0  0
    6.8458  -10.1323    2.1729 H   0  0  0  0  0  0  0  0  0  0  0  0
    4.4134   -9.3133    0.7865 H   0  0  0  0  0  0  0  0  0  0  0  0
    4.3902  -10.4001    2.1551 H   0  0  0  0  0  0  0  0  0  0  0  0
    2.3405   -8.5317    1.8885 H   0  0  0  0  0  0  0  0  0  0  0  0
    5.0402   -4.6697    2.7121 H   0  0  0  0  0  0  0  0  0  0  0  0
    2.7313   -1.8949   -0.0764 H   0  0  0  0  0  0  0  0  0  0  0  0
    1.7695   -2.2734   -2.8893 H   0  0  0  0  0  0  0  0  0  0  0  0
    2.6076   -0.6437   -4.9269 H   0  0  0  0  0  0  0  0  0  0  0  0
    5.4788   -0.2254   -2.0604 H   0  0  0  0  0  0  0  0  0  0  0  0
    4.4021   -4.1396   -2.5778 H   0  0  0  0  0  0  0  0  0  0  0  0
    4.9652   -5.3438   -1.4343 H   0  0  0  0  0  0  0  0  0  0  0  0
    5.7837   -3.8043   -1.5296 H   0  0  0  0  0  0  0  0  0  0  0  0
    1.9158   -3.9857   -1.4857 H   0  0  0  0  0  0  0  0  0  0  0  0
    1.8365   -4.0944    0.2830 H   0  0  0  0  0  0  0  0  0  0  0  0
    2.4306   -5.4298   -0.7056 H   0  0  0  0  0  0  0  0  0  0  0  0
    2.5835   -7.1899    5.4494 H   0  0  0  0  0  0  0  0  0  0  0  0
    2.1344   -8.4905    6.8046 H   0  0  0  0  0  0  0  0  0  0  0  0
  1  2  1  0
  1 36  1  0
  1 37  1  0
  1 38  1  0
  2  8  1  0
  2  3  1  0
  2 69  1  1
  3  4  1  0
  3 39  1  0
  3 40  1  0
  4 35  1  0
  4  5  1  0
  4 41  1  6
  5  6  1  0
  6  7  1  6
  6  8  1  0
  6  9  1  0
  7 42  1  0
  7 43  1  0
  7 44  1  0
  8 45  1  0
  8 46  1  0
  9 16  1  0
  9 35  1  0
  9 10  1  1
 10 11  1  0
 10 47  1  0
 10 48  1  0
 11 17  1  0
 11 12  1  1
 11 13  1  0
 12 49  1  0
 12 50  1  0
 12 51  1  0
 13 14  1  0
 13 15  1  0
 13 52  1  6
 14 53  1  0
 15 16  1  0
 15 54  1  0
 15 55  1  0
 16 17  1  0
 16 56  1  6
 17 18  1  6
 17 34  1  0
 18 19  2  0
 18 20  1  0
 20 21  2  3
 20 57  1  0
 21 31  1  0
 21 22  1  0
 22 23  2  0
 22 24  1  0
 24 25  1  0
 25 26  1  0
 25 31  1  0
 25 58  1  1
 26 30  2  0
 26 27  1  0
 27 28  2  0
 27 59  1  0
 28 29  1  0
 28 60  1  0
 29 30  1  0
 30 61  1  0
 31 32  1  0
 31 33  1  0
 32 62  1  0
 32 63  1  0
 32 64  1  0
 33 65  1  0
 33 66  1  0
 33 67  1  0
 34 35  1  0
 35 68  1  1
M  CHG  1   2   1
M  END
>  <i_m_ct_stereo_status>  (190) 
1

>  <s_m_source_file>  (190) 
/var/tmp/pbs.5076255.sched01/tmp1pt1fpgk/39zsbf0m6x.sdf

>  <i_m_source_file_index>  (190) 
39

>  <i_lp_mmshare_version>  (190) 
48012

>  <i_f3d_flags>  (190) 
0

>  <s_epik_input>  (190) 
W0NIM11OKFtDSDJdMSlbQ0gyXVtDQEhdKE9bQ0BdMShbQ0BAXTIzNClbQ0gzXSlbQ0BASF00T1tDQF01KFtDQF0oW0NIMl0yKShbQ0gzXSlbQ0BASF0oW09IXSlbQ0gyXVtDQEBIXTM1KUMoPU8pL1tDSF09QyhDNihbQ0gzXSlbQ0gzXSlcQyg9TylPW0NASF02YzdbY0hdW2NIXW9bY0hdNw==

>  <s_epik_cmdline>  (190) 
J2VwaWtfcHl0aG9uJywgJy1waHQnLCAnMi4wJywgJy1waCcsICc3LjAnLCAnLXRuJywgJzgnLCAnLW1hJywgJzIwMCcsICctaW1hZScsICc8aW5maWxlLm1hZT4nLCAnLW9tYWUnLCAnPG91dGZpbGUubWFlPic=

>  <r_epik_Ionization_Penalty>  (190) 
0.253973

>  <r_epik_Ionization_Penalty_Charging>  (190) 
0.253973

>  <r_epik_Ionization_Penalty_Neutral>  (190) 
1.18036e-07

>  <r_epik_State_Penalty>  (190) 
0.245429

>  <r_epik_Charging_Adjusted_Penalty>  (190) 
0.499401

>  <i_epik_Tot_Q>  (190) 
1

>  <i_epik_Tot_abs_Q>  (190) 
1

>  <s_epik_Chemistry_Notes>  (190) 
This compound has an ester and may undergo hydrolysis at high or low pH.

>  <s_lp_Force_Field>  (190) 
OPLS3e

>  <r_lp_Energy>  (190) 
90.7418

>  <b_lp_Chiralities_Consistent>  (190) 
1

>  <s_lp_Variant>  (190) 
59:0-2

>  <s_i_glide_gridfile>  (190) 
pfpi4k_grid

>  <i_i_glide_lignum>  (190) 
39

>  <i_i_glide_rotatable_bonds>  (190) 
4

>  <r_i_docking_score>  (190) 
-2.17297

>  <r_i_glide_ligand_efficiency>  (190) 
-0.0620848

>  <r_i_glide_ligand_efficiency_sa>  (190) 
-0.203083

>  <r_i_glide_ligand_efficiency_ln>  (190) 
-0.477014

>  <r_i_glide_gscore>  (190) 
-2.17297

>  <r_i_glide_lipo>  (190) 
-0.292633

>  <r_i_glide_hbond>  (190) 
0

>  <r_i_glide_metal>  (190) 
-0

>  <r_i_glide_rewards>  (190) 
-0.224135

>  <r_i_glide_evdw>  (190) 
-28.3289

>  <r_i_glide_ecoul>  (190) 
-2.95739

>  <r_i_glide_erotb>  (190) 
0.259483

>  <r_i_glide_esite>  (190) 
-0.0556303

>  <r_i_glide_emodel>  (190) 
-35.6038

>  <r_i_glide_energy>  (190) 
-31.2862

>  <r_i_glide_einternal>  (190) 
2.0923

>  <r_i_glide_intrahb_reward>  (190) 
-0

>  <i_i_glide_confnum>  (190) 
1

>  <i_i_glide_posenum>  (190) 
2

>  <r_i_glide_eff_state_penalty>  (190) 
0

>  <ligand_id>  (190) 
59

>  <original_smiles>  (190) 
CN1CC2OC(C)(C1)C13CC4(C)C(O)CC1C4(C(=O)C=C1C(=O)OC(c4ccoc4)C1(C)C)OC23

>  <smiles>  (190) 
[H]OC1([H])C([H])([H])C2([H])C3(C(=O)C([H])=C4C(=O)OC([H])(c5c([H])oc([H])c5[H])C4(C([H])([H])[H])C([H])([H])[H])OC4([H])C5([H])OC(C([H])([H])[H])(C42C([H])([H])C13C([H])([H])[H])C([H])([H])[N+]([H])(C([H])([H])[H])C5([H])[H]

$$$$
59:2:0
     RDKit          3D

 68 74  0  0  1  0  0  0  0  0999 V2000
    4.4253   -8.0635    1.3200 C   0  0  0  0  0  0  0  0  0  0  0  0
    4.0610   -6.6708    1.5792 N   0  0  0  0  0  0  0  0  0  0  0  0
    3.0385   -6.5692    2.6273 C   0  0  0  0  0  0  0  0  0  0  0  0
    2.4837   -5.1369    2.7487 C   0  0  2  0  0  0  0  0  0  0  0  0
    1.8218   -4.9899    1.4931 O   0  0  0  0  0  0  0  0  0  0  0  0
    2.8468   -4.6679    0.5526 C   0  0  2  0  0  0  0  0  0  0  0  0
    2.1861   -4.2137   -0.7561 C   0  0  0  0  0  0  0  0  0  0  0  0
    3.6548   -5.9787    0.3503 C   0  0  0  0  0  0  0  0  0  0  0  0
    3.5608   -3.5353    1.3226 C   0  0  1  0  0  0  0  0  0  0  0  0
    4.9786   -3.0457    1.0094 C   0  0  0  0  0  0  0  0  0  0  0  0
    4.8784   -1.6554    1.7148 C   0  0  1  0  0  0  0  0  0  0  0  0
    6.1657   -1.2446    2.4024 C   0  0  0  0  0  0  0  0  0  0  0  0
    4.4251   -0.6426    0.6735 C   0  0  1  0  0  0  0  0  0  0  0  0
    5.2311   -0.6534   -0.4684 O   0  0  0  0  0  0  0  0  0  0  0  0
    3.0228   -1.1459    0.3828 C   0  0  0  0  0  0  0  0  0  0  0  0
    2.7643   -2.2217    1.4697 C   0  0  2  0  0  0  0  0  0  0  0  0
    3.6072   -1.7851    2.6313 C   0  0  2  0  0  0  0  0  0  0  0  0
    3.1620   -0.5060    3.3834 C   0  0  0  0  0  0  0  0  0  0  0  0
    3.9621    0.4142    3.5007 O   0  0  0  0  0  0  0  0  0  0  0  0
    1.7853   -0.4395    3.9235 C   0  0  0  0  0  0  0  0  0  0  0  0
    1.2598    0.4549    4.7982 C   0  0  0  0  0  0  0  0  0  0  0  0
    1.9196    1.5648    5.5428 C   0  0  0  0  0  0  0  0  0  0  0  0
    3.0375    2.0556    5.3968 O   0  0  0  0  0  0  0  0  0  0  0  0
    1.0617    2.0038    6.4589 O   0  0  0  0  0  0  0  0  0  0  0  0
   -0.0599    1.1762    6.6219 C   0  0  1  0  0  0  0  0  0  0  0  0
   -1.2435    1.9702    7.1277 C   0  0  0  0  0  0  0  0  0  0  0  0
   -1.7429    1.9270    8.4646 C   0  0  0  0  0  0  0  0  0  0  0  0
   -2.7938    2.7966    8.5138 C   0  0  0  0  0  0  0  0  0  0  0  0
   -2.9883    3.3915    7.3139 O   0  0  0  0  0  0  0  0  0  0  0  0
   -2.0202    2.9041    6.4963 C   0  0  0  0  0  0  0  0  0  0  0  0
   -0.1794    0.4136    5.2856 C   0  0  0  0  0  0  0  0  0  0  0  0
   -1.0717    1.0660    4.2108 C   0  0  0  0  0  0  0  0  0  0  0  0
   -0.6949   -1.0144    5.5570 C   0  0  0  0  0  0  0  0  0  0  0  0
    3.5310   -2.8977    3.5211 O   0  0  0  0  0  0  0  0  0  0  0  0
    3.6142   -4.0768    2.7370 C   0  0  1  0  0  0  0  0  0  0  0  0
    4.7744   -8.5613    2.2264 H   0  0  0  0  0  0  0  0  0  0  0  0
    5.2175   -8.1345    0.5742 H   0  0  0  0  0  0  0  0  0  0  0  0
    3.5729   -8.6328    0.9463 H   0  0  0  0  0  0  0  0  0  0  0  0
    2.2127   -7.2480    2.4088 H   0  0  0  0  0  0  0  0  0  0  0  0
    3.4616   -6.8758    3.5785 H   0  0  0  0  0  0  0  0  0  0  0  0
    1.7912   -5.0268    3.5841 H   0  0  0  0  0  0  0  0  0  0  0  0
    2.9227   -3.9031   -1.4992 H   0  0  0  0  0  0  0  0  0  0  0  0
    1.4994   -3.3778   -0.6373 H   0  0  0  0  0  0  0  0  0  0  0  0
    1.5904   -5.0308   -1.1536 H   0  0  0  0  0  0  0  0  0  0  0  0
    4.5248   -5.7876   -0.2697 H   0  0  0  0  0  0  0  0  0  0  0  0
    3.0155   -6.6464   -0.2130 H   0  0  0  0  0  0  0  0  0  0  0  0
    5.7555   -3.6882    1.4288 H   0  0  0  0  0  0  0  0  0  0  0  0
    5.1660   -2.9900   -0.0648 H   0  0  0  0  0  0  0  0  0  0  0  0
    6.1953   -0.2325    2.8087 H   0  0  0  0  0  0  0  0  0  0  0  0
    7.0158   -1.3237    1.7238 H   0  0  0  0  0  0  0  0  0  0  0  0
    6.2120   -1.9470    3.2287 H   0  0  0  0  0  0  0  0  0  0  0  0
    4.3903    0.3874    1.0483 H   0  0  0  0  0  0  0  0  0  0  0  0
    5.1744    0.2403   -0.7819 H   0  0  0  0  0  0  0  0  0  0  0  0
    2.3398   -0.3054    0.4974 H   0  0  0  0  0  0  0  0  0  0  0  0
    2.9863   -1.5490   -0.6288 H   0  0  0  0  0  0  0  0  0  0  0  0
    1.7075   -2.3666    1.6881 H   0  0  0  0  0  0  0  0  0  0  0  0
    1.1139   -1.2129    3.5721 H   0  0  0  0  0  0  0  0  0  0  0  0
    0.2236    0.4905    7.4136 H   0  0  0  0  0  0  0  0  0  0  0  0
   -1.3727    1.3508    9.2978 H   0  0  0  0  0  0  0  0  0  0  0  0
   -3.4761    3.1005    9.2938 H   0  0  0  0  0  0  0  0  0  0  0  0
   -2.0443    3.3305    5.4893 H   0  0  0  0  0  0  0  0  0  0  0  0
   -2.1193    1.0877    4.5052 H   0  0  0  0  0  0  0  0  0  0  0  0
   -1.0281    0.5279    3.2600 H   0  0  0  0  0  0  0  0  0  0  0  0
   -0.7366    2.0808    4.0061 H   0  0  0  0  0  0  0  0  0  0  0  0
   -1.6751   -0.9687    6.0304 H   0  0  0  0  0  0  0  0  0  0  0  0
   -0.0321   -1.5742    6.2216 H   0  0  0  0  0  0  0  0  0  0  0  0
   -0.8202   -1.5933    4.6382 H   0  0  0  0  0  0  0  0  0  0  0  0
    4.5642   -4.5423    3.0013 H   0  0  0  0  0  0  0  0  0  0  0  0
  1  2  1  0
  1 36  1  0
  1 37  1  0
  1 38  1  0
  2  8  1  0
  2  3  1  0
  3  4  1  0
  3 39  1  0
  3 40  1  0
  4 35  1  0
  4  5  1  0
  4 41  1  1
  5  6  1  0
  6  7  1  6
  6  8  1  0
  6  9  1  0
  7 42  1  0
  7 43  1  0
  7 44  1  0
  8 45  1  0
  8 46  1  0
  9 16  1  0
  9 35  1  0
  9 10  1  6
 10 11  1  0
 10 47  1  0
 10 48  1  0
 11 17  1  0
 11 12  1  1
 11 13  1  0
 12 49  1  0
 12 50  1  0
 12 51  1  0
 13 14  1  0
 13 15  1  0
 13 52  1  1
 14 53  1  0
 15 16  1  0
 15 54  1  0
 15 55  1  0
 16 17  1  0
 16 56  1  1
 17 18  1  1
 17 34  1  0
 18 19  2  0
 18 20  1  0
 20 21  2  3
 20 57  1  0
 21 31  1  0
 21 22  1  0
 22 23  2  0
 22 24  1  0
 24 25  1  0
 25 26  1  0
 25 31  1  0
 25 58  1  1
 26 30  2  0
 26 27  1  0
 27 28  2  0
 27 59  1  0
 28 29  1  0
 28 60  1  0
 29 30  1  0
 30 61  1  0
 31 32  1  0
 31 33  1  0
 32 62  1  0
 32 63  1  0
 32 64  1  0
 33 65  1  0
 33 66  1  0
 33 67  1  0
 34 35  1  0
 35 68  1  6
M  END
>  <i_m_ct_stereo_status>  (191) 
1

>  <s_m_source_file>  (191) 
/var/tmp/pbs.5076255.sched01/tmpy0mqr2dw/78t3ouse6d.sdf

>  <i_m_source_file_index>  (191) 
1

>  <i_lp_mmshare_version>  (191) 
48012

>  <i_f3d_flags>  (191) 
0

>  <s_epik_input>  (191) 
W0NIM11OKFtDSDJdMSlbQ0gyXVtDQEhdKE9bQ0BdMShbQ0BAXTIzNClbQ0gzXSlbQ0BASF00T1tDQF01KFtDQF0oW0NIMl0yKShbQ0gzXSlbQ0BASF0oW09IXSlbQ0gyXVtDQEBIXTM1KUMoPU8pL1tDSF09QyhDNihbQ0gzXSlbQ0gzXSlcQyg9TylPW0NASF02YzdbY0hdW2NIXW9bY0hdNw==

>  <s_epik_cmdline>  (191) 
J2VwaWtfcHl0aG9uJywgJy1waHQnLCAnMi4wJywgJy1waCcsICc3LjAnLCAnLXRuJywgJzgnLCAnLW1hJywgJzIwMCcsICctaW1hZScsICc8aW5maWxlLm1hZT4nLCAnLW9tYWUnLCAnPG91dGZpbGUubWFlPic=

>  <r_epik_Ionization_Penalty>  (191) 
0.624352

>  <r_epik_Ionization_Penalty_Charging>  (191) 
0

>  <r_epik_Ionization_Penalty_Neutral>  (191) 
0.624352

>  <r_epik_State_Penalty>  (191) 
0.640654

>  <r_epik_Charging_Adjusted_Penalty>  (191) 
0.640654

>  <i_epik_Tot_Q>  (191) 
0

>  <i_epik_Tot_abs_Q>  (191) 
0

>  <s_epik_Chemistry_Notes>  (191) 
This compound has an ester and may undergo hydrolysis at high or low pH.

>  <s_lp_Force_Field>  (191) 
OPLS3e

>  <r_lp_Energy>  (191) 
81.0659

>  <b_lp_Chiralities_Consistent>  (191) 
1

>  <s_lp_Variant>  (191) 
59:0-3

>  <s_i_glide_gridfile>  (191) 
pfpi4k_grid

>  <i_i_glide_lignum>  (191) 
1

>  <i_i_glide_rotatable_bonds>  (191) 
4

>  <r_i_docking_score>  (191) 
-2.68113

>  <r_i_glide_ligand_efficiency>  (191) 
-0.0766038

>  <r_i_glide_ligand_efficiency_sa>  (191) 
-0.250576

>  <r_i_glide_ligand_efficiency_ln>  (191) 
-0.588568

>  <r_i_glide_gscore>  (191) 
-2.68113

>  <r_i_glide_lipo>  (191) 
-0.492913

>  <r_i_glide_hbond>  (191) 
-0.373646

>  <r_i_glide_metal>  (191) 
-0

>  <r_i_glide_rewards>  (191) 
-0.113745

>  <r_i_glide_evdw>  (191) 
-22.6682

>  <r_i_glide_ecoul>  (191) 
-5.51925

>  <r_i_glide_erotb>  (191) 
0.260473

>  <r_i_glide_esite>  (191) 
0

>  <r_i_glide_emodel>  (191) 
-31.0322

>  <r_i_glide_energy>  (191) 
-28.1875

>  <r_i_glide_einternal>  (191) 
3.59252

>  <r_i_glide_intrahb_reward>  (191) 
-0

>  <i_i_glide_confnum>  (191) 
5

>  <i_i_glide_posenum>  (191) 
6

>  <r_i_glide_eff_state_penalty>  (191) 
0

>  <ligand_id>  (191) 
59

>  <original_smiles>  (191) 
CN1CC2OC(C)(C1)C13CC4(C)C(O)CC1C4(C(=O)C=C1C(=O)OC(c4ccoc4)C1(C)C)OC23

>  <smiles>  (191) 
[H]OC1([H])C([H])([H])C2([H])C3(C(=O)C([H])=C4C(=O)OC([H])(c5c([H])oc([H])c5[H])C4(C([H])([H])[H])C([H])([H])[H])OC4([H])C5([H])OC(C([H])([H])[H])(C([H])([H])N(C([H])([H])[H])C5([H])[H])C42C([H])([H])C13C([H])([H])[H]

$$$$
59:2:1
     RDKit          3D

 68 74  0  0  1  0  0  0  0  0999 V2000
    4.5753   -8.8852    1.2689 C   0  0  0  0  0  0  0  0  0  0  0  0
    3.9845   -7.8033    2.0555 N   0  0  0  0  0  0  0  0  0  0  0  0
    3.7022   -6.6180    1.2360 C   0  0  0  0  0  0  0  0  0  0  0  0
    3.2703   -5.4116    2.1024 C   0  0  2  0  0  0  0  0  0  0  0  0
    4.4431   -5.1314    2.8695 O   0  0  0  0  0  0  0  0  0  0  0  0
    4.4806   -6.1085    3.9106 C   0  0  2  0  0  0  0  0  0  0  0  0
    5.5920   -5.7190    4.8941 C   0  0  0  0  0  0  0  0  0  0  0  0
    4.8024   -7.4767    3.2322 C   0  0  0  0  0  0  0  0  0  0  0  0
    3.0393   -5.9060    4.4430 C   0  0  1  0  0  0  0  0  0  0  0  0
    2.3041   -6.9046    5.3407 C   0  0  0  0  0  0  0  0  0  0  0  0
    1.2117   -5.9458    5.9145 C   0  0  1  0  0  0  0  0  0  0  0  0
   -0.1656   -6.6211    6.0877 C   0  0  0  0  0  0  0  0  0  0  0  0
    1.7877   -5.3413    7.2254 C   0  0  1  0  0  0  0  0  0  0  0  0
    2.1215   -6.2660    8.2324 O   0  0  0  0  0  0  0  0  0  0  0  0
    2.9882   -4.5377    6.6861 C   0  0  0  0  0  0  0  0  0  0  0  0
    2.7697   -4.5495    5.1430 C   0  0  2  0  0  0  0  0  0  0  0  0
    1.2751   -4.6953    4.9500 C   0  0  2  0  0  0  0  0  0  0  0  0
    0.4051   -3.4613    5.3262 C   0  0  0  0  0  0  0  0  0  0  0  0
   -0.5353   -3.6140    6.1081 O   0  0  0  0  0  0  0  0  0  0  0  0
    0.7519   -2.1512    4.7481 C   0  0  0  0  0  0  0  0  0  0  0  0
   -0.0050   -1.0227    4.6902 C   0  0  0  0  0  0  0  0  0  0  0  0
   -1.4229   -0.8338    5.0580 C   0  0  0  0  0  0  0  0  0  0  0  0
   -2.1861   -1.5721    5.6742 O   0  0  0  0  0  0  0  0  0  0  0  0
   -1.7861    0.3576    4.6231 O   0  0  0  0  0  0  0  0  0  0  0  0
   -0.8751    0.9615    3.7350 C   0  0  1  0  0  0  0  0  0  0  0  0
   -0.9681    2.4692    3.7706 C   0  0  0  0  0  0  0  0  0  0  0  0
    0.0419    3.4303    3.5791 C   0  0  0  0  0  0  0  0  0  0  0  0
   -0.5477    4.6704    3.6785 C   0  0  0  0  0  0  0  0  0  0  0  0
   -1.8864    4.5175    3.8094 O   0  0  0  0  0  0  0  0  0  0  0  0
   -2.1452    3.1948    3.8563 C   0  0  0  0  0  0  0  0  0  0  0  0
    0.4705    0.2938    4.1138 C   0  0  0  0  0  0  0  0  0  0  0  0
    1.3069    1.0018    5.2165 C   0  0  0  0  0  0  0  0  0  0  0  0
    1.3240    0.1178    2.8368 C   0  0  0  0  0  0  0  0  0  0  0  0
    1.1670   -4.9299    3.5387 O   0  0  0  0  0  0  0  0  0  0  0  0
    2.2191   -5.8134    3.1670 C   0  0  1  0  0  0  0  0  0  0  0  0
    3.9405   -9.1640    0.4269 H   0  0  0  0  0  0  0  0  0  0  0  0
    4.7250   -9.7790    1.8760 H   0  0  0  0  0  0  0  0  0  0  0  0
    5.5467   -8.5891    0.8720 H   0  0  0  0  0  0  0  0  0  0  0  0
    4.5873   -6.3458    0.6586 H   0  0  0  0  0  0  0  0  0  0  0  0
    2.9150   -6.8491    0.5205 H   0  0  0  0  0  0  0  0  0  0  0  0
    2.9725   -4.5579    1.4923 H   0  0  0  0  0  0  0  0  0  0  0  0
    5.5868   -6.3601    5.7747 H   0  0  0  0  0  0  0  0  0  0  0  0
    5.4973   -4.6850    5.2223 H   0  0  0  0  0  0  0  0  0  0  0  0
    6.5707   -5.8068    4.4246 H   0  0  0  0  0  0  0  0  0  0  0  0
    4.7005   -8.2746    3.9664 H   0  0  0  0  0  0  0  0  0  0  0  0
    5.8539   -7.4619    2.9322 H   0  0  0  0  0  0  0  0  0  0  0  0
    1.8803   -7.7439    4.7889 H   0  0  0  0  0  0  0  0  0  0  0  0
    2.9604   -7.3266    6.0992 H   0  0  0  0  0  0  0  0  0  0  0  0
   -0.8817   -5.9802    6.6013 H   0  0  0  0  0  0  0  0  0  0  0  0
   -0.0814   -7.5268    6.6879 H   0  0  0  0  0  0  0  0  0  0  0  0
   -0.5960   -6.8885    5.1218 H   0  0  0  0  0  0  0  0  0  0  0  0
    1.0769   -4.6595    7.6979 H   0  0  0  0  0  0  0  0  0  0  0  0
    2.7529   -6.8868    7.8739 H   0  0  0  0  0  0  0  0  0  0  0  0
    2.9717   -3.5213    7.0836 H   0  0  0  0  0  0  0  0  0  0  0  0
    3.9415   -4.9862    6.9719 H   0  0  0  0  0  0  0  0  0  0  0  0
    3.2334   -3.7054    4.6289 H   0  0  0  0  0  0  0  0  0  0  0  0
    1.7543   -2.0681    4.3598 H   0  0  0  0  0  0  0  0  0  0  0  0
   -1.1960    0.6285    2.7460 H   0  0  0  0  0  0  0  0  0  0  0  0
    1.0962    3.2810    3.3850 H   0  0  0  0  0  0  0  0  0  0  0  0
   -0.1636    5.6601    3.5848 H   0  0  0  0  0  0  0  0  0  0  0  0
   -3.1819    2.9227    3.9137 H   0  0  0  0  0  0  0  0  0  0  0  0
    1.7255    1.9672    4.9138 H   0  0  0  0  0  0  0  0  0  0  0  0
    2.1571    0.3763    5.5193 H   0  0  0  0  0  0  0  0  0  0  0  0
    0.7075    1.1646    6.1152 H   0  0  0  0  0  0  0  0  0  0  0  0
    1.5150    1.0835    2.3669 H   0  0  0  0  0  0  0  0  0  0  0  0
    0.8262   -0.5038    2.0870 H   0  0  0  0  0  0  0  0  0  0  0  0
    2.3019   -0.3280    3.0436 H   0  0  0  0  0  0  0  0  0  0  0  0
    1.7383   -6.7496    2.8793 H   0  0  0  0  0  0  0  0  0  0  0  0
  1  2  1  0
  1 36  1  0
  1 37  1  0
  1 38  1  0
  2  8  1  0
  2  3  1  0
  3  4  1  0
  3 39  1  0
  3 40  1  0
  4 35  1  0
  4  5  1  0
  4 41  1  6
  5  6  1  0
  6  7  1  1
  6  8  1  0
  6  9  1  0
  7 42  1  0
  7 43  1  0
  7 44  1  0
  8 45  1  0
  8 46  1  0
  9 16  1  0
  9 35  1  0
  9 10  1  1
 10 11  1  0
 10 47  1  0
 10 48  1  0
 11 17  1  0
 11 12  1  1
 11 13  1  0
 12 49  1  0
 12 50  1  0
 12 51  1  0
 13 14  1  0
 13 15  1  0
 13 52  1  1
 14 53  1  0
 15 16  1  0
 15 54  1  0
 15 55  1  0
 16 17  1  0
 16 56  1  6
 17 18  1  1
 17 34  1  0
 18 19  2  0
 18 20  1  0
 20 21  2  3
 20 57  1  0
 21 31  1  0
 21 22  1  0
 22 23  2  0
 22 24  1  0
 24 25  1  0
 25 26  1  0
 25 31  1  0
 25 58  1  6
 26 30  2  0
 26 27  1  0
 27 28  2  0
 27 59  1  0
 28 29  1  0
 28 60  1  0
 29 30  1  0
 30 61  1  0
 31 32  1  0
 31 33  1  0
 32 62  1  0
 32 63  1  0
 32 64  1  0
 33 65  1  0
 33 66  1  0
 33 67  1  0
 34 35  1  0
 35 68  1  6
M  END
>  <i_m_ct_stereo_status>  (192) 
1

>  <s_m_source_file>  (192) 
/var/tmp/pbs.5076255.sched01/tmpy0mqr2dw/78t3ouse6d.sdf

>  <i_m_source_file_index>  (192) 
1

>  <i_lp_mmshare_version>  (192) 
48012

>  <i_f3d_flags>  (192) 
0

>  <s_epik_input>  (192) 
W0NIM11OKFtDSDJdMSlbQ0gyXVtDQEhdKE9bQ0BdMShbQ0BAXTIzNClbQ0gzXSlbQ0BASF00T1tDQF01KFtDQF0oW0NIMl0yKShbQ0gzXSlbQ0BASF0oW09IXSlbQ0gyXVtDQEBIXTM1KUMoPU8pL1tDSF09QyhDNihbQ0gzXSlbQ0gzXSlcQyg9TylPW0NASF02YzdbY0hdW2NIXW9bY0hdNw==

>  <s_epik_cmdline>  (192) 
J2VwaWtfcHl0aG9uJywgJy1waHQnLCAnMi4wJywgJy1waCcsICc3LjAnLCAnLXRuJywgJzgnLCAnLW1hJywgJzIwMCcsICctaW1hZScsICc8aW5maWxlLm1hZT4nLCAnLW9tYWUnLCAnPG91dGZpbGUubWFlPic=

>  <r_epik_Ionization_Penalty>  (192) 
0.624352

>  <r_epik_Ionization_Penalty_Charging>  (192) 
0

>  <r_epik_Ionization_Penalty_Neutral>  (192) 
0.624352

>  <r_epik_State_Penalty>  (192) 
0.640654

>  <r_epik_Charging_Adjusted_Penalty>  (192) 
0.640654

>  <i_epik_Tot_Q>  (192) 
0

>  <i_epik_Tot_abs_Q>  (192) 
0

>  <s_epik_Chemistry_Notes>  (192) 
This compound has an ester and may undergo hydrolysis at high or low pH.

>  <s_lp_Force_Field>  (192) 
OPLS3e

>  <r_lp_Energy>  (192) 
81.0659

>  <b_lp_Chiralities_Consistent>  (192) 
1

>  <s_lp_Variant>  (192) 
59:0-3

>  <s_i_glide_gridfile>  (192) 
pfpi4k_grid

>  <i_i_glide_lignum>  (192) 
1

>  <i_i_glide_rotatable_bonds>  (192) 
4

>  <r_i_docking_score>  (192) 
-2.13882

>  <r_i_glide_ligand_efficiency>  (192) 
-0.0611092

>  <r_i_glide_ligand_efficiency_sa>  (192) 
-0.199892

>  <r_i_glide_ligand_efficiency_ln>  (192) 
-0.469519

>  <r_i_glide_gscore>  (192) 
-2.13882

>  <r_i_glide_lipo>  (192) 
-0.0802982

>  <r_i_glide_hbond>  (192) 
-0.166734

>  <r_i_glide_metal>  (192) 
-0

>  <r_i_glide_rewards>  (192) 
-0.112136

>  <r_i_glide_evdw>  (192) 
-23.7929

>  <r_i_glide_ecoul>  (192) 
-5.34339

>  <r_i_glide_erotb>  (192) 
0.260473

>  <r_i_glide_esite>  (192) 
-0.0489729

>  <r_i_glide_emodel>  (192) 
-31.4219

>  <r_i_glide_energy>  (192) 
-29.1363

>  <r_i_glide_einternal>  (192) 
2.86272

>  <r_i_glide_intrahb_reward>  (192) 
-0

>  <i_i_glide_confnum>  (192) 
5

>  <i_i_glide_posenum>  (192) 
13

>  <r_i_glide_eff_state_penalty>  (192) 
0

>  <ligand_id>  (192) 
59

>  <original_smiles>  (192) 
CN1CC2OC(C)(C1)C13CC4(C)C(O)CC1C4(C(=O)C=C1C(=O)OC(c4ccoc4)C1(C)C)OC23

>  <smiles>  (192) 
[H]OC1([H])C([H])([H])C2([H])C3(C(=O)C([H])=C4C(=O)OC([H])(c5c([H])oc([H])c5[H])C4(C([H])([H])[H])C([H])([H])[H])OC4([H])C5([H])OC(C([H])([H])[H])(C([H])([H])N(C([H])([H])[H])C5([H])[H])C42C([H])([H])C13C([H])([H])[H]

$$$$
59:2:2
     RDKit          3D

 68 74  0  0  1  0  0  0  0  0999 V2000
    3.4135   -8.8893    1.7413 C   0  0  0  0  0  0  0  0  0  0  0  0
    3.0041   -7.6571    2.4143 N   0  0  0  0  0  0  0  0  0  0  0  0
    2.7596   -6.5695    1.4620 C   0  0  0  0  0  0  0  0  0  0  0  0
    2.5288   -5.2196    2.1789 C   0  0  2  0  0  0  0  0  0  0  0  0
    3.7898   -4.9680    2.7988 O   0  0  0  0  0  0  0  0  0  0  0  0
    3.8368   -5.7947    3.9621 C   0  0  2  0  0  0  0  0  0  0  0  0
    5.0643   -5.3961    4.7880 C   0  0  0  0  0  0  0  0  0  0  0  0
    3.9625   -7.2644    3.4564 C   0  0  0  0  0  0  0  0  0  0  0  0
    2.4814   -5.3792    4.5797 C   0  0  1  0  0  0  0  0  0  0  0  0
    1.7394   -6.1637    5.6637 C   0  0  0  0  0  0  0  0  0  0  0  0
    0.7999   -5.0246    6.1762 C   0  0  1  0  0  0  0  0  0  0  0  0
   -0.6112   -5.5256    6.5621 C   0  0  0  0  0  0  0  0  0  0  0  0
    1.5419   -4.3043    7.3345 C   0  0  1  0  0  0  0  0  0  0  0  0
    1.8806   -5.1216    8.4331 O   0  0  0  0  0  0  0  0  0  0  0  0
    2.7655   -3.7202    6.5984 C   0  0  0  0  0  0  0  0  0  0  0  0
    2.4119   -3.9194    5.0948 C   0  0  2  0  0  0  0  0  0  0  0  0
    0.8997   -3.9243    5.0411 C   0  0  2  0  0  0  0  0  0  0  0  0
    0.1697   -2.5790    5.3077 C   0  0  0  0  0  0  0  0  0  0  0  0
   -0.8624   -2.6210    5.9656 O   0  0  0  0  0  0  0  0  0  0  0  0
    0.7272   -1.3280    4.7361 C   0  0  0  0  0  0  0  0  0  0  0  0
    0.2465   -0.0600    4.8200 C   0  0  0  0  0  0  0  0  0  0  0  0
   -1.0344    0.4266    5.3782 C   0  0  0  0  0  0  0  0  0  0  0  0
   -1.8531   -0.1624    6.0820 O   0  0  0  0  0  0  0  0  0  0  0  0
   -1.1853    1.6812    5.0207 O   0  0  0  0  0  0  0  0  0  0  0  0
   -0.2701    2.1198    4.0397 C   0  0  1  0  0  0  0  0  0  0  0  0
    0.0269    3.5912    4.1542 C   0  0  0  0  0  0  0  0  0  0  0  0
    0.8690    4.3583    3.3148 C   0  0  0  0  0  0  0  0  0  0  0  0
    0.7360    5.6679    3.7009 C   0  0  0  0  0  0  0  0  0  0  0  0
   -0.1363    5.7580    4.7387 O   0  0  0  0  0  0  0  0  0  0  0  0
   -0.5542    4.4941    5.0125 C   0  0  0  0  0  0  0  0  0  0  0  0
    0.9232    1.1439    4.1941 C   0  0  0  0  0  0  0  0  0  0  0  0
    2.0368    1.6397    5.1517 C   0  0  0  0  0  0  0  0  0  0  0  0
    1.5518    0.8454    2.8116 C   0  0  0  0  0  0  0  0  0  0  0  0
    0.6452   -4.3325    3.6935 O   0  0  0  0  0  0  0  0  0  0  0  0
    1.5572   -5.3691    3.3738 C   0  0  1  0  0  0  0  0  0  0  0  0
    2.6789   -9.2089    1.0008 H   0  0  0  0  0  0  0  0  0  0  0  0
    3.5399   -9.7043    2.4548 H   0  0  0  0  0  0  0  0  0  0  0  0
    4.3654   -8.7524    1.2261 H   0  0  0  0  0  0  0  0  0  0  0  0
    3.6052   -6.4704    0.7807 H   0  0  0  0  0  0  0  0  0  0  0  0
    1.8838   -6.8125    0.8574 H   0  0  0  0  0  0  0  0  0  0  0  0
    2.2507   -4.4270    1.4829 H   0  0  0  0  0  0  0  0  0  0  0  0
    5.0813   -5.9087    5.7482 H   0  0  0  0  0  0  0  0  0  0  0  0
    5.0968   -4.3228    4.9715 H   0  0  0  0  0  0  0  0  0  0  0  0
    5.9814   -5.6474    4.2573 H   0  0  0  0  0  0  0  0  0  0  0  0
    3.8529   -7.9392    4.3074 H   0  0  0  0  0  0  0  0  0  0  0  0
    4.9759   -7.4017    3.0741 H   0  0  0  0  0  0  0  0  0  0  0  0
    1.1858   -7.0171    5.2704 H   0  0  0  0  0  0  0  0  0  0  0  0
    2.4186   -6.5475    6.4230 H   0  0  0  0  0  0  0  0  0  0  0  0
   -1.2218   -4.7654    7.0485 H   0  0  0  0  0  0  0  0  0  0  0  0
   -0.5505   -6.3407    7.2815 H   0  0  0  0  0  0  0  0  0  0  0  0
   -1.1551   -5.8740    5.6830 H   0  0  0  0  0  0  0  0  0  0  0  0
    0.9367   -3.4935    7.7467 H   0  0  0  0  0  0  0  0  0  0  0  0
    2.4521   -5.8129    8.1237 H   0  0  0  0  0  0  0  0  0  0  0  0
    2.8784   -2.6609    6.8418 H   0  0  0  0  0  0  0  0  0  0  0  0
    3.6948   -4.2229    6.8773 H   0  0  0  0  0  0  0  0  0  0  0  0
    2.9204   -3.2215    4.4266 H   0  0  0  0  0  0  0  0  0  0  0  0
    1.6501   -1.4335    4.1979 H   0  0  0  0  0  0  0  0  0  0  0  0
   -0.7648    1.9375    3.0847 H   0  0  0  0  0  0  0  0  0  0  0  0
    1.4647    4.0135    2.4821 H   0  0  0  0  0  0  0  0  0  0  0  0
    1.1409    6.5856    3.3252 H   0  0  0  0  0  0  0  0  0  0  0  0
   -1.2795    4.4106    5.7978 H   0  0  0  0  0  0  0  0  0  0  0  0
    2.5398    2.5353    4.7813 H   0  0  0  0  0  0  0  0  0  0  0  0
    2.8111    0.8766    5.2888 H   0  0  0  0  0  0  0  0  0  0  0  0
    1.6407    1.8694    6.1434 H   0  0  0  0  0  0  0  0  0  0  0  0
    1.9133    1.7644    2.3468 H   0  0  0  0  0  0  0  0  0  0  0  0
    0.8290    0.4018    2.1231 H   0  0  0  0  0  0  0  0  0  0  0  0
    2.4186    0.1797    2.8730 H   0  0  0  0  0  0  0  0  0  0  0  0
    0.9555   -6.2713    3.2592 H   0  0  0  0  0  0  0  0  0  0  0  0
  1  2  1  0
  1 36  1  0
  1 37  1  0
  1 38  1  0
  2  8  1  0
  2  3  1  0
  3  4  1  0
  3 39  1  0
  3 40  1  0
  4 35  1  0
  4  5  1  0
  4 41  1  6
  5  6  1  0
  6  7  1  1
  6  8  1  0
  6  9  1  0
  7 42  1  0
  7 43  1  0
  7 44  1  0
  8 45  1  0
  8 46  1  0
  9 16  1  0
  9 35  1  0
  9 10  1  1
 10 11  1  0
 10 47  1  0
 10 48  1  0
 11 17  1  0
 11 12  1  1
 11 13  1  0
 12 49  1  0
 12 50  1  0
 12 51  1  0
 13 14  1  0
 13 15  1  0
 13 52  1  1
 14 53  1  0
 15 16  1  0
 15 54  1  0
 15 55  1  0
 16 17  1  0
 16 56  1  6
 17 18  1  1
 17 34  1  0
 18 19  2  0
 18 20  1  0
 20 21  2  3
 20 57  1  0
 21 31  1  0
 21 22  1  0
 22 23  2  0
 22 24  1  0
 24 25  1  0
 25 26  1  0
 25 31  1  0
 25 58  1  6
 26 30  2  0
 26 27  1  0
 27 28  2  0
 27 59  1  0
 28 29  1  0
 28 60  1  0
 29 30  1  0
 30 61  1  0
 31 32  1  0
 31 33  1  0
 32 62  1  0
 32 63  1  0
 32 64  1  0
 33 65  1  0
 33 66  1  0
 33 67  1  0
 34 35  1  0
 35 68  1  6
M  END
>  <i_m_ct_stereo_status>  (193) 
1

>  <s_m_source_file>  (193) 
/var/tmp/pbs.5076255.sched01/tmpy0mqr2dw/78t3ouse6d.sdf

>  <i_m_source_file_index>  (193) 
1

>  <i_lp_mmshare_version>  (193) 
48012

>  <i_f3d_flags>  (193) 
0

>  <s_epik_input>  (193) 
W0NIM11OKFtDSDJdMSlbQ0gyXVtDQEhdKE9bQ0BdMShbQ0BAXTIzNClbQ0gzXSlbQ0BASF00T1tDQF01KFtDQF0oW0NIMl0yKShbQ0gzXSlbQ0BASF0oW09IXSlbQ0gyXVtDQEBIXTM1KUMoPU8pL1tDSF09QyhDNihbQ0gzXSlbQ0gzXSlcQyg9TylPW0NASF02YzdbY0hdW2NIXW9bY0hdNw==

>  <s_epik_cmdline>  (193) 
J2VwaWtfcHl0aG9uJywgJy1waHQnLCAnMi4wJywgJy1waCcsICc3LjAnLCAnLXRuJywgJzgnLCAnLW1hJywgJzIwMCcsICctaW1hZScsICc8aW5maWxlLm1hZT4nLCAnLW9tYWUnLCAnPG91dGZpbGUubWFlPic=

>  <r_epik_Ionization_Penalty>  (193) 
0.624352

>  <r_epik_Ionization_Penalty_Charging>  (193) 
0

>  <r_epik_Ionization_Penalty_Neutral>  (193) 
0.624352

>  <r_epik_State_Penalty>  (193) 
0.640654

>  <r_epik_Charging_Adjusted_Penalty>  (193) 
0.640654

>  <i_epik_Tot_Q>  (193) 
0

>  <i_epik_Tot_abs_Q>  (193) 
0

>  <s_epik_Chemistry_Notes>  (193) 
This compound has an ester and may undergo hydrolysis at high or low pH.

>  <s_lp_Force_Field>  (193) 
OPLS3e

>  <r_lp_Energy>  (193) 
81.0659

>  <b_lp_Chiralities_Consistent>  (193) 
1

>  <s_lp_Variant>  (193) 
59:0-3

>  <s_i_glide_gridfile>  (193) 
pfpi4k_grid

>  <i_i_glide_lignum>  (193) 
1

>  <i_i_glide_rotatable_bonds>  (193) 
4

>  <r_i_docking_score>  (193) 
-1.95229

>  <r_i_glide_ligand_efficiency>  (193) 
-0.0557797

>  <r_i_glide_ligand_efficiency_sa>  (193) 
-0.182459

>  <r_i_glide_ligand_efficiency_ln>  (193) 
-0.428571

>  <r_i_glide_gscore>  (193) 
-1.95229

>  <r_i_glide_lipo>  (193) 
-0.0753694

>  <r_i_glide_hbond>  (193) 
-0.152476

>  <r_i_glide_metal>  (193) 
-0

>  <r_i_glide_rewards>  (193) 
-0.112136

>  <r_i_glide_evdw>  (193) 
-21.8564

>  <r_i_glide_ecoul>  (193) 
-4.96468

>  <r_i_glide_erotb>  (193) 
0.260473

>  <r_i_glide_esite>  (193) 
-0.035258

>  <r_i_glide_emodel>  (193) 
-29.3494

>  <r_i_glide_energy>  (193) 
-26.8211

>  <r_i_glide_einternal>  (193) 
2.26619

>  <r_i_glide_intrahb_reward>  (193) 
-0

>  <i_i_glide_confnum>  (193) 
5

>  <i_i_glide_posenum>  (193) 
3

>  <r_i_glide_eff_state_penalty>  (193) 
0

>  <ligand_id>  (193) 
59

>  <original_smiles>  (193) 
CN1CC2OC(C)(C1)C13CC4(C)C(O)CC1C4(C(=O)C=C1C(=O)OC(c4ccoc4)C1(C)C)OC23

>  <smiles>  (193) 
[H]OC1([H])C([H])([H])C2([H])C3(C(=O)C([H])=C4C(=O)OC([H])(c5c([H])oc([H])c5[H])C4(C([H])([H])[H])C([H])([H])[H])OC4([H])C5([H])OC(C([H])([H])[H])(C([H])([H])N(C([H])([H])[H])C5([H])[H])C42C([H])([H])C13C([H])([H])[H]

$$$$
59:3:0
     RDKit          3D

 68 74  0  0  1  0  0  0  0  0999 V2000
    0.5575   -8.9554    7.4151 C   0  0  0  0  0  0  0  0  0  0  0  0
    1.2253   -8.5613    6.1780 N   0  0  0  0  0  0  0  0  0  0  0  0
    0.7129   -7.2885    5.6593 C   0  0  0  0  0  0  0  0  0  0  0  0
    1.2644   -6.9809    4.2459 C   0  0  2  0  0  0  0  0  0  0  0  0
    0.7036   -8.0253    3.4489 O   0  0  0  0  0  0  0  0  0  0  0  0
    1.4928   -9.1884    3.7099 C   0  0  2  0  0  0  0  0  0  0  0  0
    1.0834  -10.2826    2.7184 C   0  0  0  0  0  0  0  0  0  0  0  0
    1.1740   -9.6327    5.1733 C   0  0  0  0  0  0  0  0  0  0  0  0
    2.8855   -8.5602    3.4457 C   0  0  1  0  0  0  0  0  0  0  0  0
    4.2137   -9.1773    3.8960 C   0  0  0  0  0  0  0  0  0  0  0  0
    5.1726   -8.4221    2.9219 C   0  0  1  0  0  0  0  0  0  0  0  0
    6.5198   -8.0335    3.5602 C   0  0  0  0  0  0  0  0  0  0  0  0
    5.3053   -9.3111    1.6553 C   0  0  1  0  0  0  0  0  0  0  0  0
    5.7665  -10.6351    1.8717 O   0  0  0  0  0  0  0  0  0  0  0  0
    3.8638   -9.2617    1.1123 C   0  0  0  0  0  0  0  0  0  0  0  0
    3.1696   -8.1713    1.9762 C   0  0  2  0  0  0  0  0  0  0  0  0
    4.2772   -7.2313    2.3880 C   0  0  2  0  0  0  0  0  0  0  0  0
    4.8397   -6.3315    1.2502 C   0  0  0  0  0  0  0  0  0  0  0  0
    6.0305   -6.3843    0.9507 O   0  0  0  0  0  0  0  0  0  0  0  0
    3.8938   -5.4519    0.5414 C   0  0  0  0  0  0  0  0  0  0  0  0
    4.1232   -4.1803    0.1516 C   0  0  0  0  0  0  0  0  0  0  0  0
    3.0816   -3.4224   -0.5544 C   0  0  0  0  0  0  0  0  0  0  0  0
    2.0221   -3.8550   -1.0061 O   0  0  0  0  0  0  0  0  0  0  0  0
    3.4873   -2.1607   -0.6493 O   0  0  0  0  0  0  0  0  0  0  0  0
    4.5561   -1.8459    0.2250 C   0  0  1  0  0  0  0  0  0  0  0  0
    4.0292   -1.1814    1.4923 C   0  0  0  0  0  0  0  0  0  0  0  0
    2.6594   -0.9718    1.8196 C   0  0  0  0  0  0  0  0  0  0  0  0
    2.6193   -0.3356    3.0271 C   0  0  0  0  0  0  0  0  0  0  0  0
    3.8779   -0.1309    3.4936 O   0  0  0  0  0  0  0  0  0  0  0  0
    4.7179   -0.6372    2.5512 C   0  0  0  0  0  0  0  0  0  0  0  0
    5.2787   -3.2131    0.3995 C   0  0  0  0  0  0  0  0  0  0  0  0
    5.9988   -3.3640    1.7631 C   0  0  0  0  0  0  0  0  0  0  0  0
    6.3156   -3.3845   -0.7278 C   0  0  0  0  0  0  0  0  0  0  0  0
    3.6233   -6.3956    3.3538 O   0  0  0  0  0  0  0  0  0  0  0  0
    2.7900   -7.2211    4.1567 C   0  0  1  0  0  0  0  0  0  0  0  0
    0.6469   -8.1826    8.1794 H   0  0  0  0  0  0  0  0  0  0  0  0
    0.9914   -9.8719    7.8159 H   0  0  0  0  0  0  0  0  0  0  0  0
   -0.5043   -9.1384    7.2423 H   0  0  0  0  0  0  0  0  0  0  0  0
   -0.3762   -7.3187    5.6148 H   0  0  0  0  0  0  0  0  0  0  0  0
    0.9848   -6.4821    6.3430 H   0  0  0  0  0  0  0  0  0  0  0  0
    0.9575   -5.9952    3.8948 H   0  0  0  0  0  0  0  0  0  0  0  0
    1.7475  -11.1433    2.7849 H   0  0  0  0  0  0  0  0  0  0  0  0
    1.0953   -9.9183    1.6922 H   0  0  0  0  0  0  0  0  0  0  0  0
    0.0690  -10.6300    2.9153 H   0  0  0  0  0  0  0  0  0  0  0  0
    1.8567  -10.4316    5.4701 H   0  0  0  0  0  0  0  0  0  0  0  0
    0.1724  -10.0715    5.1819 H   0  0  0  0  0  0  0  0  0  0  0  0
    4.4403   -8.9833    4.9433 H   0  0  0  0  0  0  0  0  0  0  0  0
    4.2204  -10.2594    3.7723 H   0  0  0  0  0  0  0  0  0  0  0  0
    7.2038   -7.5777    2.8421 H   0  0  0  0  0  0  0  0  0  0  0  0
    7.0253   -8.9123    3.9621 H   0  0  0  0  0  0  0  0  0  0  0  0
    6.3751   -7.3236    4.3754 H   0  0  0  0  0  0  0  0  0  0  0  0
    5.9898   -8.8686    0.9281 H   0  0  0  0  0  0  0  0  0  0  0  0
    5.2243  -11.2186    1.3363 H   0  0  0  0  0  0  0  0  0  0  0  0
    3.8836   -8.9838    0.0599 H   0  0  0  0  0  0  0  0  0  0  0  0
    3.3528  -10.2189    1.1959 H   0  0  0  0  0  0  0  0  0  0  0  0
    2.3194   -7.6972    1.4825 H   0  0  0  0  0  0  0  0  0  0  0  0
    2.9388   -5.8920    0.2973 H   0  0  0  0  0  0  0  0  0  0  0  0
    5.2212   -1.1310   -0.2608 H   0  0  0  0  0  0  0  0  0  0  0  0
    1.7950   -1.2436    1.2381 H   0  0  0  0  0  0  0  0  0  0  0  0
    1.8172    0.0266    3.6485 H   0  0  0  0  0  0  0  0  0  0  0  0
    5.7640   -0.5331    2.7972 H   0  0  0  0  0  0  0  0  0  0  0  0
    6.6024   -2.4780    1.9670 H   0  0  0  0  0  0  0  0  0  0  0  0
    6.7137   -4.1871    1.7773 H   0  0  0  0  0  0  0  0  0  0  0  0
    5.3019   -3.5035    2.5918 H   0  0  0  0  0  0  0  0  0  0  0  0
    7.1207   -2.6487   -0.6588 H   0  0  0  0  0  0  0  0  0  0  0  0
    5.8553   -3.2933   -1.7152 H   0  0  0  0  0  0  0  0  0  0  0  0
    6.7657   -4.3733   -0.6832 H   0  0  0  0  0  0  0  0  0  0  0  0
    3.2280   -7.2166    5.1560 H   0  0  0  0  0  0  0  0  0  0  0  0
  1  2  1  0
  1 36  1  0
  1 37  1  0
  1 38  1  0
  2  8  1  0
  2  3  1  0
  3  4  1  0
  3 39  1  0
  3 40  1  0
  4 35  1  0
  4  5  1  0
  4 41  1  6
  5  6  1  0
  6  7  1  6
  6  8  1  0
  6  9  1  0
  7 42  1  0
  7 43  1  0
  7 44  1  0
  8 45  1  0
  8 46  1  0
  9 16  1  0
  9 35  1  0
  9 10  1  1
 10 11  1  0
 10 47  1  0
 10 48  1  0
 11 17  1  0
 11 12  1  1
 11 13  1  0
 12 49  1  0
 12 50  1  0
 12 51  1  0
 13 14  1  0
 13 15  1  0
 13 52  1  6
 14 53  1  0
 15 16  1  0
 15 54  1  0
 15 55  1  0
 16 17  1  0
 16 56  1  6
 17 18  1  6
 17 34  1  0
 18 19  2  0
 18 20  1  0
 20 21  2  3
 20 57  1  0
 21 31  1  0
 21 22  1  0
 22 23  2  0
 22 24  1  0
 24 25  1  0
 25 26  1  0
 25 31  1  0
 25 58  1  6
 26 30  2  0
 26 27  1  0
 27 28  2  0
 27 59  1  0
 28 29  1  0
 28 60  1  0
 29 30  1  0
 30 61  1  0
 31 32  1  0
 31 33  1  0
 32 62  1  0
 32 63  1  0
 32 64  1  0
 33 65  1  0
 33 66  1  0
 33 67  1  0
 34 35  1  0
 35 68  1  1
M  END
>  <i_m_ct_stereo_status>  (194) 
1

>  <s_m_source_file>  (194) 
/var/tmp/pbs.5076255.sched01/tmpy0mqr2dw/78t3ouse6d.sdf

>  <i_m_source_file_index>  (194) 
2

>  <i_lp_mmshare_version>  (194) 
48012

>  <i_f3d_flags>  (194) 
0

>  <s_epik_input>  (194) 
W0NIM11OKFtDSDJdMSlbQ0gyXVtDQEhdKE9bQ0BdMShbQ0BAXTIzNClbQ0gzXSlbQ0BASF00T1tDQF01KFtDQF0oW0NIMl0yKShbQ0gzXSlbQ0BASF0oW09IXSlbQ0gyXVtDQEBIXTM1KUMoPU8pL1tDSF09QyhDNihbQ0gzXSlbQ0gzXSlcQyg9TylPW0NASF02YzdbY0hdW2NIXW9bY0hdNw==

>  <s_epik_cmdline>  (194) 
J2VwaWtfcHl0aG9uJywgJy1waHQnLCAnMi4wJywgJy1waCcsICc3LjAnLCAnLXRuJywgJzgnLCAnLW1hJywgJzIwMCcsICctaW1hZScsICc8aW5maWxlLm1hZT4nLCAnLW9tYWUnLCAnPG91dGZpbGUubWFlPic=

>  <r_epik_Ionization_Penalty>  (194) 
0.624352

>  <r_epik_Ionization_Penalty_Charging>  (194) 
0

>  <r_epik_Ionization_Penalty_Neutral>  (194) 
0.624352

>  <r_epik_State_Penalty>  (194) 
0.640654

>  <r_epik_Charging_Adjusted_Penalty>  (194) 
0.640654

>  <i_epik_Tot_Q>  (194) 
0

>  <i_epik_Tot_abs_Q>  (194) 
0

>  <s_epik_Chemistry_Notes>  (194) 
This compound has an ester and may undergo hydrolysis at high or low pH.

>  <s_lp_Force_Field>  (194) 
OPLS3e

>  <r_lp_Energy>  (194) 
77.5036

>  <b_lp_Chiralities_Consistent>  (194) 
1

>  <s_lp_Variant>  (194) 
59:0-4

>  <s_i_glide_gridfile>  (194) 
pfpi4k_grid

>  <i_i_glide_lignum>  (194) 
2

>  <i_i_glide_rotatable_bonds>  (194) 
4

>  <r_i_docking_score>  (194) 
-2.64409

>  <r_i_glide_ligand_efficiency>  (194) 
-0.0755455

>  <r_i_glide_ligand_efficiency_sa>  (194) 
-0.247114

>  <r_i_glide_ligand_efficiency_ln>  (194) 
-0.580437

>  <r_i_glide_gscore>  (194) 
-2.64409

>  <r_i_glide_lipo>  (194) 
-0.508719

>  <r_i_glide_hbond>  (194) 
-0.16

>  <r_i_glide_metal>  (194) 
-0

>  <r_i_glide_rewards>  (194) 
-0.298389

>  <r_i_glide_evdw>  (194) 
-26.993

>  <r_i_glide_ecoul>  (194) 
-3.91872

>  <r_i_glide_erotb>  (194) 
0.260473

>  <r_i_glide_esite>  (194) 
0

>  <r_i_glide_emodel>  (194) 
-33.5323

>  <r_i_glide_energy>  (194) 
-30.9117

>  <r_i_glide_einternal>  (194) 
4.62654

>  <r_i_glide_intrahb_reward>  (194) 
-0

>  <i_i_glide_confnum>  (194) 
3

>  <i_i_glide_posenum>  (194) 
3

>  <r_i_glide_eff_state_penalty>  (194) 
0

>  <ligand_id>  (194) 
59

>  <original_smiles>  (194) 
CN1CC2OC(C)(C1)C13CC4(C)C(O)CC1C4(C(=O)C=C1C(=O)OC(c4ccoc4)C1(C)C)OC23

>  <smiles>  (194) 
[H]OC1([H])C([H])([H])C2([H])C3(C(=O)C([H])=C4C(=O)OC([H])(c5c([H])oc([H])c5[H])C4(C([H])([H])[H])C([H])([H])[H])OC4([H])C5([H])OC(C([H])([H])[H])(C([H])([H])N(C([H])([H])[H])C5([H])[H])C42C([H])([H])C13C([H])([H])[H]

$$$$
59:3:1
     RDKit          3D

 68 74  0  0  1  0  0  0  0  0999 V2000
    0.3987   -8.1807    8.4350 C   0  0  0  0  0  0  0  0  0  0  0  0
    0.6595   -7.5866    7.1287 N   0  0  0  0  0  0  0  0  0  0  0  0
    0.0765   -6.2438    7.0048 C   0  0  0  0  0  0  0  0  0  0  0  0
    0.1649   -5.7143    5.5568 C   0  0  2  0  0  0  0  0  0  0  0  0
   -0.6564   -6.6211    4.8180 O   0  0  0  0  0  0  0  0  0  0  0  0
    0.1290   -7.8002    4.6331 C   0  0  2  0  0  0  0  0  0  0  0  0
   -0.6026   -8.7172    3.6491 C   0  0  0  0  0  0  0  0  0  0  0  0
    0.2578   -8.4817    6.0323 C   0  0  0  0  0  0  0  0  0  0  0  0
    1.3981   -7.1260    4.0601 C   0  0  1  0  0  0  0  0  0  0  0  0
    2.7766   -7.7918    3.9845 C   0  0  0  0  0  0  0  0  0  0  0  0
    3.4134   -6.8718    2.8962 C   0  0  1  0  0  0  0  0  0  0  0  0
    4.9045   -6.5671    3.1203 C   0  0  0  0  0  0  0  0  0  0  0  0
    3.1144   -7.5318    1.5245 C   0  0  1  0  0  0  0  0  0  0  0  0
    3.6031   -8.8490    1.3649 O   0  0  0  0  0  0  0  0  0  0  0  0
    1.5766   -7.4467    1.4595 C   0  0  0  0  0  0  0  0  0  0  0  0
    1.2359   -6.4994    2.6535 C   0  0  2  0  0  0  0  0  0  0  0  0
    2.4567   -5.6205    2.8658 C   0  0  2  0  0  0  0  0  0  0  0  0
    2.7190   -4.5419    1.7836 C   0  0  0  0  0  0  0  0  0  0  0  0
    2.2071   -4.6622    0.6794 O   0  0  0  0  0  0  0  0  0  0  0  0
    3.5526   -3.3761    2.1202 C   0  0  0  0  0  0  0  0  0  0  0  0
    4.2999   -2.6683    1.2481 C   0  0  0  0  0  0  0  0  0  0  0  0
    5.0680   -1.5072    1.7210 C   0  0  0  0  0  0  0  0  0  0  0  0
    4.9611   -0.9411    2.8088 O   0  0  0  0  0  0  0  0  0  0  0  0
    5.8966   -1.1396    0.7471 O   0  0  0  0  0  0  0  0  0  0  0  0
    6.0001   -2.0997   -0.2898 C   0  0  1  0  0  0  0  0  0  0  0  0
    7.2375   -2.9481   -0.0794 C   0  0  0  0  0  0  0  0  0  0  0  0
    7.5352   -3.7561    1.0585 C   0  0  0  0  0  0  0  0  0  0  0  0
    8.7796   -4.2707    0.8623 C   0  0  0  0  0  0  0  0  0  0  0  0
    9.2786   -3.8591   -0.3288 O   0  0  0  0  0  0  0  0  0  0  0  0
    8.3290   -3.0654   -0.8930 C   0  0  0  0  0  0  0  0  0  0  0  0
    4.6643   -2.8779   -0.2244 C   0  0  0  0  0  0  0  0  0  0  0  0
    4.8242   -4.3505   -0.6991 C   0  0  0  0  0  0  0  0  0  0  0  0
    3.6131   -2.1781   -1.1126 C   0  0  0  0  0  0  0  0  0  0  0  0
    2.1439   -4.9651    4.0982 O   0  0  0  0  0  0  0  0  0  0  0  0
    1.5754   -5.9230    4.9698 C   0  0  1  0  0  0  0  0  0  0  0  0
    0.7495   -7.5400    9.2453 H   0  0  0  0  0  0  0  0  0  0  0  0
    0.8970   -9.1463    8.5320 H   0  0  0  0  0  0  0  0  0  0  0  0
   -0.6694   -8.3473    8.5749 H   0  0  0  0  0  0  0  0  0  0  0  0
   -0.9704   -6.2480    7.3092 H   0  0  0  0  0  0  0  0  0  0  0  0
    0.5961   -5.5551    7.6731 H   0  0  0  0  0  0  0  0  0  0  0  0
   -0.1843   -4.6841    5.4703 H   0  0  0  0  0  0  0  0  0  0  0  0
    0.0027   -9.5845    3.3831 H   0  0  0  0  0  0  0  0  0  0  0  0
   -0.8815   -8.1974    2.7342 H   0  0  0  0  0  0  0  0  0  0  0  0
   -1.5319   -9.0687    4.0923 H   0  0  0  0  0  0  0  0  0  0  0  0
    0.9783   -9.2990    5.9661 H   0  0  0  0  0  0  0  0  0  0  0  0
   -0.7010   -8.9478    6.2779 H   0  0  0  0  0  0  0  0  0  0  0  0
    3.3215   -7.7621    4.9294 H   0  0  0  0  0  0  0  0  0  0  0  0
    2.7072   -8.8416    3.6978 H   0  0  0  0  0  0  0  0  0  0  0  0
    5.3267   -5.9842    2.2980 H   0  0  0  0  0  0  0  0  0  0  0  0
    5.4801   -7.4928    3.1924 H   0  0  0  0  0  0  0  0  0  0  0  0
    5.0564   -6.0037    4.0433 H   0  0  0  0  0  0  0  0  0  0  0  0
    3.5609   -6.9448    0.7217 H   0  0  0  0  0  0  0  0  0  0  0  0
    3.1496   -9.4108    1.9750 H   0  0  0  0  0  0  0  0  0  0  0  0
    1.2636   -7.0262    0.5036 H   0  0  0  0  0  0  0  0  0  0  0  0
    1.0978   -8.4232    1.5310 H   0  0  0  0  0  0  0  0  0  0  0  0
    0.3117   -5.9347    2.5241 H   0  0  0  0  0  0  0  0  0  0  0  0
    3.5096   -3.0445    3.1478 H   0  0  0  0  0  0  0  0  0  0  0  0
    6.0905   -1.5947   -1.2543 H   0  0  0  0  0  0  0  0  0  0  0  0
    6.9452   -3.9268    1.9429 H   0  0  0  0  0  0  0  0  0  0  0  0
    9.4285   -4.8936    1.4546 H   0  0  0  0  0  0  0  0  0  0  0  0
    8.6197   -2.6409   -1.8432 H   0  0  0  0  0  0  0  0  0  0  0  0
    5.4140   -4.4019   -1.6185 H   0  0  0  0  0  0  0  0  0  0  0  0
    3.8710   -4.8034   -0.9589 H   0  0  0  0  0  0  0  0  0  0  0  0
    5.3087   -4.9875    0.0416 H   0  0  0  0  0  0  0  0  0  0  0  0
    3.8862   -2.2168   -2.1715 H   0  0  0  0  0  0  0  0  0  0  0  0
    3.4983   -1.1255   -0.8381 H   0  0  0  0  0  0  0  0  0  0  0  0
    2.6295   -2.6394   -1.0036 H   0  0  0  0  0  0  0  0  0  0  0  0
    2.3061   -6.0685    5.7673 H   0  0  0  0  0  0  0  0  0  0  0  0
  1  2  1  0
  1 36  1  0
  1 37  1  0
  1 38  1  0
  2  8  1  0
  2  3  1  0
  3  4  1  0
  3 39  1  0
  3 40  1  0
  4 35  1  0
  4  5  1  0
  4 41  1  1
  5  6  1  0
  6  7  1  6
  6  8  1  0
  6  9  1  0
  7 42  1  0
  7 43  1  0
  7 44  1  0
  8 45  1  0
  8 46  1  0
  9 16  1  0
  9 35  1  0
  9 10  1  6
 10 11  1  0
 10 47  1  0
 10 48  1  0
 11 17  1  0
 11 12  1  1
 11 13  1  0
 12 49  1  0
 12 50  1  0
 12 51  1  0
 13 14  1  0
 13 15  1  0
 13 52  1  6
 14 53  1  0
 15 16  1  0
 15 54  1  0
 15 55  1  0
 16 17  1  0
 16 56  1  6
 17 18  1  6
 17 34  1  0
 18 19  2  0
 18 20  1  0
 20 21  2  3
 20 57  1  0
 21 31  1  0
 21 22  1  0
 22 23  2  0
 22 24  1  0
 24 25  1  0
 25 26  1  0
 25 31  1  0
 25 58  1  6
 26 30  2  0
 26 27  1  0
 27 28  2  0
 27 59  1  0
 28 29  1  0
 28 60  1  0
 29 30  1  0
 30 61  1  0
 31 32  1  0
 31 33  1  0
 32 62  1  0
 32 63  1  0
 32 64  1  0
 33 65  1  0
 33 66  1  0
 33 67  1  0
 34 35  1  0
 35 68  1  1
M  END
>  <i_m_ct_stereo_status>  (195) 
1

>  <s_m_source_file>  (195) 
/var/tmp/pbs.5076255.sched01/tmpy0mqr2dw/78t3ouse6d.sdf

>  <i_m_source_file_index>  (195) 
2

>  <i_lp_mmshare_version>  (195) 
48012

>  <i_f3d_flags>  (195) 
0

>  <s_epik_input>  (195) 
W0NIM11OKFtDSDJdMSlbQ0gyXVtDQEhdKE9bQ0BdMShbQ0BAXTIzNClbQ0gzXSlbQ0BASF00T1tDQF01KFtDQF0oW0NIMl0yKShbQ0gzXSlbQ0BASF0oW09IXSlbQ0gyXVtDQEBIXTM1KUMoPU8pL1tDSF09QyhDNihbQ0gzXSlbQ0gzXSlcQyg9TylPW0NASF02YzdbY0hdW2NIXW9bY0hdNw==

>  <s_epik_cmdline>  (195) 
J2VwaWtfcHl0aG9uJywgJy1waHQnLCAnMi4wJywgJy1waCcsICc3LjAnLCAnLXRuJywgJzgnLCAnLW1hJywgJzIwMCcsICctaW1hZScsICc8aW5maWxlLm1hZT4nLCAnLW9tYWUnLCAnPG91dGZpbGUubWFlPic=

>  <r_epik_Ionization_Penalty>  (195) 
0.624352

>  <r_epik_Ionization_Penalty_Charging>  (195) 
0

>  <r_epik_Ionization_Penalty_Neutral>  (195) 
0.624352

>  <r_epik_State_Penalty>  (195) 
0.640654

>  <r_epik_Charging_Adjusted_Penalty>  (195) 
0.640654

>  <i_epik_Tot_Q>  (195) 
0

>  <i_epik_Tot_abs_Q>  (195) 
0

>  <s_epik_Chemistry_Notes>  (195) 
This compound has an ester and may undergo hydrolysis at high or low pH.

>  <s_lp_Force_Field>  (195) 
OPLS3e

>  <r_lp_Energy>  (195) 
77.5036

>  <b_lp_Chiralities_Consistent>  (195) 
1

>  <s_lp_Variant>  (195) 
59:0-4

>  <s_i_glide_gridfile>  (195) 
pfpi4k_grid

>  <i_i_glide_lignum>  (195) 
2

>  <i_i_glide_rotatable_bonds>  (195) 
4

>  <r_i_docking_score>  (195) 
-2.15774

>  <r_i_glide_ligand_efficiency>  (195) 
-0.0616497

>  <r_i_glide_ligand_efficiency_sa>  (195) 
-0.20166

>  <r_i_glide_ligand_efficiency_ln>  (195) 
-0.473672

>  <r_i_glide_gscore>  (195) 
-2.15774

>  <r_i_glide_lipo>  (195) 
-0.25949

>  <r_i_glide_hbond>  (195) 
-0.162805

>  <r_i_glide_metal>  (195) 
-0

>  <r_i_glide_rewards>  (195) 
-0.223093

>  <r_i_glide_evdw>  (195) 
-28.6054

>  <r_i_glide_ecoul>  (195) 
-2.21465

>  <r_i_glide_erotb>  (195) 
0.260473

>  <r_i_glide_esite>  (195) 
-0.010356

>  <r_i_glide_emodel>  (195) 
-33.1179

>  <r_i_glide_energy>  (195) 
-30.82

>  <r_i_glide_einternal>  (195) 
3.25318

>  <r_i_glide_intrahb_reward>  (195) 
-0

>  <i_i_glide_confnum>  (195) 
3

>  <i_i_glide_posenum>  (195) 
19

>  <r_i_glide_eff_state_penalty>  (195) 
0

>  <ligand_id>  (195) 
59

>  <original_smiles>  (195) 
CN1CC2OC(C)(C1)C13CC4(C)C(O)CC1C4(C(=O)C=C1C(=O)OC(c4ccoc4)C1(C)C)OC23

>  <smiles>  (195) 
[H]OC1([H])C([H])([H])C2([H])C3(C(=O)C([H])=C4C(=O)OC([H])(c5c([H])oc([H])c5[H])C4(C([H])([H])[H])C([H])([H])[H])OC4([H])C5([H])OC(C([H])([H])[H])(C([H])([H])N(C([H])([H])[H])C5([H])[H])C42C([H])([H])C13C([H])([H])[H]

$$$$
59:3:2
     RDKit          3D

 68 74  0  0  1  0  0  0  0  0999 V2000
    0.5373   -8.0570    8.3707 C   0  0  0  0  0  0  0  0  0  0  0  0
    0.7852   -7.5043    7.0451 N   0  0  0  0  0  0  0  0  0  0  0  0
    0.2313   -6.1571    6.8955 C   0  0  0  0  0  0  0  0  0  0  0  0
    0.3113   -5.6625    5.4356 C   0  0  2  0  0  0  0  0  0  0  0  0
   -0.5518   -6.5633    4.7416 O   0  0  0  0  0  0  0  0  0  0  0  0
    0.1919   -7.7710    4.5686 C   0  0  2  0  0  0  0  0  0  0  0  0
   -0.5896   -8.6940    3.6281 C   0  0  0  0  0  0  0  0  0  0  0  0
    0.3359   -8.4142    5.9829 C   0  0  0  0  0  0  0  0  0  0  0  0
    1.4717   -7.1528    3.9569 C   0  0  1  0  0  0  0  0  0  0  0  0
    2.8293   -7.8589    3.8552 C   0  0  0  0  0  0  0  0  0  0  0  0
    3.4721   -6.9830    2.7266 C   0  0  1  0  0  0  0  0  0  0  0  0
    4.9759   -6.7222    2.9114 C   0  0  0  0  0  0  0  0  0  0  0  0
    3.1230   -7.6667    1.3817 C   0  0  1  0  0  0  0  0  0  0  0  0
    3.5056   -9.0243    1.3004 O   0  0  0  0  0  0  0  0  0  0  0  0
    1.5858   -7.5355    1.3661 C   0  0  0  0  0  0  0  0  0  0  0  0
    1.2969   -6.5570    2.5425 C   0  0  2  0  0  0  0  0  0  0  0  0
    2.5367   -5.7049    2.6871 C   0  0  2  0  0  0  0  0  0  0  0  0
    2.7256   -4.6387    1.5711 C   0  0  0  0  0  0  0  0  0  0  0  0
    2.1907   -4.7806    0.4921 O   0  0  0  0  0  0  0  0  0  0  0  0
    3.4589   -3.4073    1.9170 C   0  0  0  0  0  0  0  0  0  0  0  0
    4.0569   -2.5586    1.0523 C   0  0  0  0  0  0  0  0  0  0  0  0
    4.6420   -1.2982    1.5439 C   0  0  0  0  0  0  0  0  0  0  0  0
    4.5128   -0.8115    2.6716 O   0  0  0  0  0  0  0  0  0  0  0  0
    5.3234   -0.7476    0.5504 O   0  0  0  0  0  0  0  0  0  0  0  0
    5.5569   -1.6338   -0.5391 C   0  0  1  0  0  0  0  0  0  0  0  0
    6.9572   -2.2133   -0.4378 C   0  0  0  0  0  0  0  0  0  0  0  0
    7.9515   -1.8219    0.5047 C   0  0  0  0  0  0  0  0  0  0  0  0
    9.0339   -2.6234    0.3066 C   0  0  0  0  0  0  0  0  0  0  0  0
    8.8102   -3.4947   -0.7044 O   0  0  0  0  0  0  0  0  0  0  0  0
    7.5786   -3.1932   -1.1873 C   0  0  0  0  0  0  0  0  0  0  0  0
    4.3695   -2.6419   -0.4431 C   0  0  0  0  0  0  0  0  0  0  0  0
    4.6863   -4.0528   -0.9964 C   0  0  0  0  0  0  0  0  0  0  0  0
    3.1914   -2.0715   -1.2465 C   0  0  0  0  0  0  0  0  0  0  0  0
    2.2822   -5.0226    3.9238 O   0  0  0  0  0  0  0  0  0  0  0  0
    1.7030   -5.9350    4.8309 C   0  0  1  0  0  0  0  0  0  0  0  0
    0.9256   -7.4082    9.1568 H   0  0  0  0  0  0  0  0  0  0  0  0
    1.0051   -9.0355    8.4837 H   0  0  0  0  0  0  0  0  0  0  0  0
   -0.5322   -8.1828    8.5373 H   0  0  0  0  0  0  0  0  0  0  0  0
   -0.8059   -6.1372    7.2178 H   0  0  0  0  0  0  0  0  0  0  0  0
    0.7789   -5.4647    7.5420 H   0  0  0  0  0  0  0  0  0  0  0  0
   -0.0070   -4.6274    5.3328 H   0  0  0  0  0  0  0  0  0  0  0  0
   -0.0058   -9.5740    3.3571 H   0  0  0  0  0  0  0  0  0  0  0  0
   -0.8853   -8.1836    2.7112 H   0  0  0  0  0  0  0  0  0  0  0  0
   -1.5076   -9.0423    4.1031 H   0  0  0  0  0  0  0  0  0  0  0  0
    1.0312   -9.2577    5.9213 H   0  0  0  0  0  0  0  0  0  0  0  0
   -0.6268   -8.8391    6.2601 H   0  0  0  0  0  0  0  0  0  0  0  0
    3.3958   -7.8258    4.7850 H   0  0  0  0  0  0  0  0  0  0  0  0
    2.7151   -8.9133    3.5924 H   0  0  0  0  0  0  0  0  0  0  0  0
    5.3965   -6.1742    2.0659 H   0  0  0  0  0  0  0  0  0  0  0  0
    5.5229   -7.6625    3.0006 H   0  0  0  0  0  0  0  0  0  0  0  0
    5.1623   -6.1431    3.8162 H   0  0  0  0  0  0  0  0  0  0  0  0
    3.5803   -7.1300    0.5437 H   0  0  0  0  0  0  0  0  0  0  0  0
    4.4489   -9.0963    1.3006 H   0  0  0  0  0  0  0  0  0  0  0  0
    1.2402   -7.1110    0.4265 H   0  0  0  0  0  0  0  0  0  0  0  0
    1.0796   -8.4953    1.4591 H   0  0  0  0  0  0  0  0  0  0  0  0
    0.3932   -5.9638    2.4075 H   0  0  0  0  0  0  0  0  0  0  0  0
    3.4347   -3.1029    2.9539 H   0  0  0  0  0  0  0  0  0  0  0  0
    5.5032   -1.0799   -1.4739 H   0  0  0  0  0  0  0  0  0  0  0  0
    7.8781   -1.0563    1.2762 H   0  0  0  0  0  0  0  0  0  0  0  0
   10.0062   -2.6846    0.7601 H   0  0  0  0  0  0  0  0  0  0  0  0
    7.3026   -3.8045   -2.0260 H   0  0  0  0  0  0  0  0  0  0  0  0
    5.1807   -3.9512   -1.9633 H   0  0  0  0  0  0  0  0  0  0  0  0
    3.8003   -4.6380   -1.1973 H   0  0  0  0  0  0  0  0  0  0  0  0
    5.3331   -4.6157   -0.3186 H   0  0  0  0  0  0  0  0  0  0  0  0
    3.3923   -2.0207   -2.3177 H   0  0  0  0  0  0  0  0  0  0  0  0
    3.0029   -1.0533   -0.9094 H   0  0  0  0  0  0  0  0  0  0  0  0
    2.2818   -2.6579   -1.1017 H   0  0  0  0  0  0  0  0  0  0  0  0
    2.4461   -6.0840    5.6129 H   0  0  0  0  0  0  0  0  0  0  0  0
  1  2  1  0
  1 36  1  0
  1 37  1  0
  1 38  1  0
  2  8  1  0
  2  3  1  0
  3  4  1  0
  3 39  1  0
  3 40  1  0
  4 35  1  0
  4  5  1  0
  4 41  1  1
  5  6  1  0
  6  7  1  6
  6  8  1  0
  6  9  1  0
  7 42  1  0
  7 43  1  0
  7 44  1  0
  8 45  1  0
  8 46  1  0
  9 16  1  0
  9 35  1  0
  9 10  1  6
 10 11  1  0
 10 47  1  0
 10 48  1  0
 11 17  1  0
 11 12  1  1
 11 13  1  0
 12 49  1  0
 12 50  1  0
 12 51  1  0
 13 14  1  0
 13 15  1  0
 13 52  1  6
 14 53  1  0
 15 16  1  0
 15 54  1  0
 15 55  1  0
 16 17  1  0
 16 56  1  6
 17 18  1  6
 17 34  1  0
 18 19  2  0
 18 20  1  0
 20 21  2  3
 20 57  1  0
 21 31  1  0
 21 22  1  0
 22 23  2  0
 22 24  1  0
 24 25  1  0
 25 26  1  0
 25 31  1  0
 25 58  1  6
 26 30  2  0
 26 27  1  0
 27 28  2  0
 27 59  1  0
 28 29  1  0
 28 60  1  0
 29 30  1  0
 30 61  1  0
 31 32  1  0
 31 33  1  0
 32 62  1  0
 32 63  1  0
 32 64  1  0
 33 65  1  0
 33 66  1  0
 33 67  1  0
 34 35  1  0
 35 68  1  1
M  END
>  <i_m_ct_stereo_status>  (196) 
1

>  <s_m_source_file>  (196) 
/var/tmp/pbs.5076255.sched01/tmpy0mqr2dw/78t3ouse6d.sdf

>  <i_m_source_file_index>  (196) 
2

>  <i_lp_mmshare_version>  (196) 
48012

>  <i_f3d_flags>  (196) 
0

>  <s_epik_input>  (196) 
W0NIM11OKFtDSDJdMSlbQ0gyXVtDQEhdKE9bQ0BdMShbQ0BAXTIzNClbQ0gzXSlbQ0BASF00T1tDQF01KFtDQF0oW0NIMl0yKShbQ0gzXSlbQ0BASF0oW09IXSlbQ0gyXVtDQEBIXTM1KUMoPU8pL1tDSF09QyhDNihbQ0gzXSlbQ0gzXSlcQyg9TylPW0NASF02YzdbY0hdW2NIXW9bY0hdNw==

>  <s_epik_cmdline>  (196) 
J2VwaWtfcHl0aG9uJywgJy1waHQnLCAnMi4wJywgJy1waCcsICc3LjAnLCAnLXRuJywgJzgnLCAnLW1hJywgJzIwMCcsICctaW1hZScsICc8aW5maWxlLm1hZT4nLCAnLW9tYWUnLCAnPG91dGZpbGUubWFlPic=

>  <r_epik_Ionization_Penalty>  (196) 
0.624352

>  <r_epik_Ionization_Penalty_Charging>  (196) 
0

>  <r_epik_Ionization_Penalty_Neutral>  (196) 
0.624352

>  <r_epik_State_Penalty>  (196) 
0.640654

>  <r_epik_Charging_Adjusted_Penalty>  (196) 
0.640654

>  <i_epik_Tot_Q>  (196) 
0

>  <i_epik_Tot_abs_Q>  (196) 
0

>  <s_epik_Chemistry_Notes>  (196) 
This compound has an ester and may undergo hydrolysis at high or low pH.

>  <s_lp_Force_Field>  (196) 
OPLS3e

>  <r_lp_Energy>  (196) 
77.5036

>  <b_lp_Chiralities_Consistent>  (196) 
1

>  <s_lp_Variant>  (196) 
59:0-4

>  <s_i_glide_gridfile>  (196) 
pfpi4k_grid

>  <i_i_glide_lignum>  (196) 
2

>  <i_i_glide_rotatable_bonds>  (196) 
4

>  <r_i_docking_score>  (196) 
-1.58751

>  <r_i_glide_ligand_efficiency>  (196) 
-0.0453574

>  <r_i_glide_ligand_efficiency_sa>  (196) 
-0.148367

>  <r_i_glide_ligand_efficiency_ln>  (196) 
-0.348493

>  <r_i_glide_gscore>  (196) 
-1.58751

>  <r_i_glide_lipo>  (196) 
-0.0520662

>  <r_i_glide_hbond>  (196) 
-0.0317391

>  <r_i_glide_metal>  (196) 
-0

>  <r_i_glide_rewards>  (196) 
-0.173325

>  <r_i_glide_evdw>  (196) 
-29.4005

>  <r_i_glide_ecoul>  (196) 
-0.723475

>  <r_i_glide_erotb>  (196) 
0.260473

>  <r_i_glide_esite>  (196) 
-0.0123072

>  <r_i_glide_emodel>  (196) 
-30.4909

>  <r_i_glide_energy>  (196) 
-30.1239

>  <r_i_glide_einternal>  (196) 
4.20052

>  <r_i_glide_intrahb_reward>  (196) 
-0

>  <i_i_glide_confnum>  (196) 
3

>  <i_i_glide_posenum>  (196) 
14

>  <r_i_glide_eff_state_penalty>  (196) 
0

>  <ligand_id>  (196) 
59

>  <original_smiles>  (196) 
CN1CC2OC(C)(C1)C13CC4(C)C(O)CC1C4(C(=O)C=C1C(=O)OC(c4ccoc4)C1(C)C)OC23

>  <smiles>  (196) 
[H]OC1([H])C([H])([H])C2([H])C3(C(=O)C([H])=C4C(=O)OC([H])(c5c([H])oc([H])c5[H])C4(C([H])([H])[H])C([H])([H])[H])OC4([H])C5([H])OC(C([H])([H])[H])(C([H])([H])N(C([H])([H])[H])C5([H])[H])C42C([H])([H])C13C([H])([H])[H]

$$$$
60:0:0
     RDKit          3D

 75 81  0  0  1  0  0  0  0  0999 V2000
    1.0105   -5.3693    4.6071 C   0  0  0  0  0  0  0  0  0  0  0  0
    2.0579   -4.9405    3.9006 C   0  0  0  0  0  0  0  0  0  0  0  0
    2.1916   -3.5257    3.4288 C   0  0  0  0  0  0  0  0  0  0  0  0
    1.3944   -2.6194    3.5373 O   0  0  0  0  0  0  0  0  0  0  0  0
    3.5857   -3.4463    2.7628 C   0  0  1  0  0  0  0  0  0  0  0  0
    4.4749   -3.4729    4.0823 C   0  0  1  0  0  0  0  0  0  0  0  0
    5.3328   -4.7273    4.3030 C   0  0  0  0  0  0  0  0  0  0  0  0
    4.4098   -5.9493    4.2255 C   0  0  0  0  0  0  0  0  0  0  0  0
    3.2010   -5.7530    3.2676 C   0  0  2  0  0  0  0  0  0  0  0  0
    3.5038   -4.8911    1.9945 C   0  0  1  0  0  0  0  0  0  0  0  0
    2.2271   -5.2752    1.1234 C   0  0  0  0  0  0  0  0  0  0  0  0
    4.7871   -5.2967    1.1735 C   0  0  0  0  0  0  0  0  0  0  0  0
    4.9863   -5.1698   -0.4065 C   0  0  0  0  0  0  0  0  0  0  0  0
    5.3665   -3.8343   -1.1887 C   0  0  1  0  0  0  0  0  0  0  0  0
    4.1260   -2.9184   -1.6028 C   0  0  1  0  0  0  0  0  0  0  0  0
    3.0786   -3.5725   -2.5237 C   0  0  0  0  0  0  0  0  0  0  0  0
    3.4530   -2.6128   -0.2987 C   0  0  0  0  0  0  0  0  0  0  0  0
    4.3433   -1.7912    0.5984 C   0  0  2  0  0  0  0  0  0  0  0  0
    4.0353   -0.3982   -0.0317 C   0  0  0  0  0  0  0  0  0  0  0  0
    4.4935   -0.3055   -1.5481 C   0  0  0  0  0  0  0  0  0  0  0  0
    4.4036   -1.5993   -2.3496 C   0  0  0  0  0  0  0  0  0  0  0  0
    4.5233   -1.5694   -3.5783 O   0  0  0  0  0  0  0  0  0  0  0  0
    5.9018   -2.0141    0.5154 C   0  0  1  0  0  0  0  0  0  0  0  0
    6.3581   -2.0577    1.9709 C   0  0  0  0  0  0  0  0  0  0  0  0
    5.2459   -1.5067    2.8638 C   0  0  2  0  0  0  0  0  0  0  0  0
    5.4915    0.0186    3.0183 C   0  0  0  0  0  0  0  0  0  0  0  0
    4.3297    0.8176    3.6474 C   0  0  0  0  0  0  0  0  0  0  0  0
    5.1598   -2.1583    4.2323 C   0  0  0  0  0  0  0  0  0  0  0  0
    5.4169   -1.6117    5.4202 C   0  0  0  0  0  0  0  0  0  0  0  0
    3.9637   -1.9923    2.1157 C   0  0  2  0  0  0  0  0  0  0  0  0
    6.5408   -3.0541   -0.5024 C   0  0  0  0  0  0  0  0  0  0  0  0
    7.6866   -3.9695    0.0782 C   0  0  0  0  0  0  0  0  0  0  0  0
    7.3560   -2.3239   -1.5894 C   0  0  0  0  0  0  0  0  0  0  0  0
    0.8979   -6.4118    4.8707 H   0  0  0  0  0  0  0  0  0  0  0  0
    0.2319   -4.6965    4.9330 H   0  0  0  0  0  0  0  0  0  0  0  0
    3.8930   -3.4533    5.0117 H   0  0  0  0  0  0  0  0  0  0  0  0
    6.1511   -4.7865    3.5937 H   0  0  0  0  0  0  0  0  0  0  0  0
    5.8178   -4.6926    5.2766 H   0  0  0  0  0  0  0  0  0  0  0  0
    4.9948   -6.8121    3.9164 H   0  0  0  0  0  0  0  0  0  0  0  0
    4.0269   -6.1673    5.2215 H   0  0  0  0  0  0  0  0  0  0  0  0
    2.8353   -6.7575    3.0367 H   0  0  0  0  0  0  0  0  0  0  0  0
    1.6146   -6.0825    1.5212 H   0  0  0  0  0  0  0  0  0  0  0  0
    2.4557   -5.6017    0.1128 H   0  0  0  0  0  0  0  0  0  0  0  0
    1.5653   -4.4289    1.0395 H   0  0  0  0  0  0  0  0  0  0  0  0
    5.6058   -4.8087    1.6592 H   0  0  0  0  0  0  0  0  0  0  0  0
    4.9373   -6.3575    1.3727 H   0  0  0  0  0  0  0  0  0  0  0  0
    5.8325   -5.8246   -0.5920 H   0  0  0  0  0  0  0  0  0  0  0  0
    4.2097   -5.6891   -0.9568 H   0  0  0  0  0  0  0  0  0  0  0  0
    5.7482   -4.2000   -2.1454 H   0  0  0  0  0  0  0  0  0  0  0  0
    2.4491   -4.2371   -1.9470 H   0  0  0  0  0  0  0  0  0  0  0  0
    3.5412   -4.2319   -3.2487 H   0  0  0  0  0  0  0  0  0  0  0  0
    2.3678   -2.8716   -2.9957 H   0  0  0  0  0  0  0  0  0  0  0  0
    2.4595   -2.2171   -0.4369 H   0  0  0  0  0  0  0  0  0  0  0  0
    3.2512   -3.5310    0.1331 H   0  0  0  0  0  0  0  0  0  0  0  0
    2.9603   -0.2491    0.0849 H   0  0  0  0  0  0  0  0  0  0  0  0
    4.4753    0.4302    0.5102 H   0  0  0  0  0  0  0  0  0  0  0  0
    3.9452    0.3791   -2.1931 H   0  0  0  0  0  0  0  0  0  0  0  0
    5.5392   -0.0154   -1.5748 H   0  0  0  0  0  0  0  0  0  0  0  0
    6.3158   -1.0687    0.2043 H   0  0  0  0  0  0  0  0  0  0  0  0
    6.6100   -3.0523    2.2738 H   0  0  0  0  0  0  0  0  0  0  0  0
    7.2130   -1.4188    2.0232 H   0  0  0  0  0  0  0  0  0  0  0  0
    6.4100    0.1693    3.6012 H   0  0  0  0  0  0  0  0  0  0  0  0
    5.7945    0.4304    2.0556 H   0  0  0  0  0  0  0  0  0  0  0  0
    4.5730    1.8582    3.8287 H   0  0  0  0  0  0  0  0  0  0  0  0
    4.0270    0.4178    4.6069 H   0  0  0  0  0  0  0  0  0  0  0  0
    3.4736    0.8118    2.9823 H   0  0  0  0  0  0  0  0  0  0  0  0
    5.2014   -2.1544    6.3400 H   0  0  0  0  0  0  0  0  0  0  0  0
    5.8450   -0.6301    5.5226 H   0  0  0  0  0  0  0  0  0  0  0  0
    3.1523   -1.2949    2.3400 H   0  0  0  0  0  0  0  0  0  0  0  0
    8.4828   -3.3472    0.5097 H   0  0  0  0  0  0  0  0  0  0  0  0
    8.1332   -4.5970   -0.6998 H   0  0  0  0  0  0  0  0  0  0  0  0
    7.3962   -4.6601    0.8702 H   0  0  0  0  0  0  0  0  0  0  0  0
    8.2762   -1.8890   -1.2015 H   0  0  0  0  0  0  0  0  0  0  0  0
    6.8503   -1.4732   -2.0550 H   0  0  0  0  0  0  0  0  0  0  0  0
    7.6369   -3.0138   -2.3721 H   0  0  0  0  0  0  0  0  0  0  0  0
  1  2  2  0
  1 34  1  0
  1 35  1  0
  2  9  1  0
  2  3  1  0
  3  4  2  0
  5  3  1  1
  5 10  1  0
  5 30  1  0
  5  6  1  0
  6 28  1  0
  6  7  1  0
  6 36  1  1
  7  8  1  0
  7 37  1  0
  7 38  1  0
  8  9  1  0
  8 39  1  0
  8 40  1  0
  9 10  1  0
  9 41  1  6
 10 11  1  6
 10 12  1  0
 11 42  1  0
 11 43  1  0
 11 44  1  0
 12 13  1  0
 12 45  1  0
 12 46  1  0
 13 14  1  0
 13 47  1  0
 13 48  1  0
 14 31  1  0
 14 15  1  0
 14 49  1  6
 15 21  1  0
 15 16  1  6
 15 17  1  0
 16 50  1  0
 16 51  1  0
 16 52  1  0
 17 18  1  0
 17 53  1  0
 17 54  1  0
 18 30  1  0
 18 19  1  6
 18 23  1  0
 19 20  1  0
 19 55  1  0
 19 56  1  0
 20 21  1  0
 20 57  1  0
 20 58  1  0
 21 22  2  0
 23 24  1  0
 23 31  1  0
 23 59  1  6
 24 25  1  0
 24 60  1  0
 24 61  1  0
 25 26  1  1
 25 28  1  0
 25 30  1  0
 26 27  1  0
 26 62  1  0
 26 63  1  0
 27 64  1  0
 27 65  1  0
 27 66  1  0
 28 29  2  0
 29 67  1  0
 29 68  1  0
 30 69  1  1
 31 32  1  0
 31 33  1  0
 32 70  1  0
 32 71  1  0
 32 72  1  0
 33 73  1  0
 33 74  1  0
 33 75  1  0
M  END
>  <i_m_ct_stereo_status>  (197) 
1

>  <s_m_source_file>  (197) 
/var/tmp/pbs.5076255.sched01/tmpy0mqr2dw/78t3ouse6d.sdf

>  <i_m_source_file_index>  (197) 
3

>  <i_lp_mmshare_version>  (197) 
48012

>  <i_f3d_flags>  (197) 
0

>  <s_epik_input>  (197) 
W0NAQF0xMjNbQ0BIXTRbQ0gyXVtDSDJdW0NAQEhdKEMoPVtDSDJdKUMxPU8pW0NAXTIoW0NIM10pW0NIMl1bQ0gyXVtDQEhdNVtDQEBdNihbQ0gzXSlbQ0gyXVtDQF03KFtDSDJdW0NIMl1DNj1PKVtDQEhdKEM1KFtDSDNdKVtDSDNdKVtDSDJdW0NAXShbQ0BIXTM3KShbQ0gyXVtDSDNdKUM0PVtDSDJd

>  <s_epik_cmdline>  (197) 
J2VwaWtfcHl0aG9uJywgJy1waHQnLCAnMi4wJywgJy1waCcsICc3LjAnLCAnLXRuJywgJzgnLCAnLW1hJywgJzIwMCcsICctaW1hZScsICc8aW5maWxlLm1hZT4nLCAnLW9tYWUnLCAnPG91dGZpbGUubWFlPic=

>  <r_lp_tautomer_probability>  (197) 
1

>  <r_epik_Ionization_Penalty>  (197) 
5.67016e-14

>  <r_epik_Ionization_Penalty_Charging>  (197) 
0

>  <r_epik_Ionization_Penalty_Neutral>  (197) 
5.67016e-14

>  <r_epik_State_Penalty>  (197) 
-0

>  <r_epik_Charging_Adjusted_Penalty>  (197) 
0

>  <i_epik_Tot_Q>  (197) 
0

>  <i_epik_Tot_abs_Q>  (197) 
0

>  <s_lp_Force_Field>  (197) 
OPLS3e

>  <r_lp_Energy>  (197) 
172.378

>  <b_lp_Chiralities_Consistent>  (197) 
1

>  <s_lp_Variant>  (197) 
60:0-1

>  <s_i_glide_gridfile>  (197) 
pfpi4k_grid

>  <i_i_glide_lignum>  (197) 
3

>  <i_i_glide_rotatable_bonds>  (197) 
1

>  <r_i_docking_score>  (197) 
-1.54705

>  <r_i_glide_ligand_efficiency>  (197) 
-0.0468802

>  <r_i_glide_ligand_efficiency_sa>  (197) 
-0.15037

>  <r_i_glide_ligand_efficiency_ln>  (197) 
-0.344055

>  <r_i_glide_gscore>  (197) 
-1.54705

>  <r_i_glide_lipo>  (197) 
-0.716234

>  <r_i_glide_hbond>  (197) 
0

>  <r_i_glide_metal>  (197) 
-0

>  <r_i_glide_rewards>  (197) 
-0.367819

>  <r_i_glide_evdw>  (197) 
-6.66259

>  <r_i_glide_ecoul>  (197) 
-0.68374

>  <r_i_glide_erotb>  (197) 
0

>  <r_i_glide_esite>  (197) 
-0.0273042

>  <r_i_glide_emodel>  (197) 
-8.31926

>  <r_i_glide_energy>  (197) 
-7.34633

>  <r_i_glide_einternal>  (197) 
0.0940554

>  <r_i_glide_intrahb_reward>  (197) 
-0

>  <i_i_glide_confnum>  (197) 
1

>  <i_i_glide_posenum>  (197) 
4

>  <r_i_glide_eff_state_penalty>  (197) 
0

>  <ligand_id>  (197) 
60

>  <original_smiles>  (197) 
C=C1C(=O)C23C4CCC1C2(C)CCC1C2(C)CC5(CCC2=O)C(CC(CC)(C4=C)C53)C1(C)C

>  <smiles>  (197) 
[H]C([H])=C1C(=O)C23C4([H])C(=C([H])[H])C5(C([H])([H])C([H])([H])[H])C([H])([H])C6([H])C(C([H])([H])[H])(C([H])([H])[H])C([H])(C([H])([H])C([H])([H])C2(C([H])([H])[H])C1([H])C([H])([H])C4([H])[H])C1(C([H])([H])[H])C(=O)C([H])([H])C([H])([H])C6(C1([H])[H])C53[H]

$$$$
61:0:0
     RDKit          3D

 33 36  0  0  1  0  0  0  0  0999 V2000
   -2.9712    3.3198    4.6151 C   0  0  0  0  0  0  0  0  0  0  0  0
   -1.6736    2.5742    4.5248 C   0  0  0  0  0  0  0  0  0  0  0  0
   -0.9538    2.3252    5.7200 C   0  0  0  0  0  0  0  0  0  0  0  0
    0.2445    1.6667    5.6339 C   0  0  0  0  0  0  0  0  0  0  0  0
    0.6918    1.2751    4.3519 C   0  0  0  0  0  0  0  0  0  0  0  0
    1.7715    0.6241    3.9351 N   0  0  0  0  0  0  0  0  0  0  0  0
    1.6512    0.5471    2.5516 C   0  0  0  0  0  0  0  0  0  0  0  0
    2.5669   -0.0737    1.6686 N   0  0  0  0  0  0  0  0  0  0  0  0
    3.7600   -0.5969    1.9864 C   0  0  0  0  0  0  0  0  0  0  0  0
    4.2746   -0.5300    3.0982 O   0  0  0  0  0  0  0  0  0  0  0  0
    4.4922   -1.2566    0.8590 C   0  0  0  0  0  0  0  0  0  0  0  0
    3.8010   -1.8062   -0.2784 C   0  0  0  0  0  0  0  0  0  0  0  0
    4.9210   -2.2891   -0.9658 C   0  0  0  0  0  0  0  0  0  0  0  0
    4.8771   -2.9359   -2.2128 C   0  0  0  0  0  0  0  0  0  0  0  0
    6.1562   -3.3077   -2.6776 C   0  0  0  0  0  0  0  0  0  0  0  0
    7.3317   -3.0454   -1.9134 C   0  0  0  0  0  0  0  0  0  0  0  0
    7.3474   -2.4330   -0.7174 N   0  0  0  0  0  0  0  0  0  0  0  0
    6.1282   -2.0841   -0.3129 N   0  0  0  0  0  0  0  0  0  0  0  0
    5.8325   -1.4265    0.8362 N   0  0  0  0  0  0  0  0  0  0  0  0
    0.4915    1.1244    2.1150 C   0  0  0  0  0  0  0  0  0  0  0  0
   -0.1383    1.6007    3.2505 N   0  0  0  0  0  0  0  0  0  0  0  0
   -1.3294    2.2449    3.2846 N   0  0  0  0  0  0  0  0  0  0  0  0
   -3.2246    3.5449    5.6527 H   0  0  0  0  0  0  0  0  0  0  0  0
   -3.7694    2.7376    4.1719 H   0  0  0  0  0  0  0  0  0  0  0  0
   -2.8705    4.2200    4.0206 H   0  0  0  0  0  0  0  0  0  0  0  0
   -1.3197    2.6523    6.6884 H   0  0  0  0  0  0  0  0  0  0  0  0
    0.8474    1.4421    6.5158 H   0  0  0  0  0  0  0  0  0  0  0  0
    2.2871   -0.1867    0.7071 H   0  0  0  0  0  0  0  0  0  0  0  0
    2.7854   -1.9230   -0.6631 H   0  0  0  0  0  0  0  0  0  0  0  0
    3.9419   -3.1133   -2.7326 H   0  0  0  0  0  0  0  0  0  0  0  0
    6.2243   -3.8202   -3.6170 H   0  0  0  0  0  0  0  0  0  0  0  0
    8.3014   -3.3554   -2.2852 H   0  0  0  0  0  0  0  0  0  0  0  0
    0.0445    1.2517    1.1395 H   0  0  0  0  0  0  0  0  0  0  0  0
  1  2  1  0
  1 23  1  0
  1 24  1  0
  1 25  1  0
  2 22  2  0
  2  3  1  0
  3  4  2  0
  3 26  1  0
  4  5  1  0
  4 27  1  0
  5 21  1  0
  5  6  2  0
  6  7  1  0
  7  8  1  0
  7 20  2  0
  8  9  1  0
  8 28  1  0
  9 10  2  0
  9 11  1  0
 11 19  2  0
 11 12  1  0
 12 13  2  0
 12 29  1  0
 13 18  1  0
 13 14  1  0
 14 15  2  0
 14 30  1  0
 15 16  1  0
 15 31  1  0
 16 17  2  0
 16 32  1  0
 17 18  1  0
 18 19  1  0
 20 21  1  0
 20 33  1  0
 21 22  1  0
M  END
>  <i_m_ct_stereo_status>  (198) 
1

>  <s_m_source_file>  (198) 
/var/tmp/pbs.5076255.sched01/tmpy0mqr2dw/78t3ouse6d.sdf

>  <i_m_source_file_index>  (198) 
4

>  <i_lp_mmshare_version>  (198) 
48012

>  <i_f3d_flags>  (198) 
0

>  <s_epik_input>  (198) 
W2NIXTFbY0hdYyhbQ0gzXSlubihjMTIpW2NIXWMobjIpW05IXUMoPU8pYyhbY0hdMylubihjMzQpbltjSF1bY0hdW2NIXTQ=

>  <s_epik_cmdline>  (198) 
J2VwaWtfcHl0aG9uJywgJy1waHQnLCAnMi4wJywgJy1waCcsICc3LjAnLCAnLXRuJywgJzgnLCAnLW1hJywgJzIwMCcsICctaW1hZScsICc8aW5maWxlLm1hZT4nLCAnLW9tYWUnLCAnPG91dGZpbGUubWFlPic=

>  <r_lp_tautomer_probability>  (198) 
1

>  <r_epik_Ionization_Penalty>  (198) 
0.000128087

>  <r_epik_Ionization_Penalty_Charging>  (198) 
9.11215e-07

>  <r_epik_Ionization_Penalty_Neutral>  (198) 
0.000127176

>  <r_epik_State_Penalty>  (198) 
-0

>  <r_epik_Charging_Adjusted_Penalty>  (198) 
9.11215e-07

>  <i_epik_Tot_Q>  (198) 
0

>  <i_epik_Tot_abs_Q>  (198) 
0

>  <s_lp_Force_Field>  (198) 
OPLS3e

>  <r_lp_Energy>  (198) 
30.2472

>  <b_lp_Chiralities_Consistent>  (198) 
1

>  <s_lp_Variant>  (198) 
61:0-1

>  <s_i_glide_gridfile>  (198) 
pfpi4k_grid

>  <i_i_glide_lignum>  (198) 
4

>  <i_i_glide_rotatable_bonds>  (198) 
3

>  <r_i_docking_score>  (198) 
-3.23047

>  <r_i_glide_ligand_efficiency>  (198) 
-0.146839

>  <r_i_glide_ligand_efficiency_sa>  (198) 
-0.41145

>  <r_i_glide_ligand_efficiency_ln>  (198) 
-0.789644

>  <r_i_glide_gscore>  (198) 
-3.23047

>  <r_i_glide_lipo>  (198) 
-0.383638

>  <r_i_glide_hbond>  (198) 
-0.183031

>  <r_i_glide_metal>  (198) 
-0

>  <r_i_glide_rewards>  (198) 
-1.43117

>  <r_i_glide_evdw>  (198) 
-26.4395

>  <r_i_glide_ecoul>  (198) 
-2.94195

>  <r_i_glide_erotb>  (198) 
0.637227

>  <r_i_glide_esite>  (198) 
-0.106583

>  <r_i_glide_emodel>  (198) 
-36.2267

>  <r_i_glide_energy>  (198) 
-29.3815

>  <r_i_glide_einternal>  (198) 
0.160266

>  <r_i_glide_intrahb_reward>  (198) 
-0

>  <i_i_glide_confnum>  (198) 
6

>  <i_i_glide_posenum>  (198) 
36

>  <r_i_glide_eff_state_penalty>  (198) 
0

>  <ligand_id>  (198) 
61

>  <original_smiles>  (198) 
Cc1ccc2nc(NC(=O)c3cc4cccnn4n3)cn2n1

>  <smiles>  (198) 
[H]c1nn2nc(C(=O)N([H])c3nc4c([H])c([H])c(C([H])([H])[H])nn4c3[H])c([H])c2c([H])c1[H]

$$$$
61:0:1
     RDKit          3D

 33 36  0  0  1  0  0  0  0  0999 V2000
    8.5916   -3.0118   -1.0882 C   0  0  0  0  0  0  0  0  0  0  0  0
    7.3245   -3.0682   -0.2744 C   0  0  0  0  0  0  0  0  0  0  0  0
    7.0330   -4.2653    0.4361 C   0  0  0  0  0  0  0  0  0  0  0  0
    5.8790   -4.3375    1.1743 C   0  0  0  0  0  0  0  0  0  0  0  0
    5.0399   -3.2037    1.1960 C   0  0  0  0  0  0  0  0  0  0  0  0
    3.8826   -2.9494    1.8011 N   0  0  0  0  0  0  0  0  0  0  0  0
    3.5431   -1.6604    1.4248 C   0  0  0  0  0  0  0  0  0  0  0  0
    2.3937   -0.9380    1.8450 N   0  0  0  0  0  0  0  0  0  0  0  0
    1.5288   -1.3012    2.8043 C   0  0  0  0  0  0  0  0  0  0  0  0
    1.5022   -2.3997    3.3495 O   0  0  0  0  0  0  0  0  0  0  0  0
    0.5807   -0.2178    3.2453 C   0  0  0  0  0  0  0  0  0  0  0  0
    0.2016    0.8727    2.3817 C   0  0  0  0  0  0  0  0  0  0  0  0
   -0.6589    1.5363    3.2851 C   0  0  0  0  0  0  0  0  0  0  0  0
   -1.3726    2.7205    3.0192 C   0  0  0  0  0  0  0  0  0  0  0  0
   -2.1565    3.1806    4.0966 C   0  0  0  0  0  0  0  0  0  0  0  0
   -2.1835    2.4787    5.3248 C   0  0  0  0  0  0  0  0  0  0  0  0
   -1.5070    1.3216    5.5584 N   0  0  0  0  0  0  0  0  0  0  0  0
   -0.7794    0.9244    4.5124 N   0  0  0  0  0  0  0  0  0  0  0  0
   -0.0034   -0.1923    4.4613 N   0  0  0  0  0  0  0  0  0  0  0  0
    4.4940   -1.1031    0.6073 C   0  0  0  0  0  0  0  0  0  0  0  0
    5.4623   -2.0792    0.4430 N   0  0  0  0  0  0  0  0  0  0  0  0
    6.5937   -1.9574   -0.3057 N   0  0  0  0  0  0  0  0  0  0  0  0
    9.1524   -3.9403   -1.0114 H   0  0  0  0  0  0  0  0  0  0  0  0
    9.2237   -2.2153   -0.7043 H   0  0  0  0  0  0  0  0  0  0  0  0
    8.3711   -2.8360   -2.1412 H   0  0  0  0  0  0  0  0  0  0  0  0
    7.6873   -5.1268    0.3984 H   0  0  0  0  0  0  0  0  0  0  0  0
    5.6004   -5.2314    1.7288 H   0  0  0  0  0  0  0  0  0  0  0  0
    2.2417   -0.0283    1.4527 H   0  0  0  0  0  0  0  0  0  0  0  0
    0.3933    1.2166    1.3688 H   0  0  0  0  0  0  0  0  0  0  0  0
   -1.3045    3.2240    2.0669 H   0  0  0  0  0  0  0  0  0  0  0  0
   -2.7420    4.0763    3.9798 H   0  0  0  0  0  0  0  0  0  0  0  0
   -2.8006    2.8197    6.1435 H   0  0  0  0  0  0  0  0  0  0  0  0
    4.5982   -0.1412    0.1357 H   0  0  0  0  0  0  0  0  0  0  0  0
  1  2  1  0
  1 23  1  0
  1 24  1  0
  1 25  1  0
  2 22  2  0
  2  3  1  0
  3  4  2  0
  3 26  1  0
  4  5  1  0
  4 27  1  0
  5 21  1  0
  5  6  2  0
  6  7  1  0
  7  8  1  0
  7 20  2  0
  8  9  1  0
  8 28  1  0
  9 10  2  0
  9 11  1  0
 11 19  2  0
 11 12  1  0
 12 13  2  0
 12 29  1  0
 13 18  1  0
 13 14  1  0
 14 15  2  0
 14 30  1  0
 15 16  1  0
 15 31  1  0
 16 17  2  0
 16 32  1  0
 17 18  1  0
 18 19  1  0
 20 21  1  0
 20 33  1  0
 21 22  1  0
M  END
>  <i_m_ct_stereo_status>  (199) 
1

>  <s_m_source_file>  (199) 
/var/tmp/pbs.5076255.sched01/tmpy0mqr2dw/78t3ouse6d.sdf

>  <i_m_source_file_index>  (199) 
4

>  <i_lp_mmshare_version>  (199) 
48012

>  <i_f3d_flags>  (199) 
0

>  <s_epik_input>  (199) 
W2NIXTFbY0hdYyhbQ0gzXSlubihjMTIpW2NIXWMobjIpW05IXUMoPU8pYyhbY0hdMylubihjMzQpbltjSF1bY0hdW2NIXTQ=

>  <s_epik_cmdline>  (199) 
J2VwaWtfcHl0aG9uJywgJy1waHQnLCAnMi4wJywgJy1waCcsICc3LjAnLCAnLXRuJywgJzgnLCAnLW1hJywgJzIwMCcsICctaW1hZScsICc8aW5maWxlLm1hZT4nLCAnLW9tYWUnLCAnPG91dGZpbGUubWFlPic=

>  <r_lp_tautomer_probability>  (199) 
1

>  <r_epik_Ionization_Penalty>  (199) 
0.000128087

>  <r_epik_Ionization_Penalty_Charging>  (199) 
9.11215e-07

>  <r_epik_Ionization_Penalty_Neutral>  (199) 
0.000127176

>  <r_epik_State_Penalty>  (199) 
-0

>  <r_epik_Charging_Adjusted_Penalty>  (199) 
9.11215e-07

>  <i_epik_Tot_Q>  (199) 
0

>  <i_epik_Tot_abs_Q>  (199) 
0

>  <s_lp_Force_Field>  (199) 
OPLS3e

>  <r_lp_Energy>  (199) 
30.2472

>  <b_lp_Chiralities_Consistent>  (199) 
1

>  <s_lp_Variant>  (199) 
61:0-1

>  <s_i_glide_gridfile>  (199) 
pfpi4k_grid

>  <i_i_glide_lignum>  (199) 
4

>  <i_i_glide_rotatable_bonds>  (199) 
3

>  <r_i_docking_score>  (199) 
-2.99961

>  <r_i_glide_ligand_efficiency>  (199) 
-0.136346

>  <r_i_glide_ligand_efficiency_sa>  (199) 
-0.382046

>  <r_i_glide_ligand_efficiency_ln>  (199) 
-0.733213

>  <r_i_glide_gscore>  (199) 
-2.99961

>  <r_i_glide_lipo>  (199) 
-0.362399

>  <r_i_glide_hbond>  (199) 
-0.0680206

>  <r_i_glide_metal>  (199) 
-0

>  <r_i_glide_rewards>  (199) 
-1.52431

>  <r_i_glide_evdw>  (199) 
-26.6142

>  <r_i_glide_ecoul>  (199) 
-1.71835

>  <r_i_glide_erotb>  (199) 
0.637227

>  <r_i_glide_esite>  (199) 
-0.0936435

>  <r_i_glide_emodel>  (199) 
-34.1314

>  <r_i_glide_energy>  (199) 
-28.3326

>  <r_i_glide_einternal>  (199) 
1.17583

>  <r_i_glide_intrahb_reward>  (199) 
-0

>  <i_i_glide_confnum>  (199) 
6

>  <i_i_glide_posenum>  (199) 
1

>  <r_i_glide_eff_state_penalty>  (199) 
0

>  <ligand_id>  (199) 
61

>  <original_smiles>  (199) 
Cc1ccc2nc(NC(=O)c3cc4cccnn4n3)cn2n1

>  <smiles>  (199) 
[H]c1nn2nc(C(=O)N([H])c3nc4c([H])c([H])c(C([H])([H])[H])nn4c3[H])c([H])c2c([H])c1[H]

$$$$
61:0:2
     RDKit          3D

 33 36  0  0  1  0  0  0  0  0999 V2000
    4.9965   -0.9549   -0.4171 C   0  0  0  0  0  0  0  0  0  0  0  0
    3.9067   -1.0262    0.6253 C   0  0  0  0  0  0  0  0  0  0  0  0
    3.3160   -2.2879    0.9176 C   0  0  0  0  0  0  0  0  0  0  0  0
    2.3169   -2.3492    1.8547 C   0  0  0  0  0  0  0  0  0  0  0  0
    1.9012   -1.1487    2.4735 C   0  0  0  0  0  0  0  0  0  0  0  0
    0.9828   -0.8701    3.3915 N   0  0  0  0  0  0  0  0  0  0  0  0
    1.0443    0.5025    3.5720 C   0  0  0  0  0  0  0  0  0  0  0  0
    0.2650    1.2520    4.4864 N   0  0  0  0  0  0  0  0  0  0  0  0
   -0.7407    0.7979    5.2485 C   0  0  0  0  0  0  0  0  0  0  0  0
   -1.2731   -0.3055    5.1313 O   0  0  0  0  0  0  0  0  0  0  0  0
   -1.2007    1.7403    6.3287 C   0  0  0  0  0  0  0  0  0  0  0  0
   -0.7157    3.0945    6.4400 C   0  0  0  0  0  0  0  0  0  0  0  0
   -1.4300    3.4791    7.5915 C   0  0  0  0  0  0  0  0  0  0  0  0
   -1.3901    4.7408    8.2232 C   0  0  0  0  0  0  0  0  0  0  0  0
   -2.2253    4.8532    9.3634 C   0  0  0  0  0  0  0  0  0  0  0  0
   -2.9902    3.7399    9.7986 C   0  0  0  0  0  0  0  0  0  0  0  0
   -3.0008    2.5417    9.1750 N   0  0  0  0  0  0  0  0  0  0  0  0
   -2.2258    2.4828    8.0987 N   0  0  0  0  0  0  0  0  0  0  0  0
   -2.0768    1.3977    7.2921 N   0  0  0  0  0  0  0  0  0  0  0  0
    2.0199    1.0697    2.8002 C   0  0  0  0  0  0  0  0  0  0  0  0
    2.5836    0.0294    2.0800 N   0  0  0  0  0  0  0  0  0  0  0  0
    3.6018    0.1369    1.1863 N   0  0  0  0  0  0  0  0  0  0  0  0
    5.2267   -1.9462   -0.7991 H   0  0  0  0  0  0  0  0  0  0  0  0
    5.9039   -0.5441    0.0238 H   0  0  0  0  0  0  0  0  0  0  0  0
    4.6922   -0.3230   -1.2536 H   0  0  0  0  0  0  0  0  0  0  0  0
    3.6332   -3.1895    0.4099 H   0  0  0  0  0  0  0  0  0  0  0  0
    1.8354   -3.2818    2.1230 H   0  0  0  0  0  0  0  0  0  0  0  0
    0.5487    2.1982    4.6562 H   0  0  0  0  0  0  0  0  0  0  0  0
   -0.0350    3.7587    5.9232 H   0  0  0  0  0  0  0  0  0  0  0  0
   -0.7727    5.5432    7.8403 H   0  0  0  0  0  0  0  0  0  0  0  0
   -2.2854    5.7727    9.9162 H   0  0  0  0  0  0  0  0  0  0  0  0
   -3.6277    3.7820   10.6748 H   0  0  0  0  0  0  0  0  0  0  0  0
    2.3887    2.0745    2.6771 H   0  0  0  0  0  0  0  0  0  0  0  0
  1  2  1  0
  1 23  1  0
  1 24  1  0
  1 25  1  0
  2 22  2  0
  2  3  1  0
  3  4  2  0
  3 26  1  0
  4  5  1  0
  4 27  1  0
  5 21  1  0
  5  6  2  0
  6  7  1  0
  7  8  1  0
  7 20  2  0
  8  9  1  0
  8 28  1  0
  9 10  2  0
  9 11  1  0
 11 19  2  0
 11 12  1  0
 12 13  2  0
 12 29  1  0
 13 18  1  0
 13 14  1  0
 14 15  2  0
 14 30  1  0
 15 16  1  0
 15 31  1  0
 16 17  2  0
 16 32  1  0
 17 18  1  0
 18 19  1  0
 20 21  1  0
 20 33  1  0
 21 22  1  0
M  END
>  <i_m_ct_stereo_status>  (200) 
1

>  <s_m_source_file>  (200) 
/var/tmp/pbs.5076255.sched01/tmpy0mqr2dw/78t3ouse6d.sdf

>  <i_m_source_file_index>  (200) 
4

>  <i_lp_mmshare_version>  (200) 
48012

>  <i_f3d_flags>  (200) 
0

>  <s_epik_input>  (200) 
W2NIXTFbY0hdYyhbQ0gzXSlubihjMTIpW2NIXWMobjIpW05IXUMoPU8pYyhbY0hdMylubihjMzQpbltjSF1bY0hdW2NIXTQ=

>  <s_epik_cmdline>  (200) 
J2VwaWtfcHl0aG9uJywgJy1waHQnLCAnMi4wJywgJy1waCcsICc3LjAnLCAnLXRuJywgJzgnLCAnLW1hJywgJzIwMCcsICctaW1hZScsICc8aW5maWxlLm1hZT4nLCAnLW9tYWUnLCAnPG91dGZpbGUubWFlPic=

>  <r_lp_tautomer_probability>  (200) 
1

>  <r_epik_Ionization_Penalty>  (200) 
0.000128087

>  <r_epik_Ionization_Penalty_Charging>  (200) 
9.11215e-07

>  <r_epik_Ionization_Penalty_Neutral>  (200) 
0.000127176

>  <r_epik_State_Penalty>  (200) 
-0

>  <r_epik_Charging_Adjusted_Penalty>  (200) 
9.11215e-07

>  <i_epik_Tot_Q>  (200) 
0

>  <i_epik_Tot_abs_Q>  (200) 
0

>  <s_lp_Force_Field>  (200) 
OPLS3e

>  <r_lp_Energy>  (200) 
30.2472

>  <b_lp_Chiralities_Consistent>  (200) 
1

>  <s_lp_Variant>  (200) 
61:0-1

>  <s_i_glide_gridfile>  (200) 
pfpi4k_grid

>  <i_i_glide_lignum>  (200) 
4

>  <i_i_glide_rotatable_bonds>  (200) 
3

>  <r_i_docking_score>  (200) 
-2.85042

>  <r_i_glide_ligand_efficiency>  (200) 
-0.129565

>  <r_i_glide_ligand_efficiency_sa>  (200) 
-0.363045

>  <r_i_glide_ligand_efficiency_ln>  (200) 
-0.696747

>  <r_i_glide_gscore>  (200) 
-2.85042

>  <r_i_glide_lipo>  (200) 
-0.031968

>  <r_i_glide_hbond>  (200) 
-0.119156

>  <r_i_glide_metal>  (200) 
-0

>  <r_i_glide_rewards>  (200) 
-1.40943

>  <r_i_glide_evdw>  (200) 
-25.2112

>  <r_i_glide_ecoul>  (200) 
-3.93941

>  <r_i_glide_erotb>  (200) 
0.637227

>  <r_i_glide_esite>  (200) 
-0.0756224

>  <r_i_glide_emodel>  (200) 
-34.7782

>  <r_i_glide_energy>  (200) 
-29.1506

>  <r_i_glide_einternal>  (200) 
1.01981

>  <r_i_glide_intrahb_reward>  (200) 
-0

>  <i_i_glide_confnum>  (200) 
2

>  <i_i_glide_posenum>  (200) 
2

>  <r_i_glide_eff_state_penalty>  (200) 
0

>  <ligand_id>  (200) 
61

>  <original_smiles>  (200) 
Cc1ccc2nc(NC(=O)c3cc4cccnn4n3)cn2n1

>  <smiles>  (200) 
[H]c1nn2nc(C(=O)N([H])c3nc4c([H])c([H])c(C([H])([H])[H])nn4c3[H])c([H])c2c([H])c1[H]

$$$$
63:0:0
     RDKit          3D

 35 37  0  0  1  0  0  0  0  0999 V2000
    7.3038   -3.1442   -0.7673 O   0  0  0  0  0  0  0  0  0  0  0  0
    6.1724   -2.6250   -0.8123 C   0  0  0  0  0  0  0  0  0  0  0  0
    5.3971   -2.4190   -1.9107 O   0  0  0  0  0  0  0  0  0  0  0  0
    4.1079   -1.8876   -1.6142 C   0  0  1  0  0  0  0  0  0  0  0  0
    3.7331   -0.7653   -2.6056 C   0  0  0  0  0  0  0  0  0  0  0  0
    3.4360   -1.2838   -4.0104 C   0  0  0  0  0  0  0  0  0  0  0  0
    2.3825   -2.3176   -3.9004 N   0  0  0  0  0  0  0  0  0  0  0  0
    2.7967   -3.4242   -3.1123 C   0  0  0  0  0  0  0  0  0  0  0  0
    3.0743   -3.0263   -1.6582 C   0  0  0  0  0  0  0  0  0  0  0  0
    4.2527   -1.3292   -0.2003 C   0  0  0  0  0  0  0  0  0  0  0  0
    5.4614   -2.0631    0.3960 C   0  0  2  0  0  0  0  0  0  0  0  0
    6.2877   -1.0523    1.2044 C   0  0  0  0  0  0  0  0  0  0  0  0
    5.5621   -0.9975    2.5503 C   0  0  0  0  0  0  0  0  0  0  0  0
    4.9990   -2.4060    2.7878 C   0  0  0  0  0  0  0  0  0  0  0  0
    5.0932   -3.1356    1.4396 C   0  0  0  0  0  0  0  0  0  0  0  0
    2.8115   -0.3124   -2.2569 H   0  0  0  0  0  0  0  0  0  0  0  0
    4.4939    0.0279   -2.6249 H   0  0  0  0  0  0  0  0  0  0  0  0
    3.0949   -0.4679   -4.6360 H   0  0  0  0  0  0  0  0  0  0  0  0
    4.3389   -1.6999   -4.4427 H   0  0  0  0  0  0  0  0  0  0  0  0
    1.5411   -1.9190   -3.5226 H   0  0  0  0  0  0  0  0  0  0  0  0
    2.0104   -4.2055   -3.1149 H   0  0  0  0  0  0  0  0  0  0  0  0
    3.7022   -3.9004   -3.5304 H   0  0  0  0  0  0  0  0  0  0  0  0
    3.3888   -3.8815   -1.0566 H   0  0  0  0  0  0  0  0  0  0  0  0
    2.1530   -2.6621   -1.2093 H   0  0  0  0  0  0  0  0  0  0  0  0
    4.4668   -0.2566   -0.2838 H   0  0  0  0  0  0  0  0  0  0  0  0
    3.3368   -1.4213    0.3892 H   0  0  0  0  0  0  0  0  0  0  0  0
    7.3161   -1.4057    1.3258 H   0  0  0  0  0  0  0  0  0  0  0  0
    6.3399   -0.0816    0.7377 H   0  0  0  0  0  0  0  0  0  0  0  0
    6.2116   -0.6496    3.3588 H   0  0  0  0  0  0  0  0  0  0  0  0
    4.7302   -0.2913    2.4797 H   0  0  0  0  0  0  0  0  0  0  0  0
    5.5755   -2.9367    3.5501 H   0  0  0  0  0  0  0  0  0  0  0  0
    3.9625   -2.3657    3.1329 H   0  0  0  0  0  0  0  0  0  0  0  0
    4.1755   -3.6731    1.1974 H   0  0  0  0  0  0  0  0  0  0  0  0
    5.8828   -3.8899    1.5080 H   0  0  0  0  0  0  0  0  0  0  0  0
    2.1691   -2.6285   -4.8694 H   0  0  0  0  0  0  0  0  0  0  0  0
  1  2  2  0
  2 11  1  0
  2  3  1  0
  4  3  1  6
  4  9  1  0
  4  5  1  0
  4 10  1  0
  5  6  1  0
  5 16  1  0
  5 17  1  0
  6  7  1  0
  6 18  1  0
  6 19  1  0
  7  8  1  0
  7 20  1  0
  7 35  1  0
  8  9  1  0
  8 21  1  0
  8 22  1  0
  9 23  1  0
  9 24  1  0
 11 10  1  6
 10 25  1  0
 10 26  1  0
 11 15  1  0
 11 12  1  0
 12 13  1  0
 12 27  1  0
 12 28  1  0
 13 14  1  0
 13 29  1  0
 13 30  1  0
 14 15  1  0
 14 31  1  0
 14 32  1  0
 15 33  1  0
 15 34  1  0
M  CHG  1   7   1
M  END
>  <i_m_ct_stereo_status>  (201) 
1

>  <s_m_source_file>  (201) 
/var/tmp/pbs.5076255.sched01/tmpy0mqr2dw/78t3ouse6d.sdf

>  <i_m_source_file_index>  (201) 
6

>  <i_lp_mmshare_version>  (201) 
48012

>  <i_f3d_flags>  (201) 
0

>  <s_epik_input>  (201) 
W0NIMl0xW0NIMl1bQ0gyXVtDSDJdQzEoW0NIMl0yKUMoPU8pT0MyM1tDSDJdW0NIMl1bTkhdW0NIMl1bQ0gyXTM=

>  <s_epik_cmdline>  (201) 
J2VwaWtfcHl0aG9uJywgJy1waHQnLCAnMi4wJywgJy1waCcsICc3LjAnLCAnLXRuJywgJzgnLCAnLW1hJywgJzIwMCcsICctaW1hZScsICc8aW5maWxlLm1hZT4nLCAnLW9tYWUnLCAnPG91dGZpbGUubWFlPic=

>  <r_epik_Ionization_Penalty>  (201) 
0.00167805

>  <r_epik_Ionization_Penalty_Charging>  (201) 
0.00167805

>  <r_epik_Ionization_Penalty_Neutral>  (201) 
0

>  <r_epik_State_Penalty>  (201) 
0.00113275

>  <r_epik_Charging_Adjusted_Penalty>  (201) 
0.0028108

>  <i_epik_Tot_Q>  (201) 
1

>  <i_epik_Tot_abs_Q>  (201) 
1

>  <s_epik_Chemistry_Notes>  (201) 
This compound has an ester and may undergo hydrolysis at high or low pH.

>  <s_lp_Force_Field>  (201) 
OPLS3e

>  <r_lp_Energy>  (201) 
24.4433

>  <b_lp_Chiralities_Consistent>  (201) 
1

>  <s_lp_Variant>  (201) 
63:0-1

>  <s_i_glide_gridfile>  (201) 
pfpi4k_grid

>  <i_i_glide_lignum>  (201) 
6

>  <i_i_glide_rotatable_bonds>  (201) 
0

>  <r_i_docking_score>  (201) 
-4.37475

>  <r_i_glide_ligand_efficiency>  (201) 
-0.29165

>  <r_i_glide_ligand_efficiency_sa>  (201) 
-0.71927

>  <r_i_glide_ligand_efficiency_ln>  (201) 
-1.1798

>  <r_i_glide_gscore>  (201) 
-4.37475

>  <r_i_glide_lipo>  (201) 
-0.537537

>  <r_i_glide_hbond>  (201) 
0

>  <r_i_glide_metal>  (201) 
-0

>  <r_i_glide_rewards>  (201) 
-1.97528

>  <r_i_glide_evdw>  (201) 
-20.1854

>  <r_i_glide_ecoul>  (201) 
-5.59608

>  <r_i_glide_erotb>  (201) 
0

>  <r_i_glide_esite>  (201) 
-0.0132514

>  <r_i_glide_emodel>  (201) 
-33.2465

>  <r_i_glide_energy>  (201) 
-25.7815

>  <r_i_glide_einternal>  (201) 
0

>  <r_i_glide_intrahb_reward>  (201) 
-0

>  <i_i_glide_confnum>  (201) 
5

>  <i_i_glide_posenum>  (201) 
1

>  <r_i_glide_eff_state_penalty>  (201) 
0

>  <ligand_id>  (201) 
63

>  <original_smiles>  (201) 
O=C1OC2(CCNCC2)CC12CCCC2

>  <smiles>  (201) 
[H]C1([H])C([H])([H])C([H])([H])C2(C(=O)OC3(C2([H])[H])C([H])([H])C([H])([H])[N+]([H])([H])C([H])([H])C3([H])[H])C1([H])[H]

$$$$
63:0:1
     RDKit          3D

 35 37  0  0  1  0  0  0  0  0999 V2000
    5.8224   -3.4722   -3.0084 O   0  0  0  0  0  0  0  0  0  0  0  0
    5.1394   -3.3730   -1.9829 C   0  0  0  0  0  0  0  0  0  0  0  0
    5.2558   -4.0464   -0.8015 O   0  0  0  0  0  0  0  0  0  0  0  0
    4.2933   -3.6573    0.1766 C   0  0  1  0  0  0  0  0  0  0  0  0
    3.1785   -4.7372    0.2548 C   0  0  0  0  0  0  0  0  0  0  0  0
    3.6886   -6.0269    0.9226 C   0  0  0  0  0  0  0  0  0  0  0  0
    4.2310   -5.7190    2.2591 N   0  0  0  0  0  0  0  0  0  0  0  0
    5.3727   -4.7824    2.1847 C   0  0  0  0  0  0  0  0  0  0  0  0
    4.9416   -3.4576    1.5503 C   0  0  0  0  0  0  0  0  0  0  0  0
    3.7946   -2.2999   -0.3464 C   0  0  0  0  0  0  0  0  0  0  0  0
    4.0019   -2.3729   -1.8520 C   0  0  2  0  0  0  0  0  0  0  0  0
    2.7222   -2.8339   -2.5489 C   0  0  0  0  0  0  0  0  0  0  0  0
    2.8128   -2.2988   -3.9435 C   0  0  0  0  0  0  0  0  0  0  0  0
    3.6739   -1.0360   -3.9022 C   0  0  0  0  0  0  0  0  0  0  0  0
    4.3176   -1.0190   -2.5094 C   0  0  0  0  0  0  0  0  0  0  0  0
    2.3518   -4.3244    0.8313 H   0  0  0  0  0  0  0  0  0  0  0  0
    2.7675   -4.9886   -0.7168 H   0  0  0  0  0  0  0  0  0  0  0  0
    2.8709   -6.7426    1.0081 H   0  0  0  0  0  0  0  0  0  0  0  0
    4.4570   -6.4964    0.3023 H   0  0  0  0  0  0  0  0  0  0  0  0
    3.4961   -5.3037    2.8186 H   0  0  0  0  0  0  0  0  0  0  0  0
    5.7555   -4.5923    3.1841 H   0  0  0  0  0  0  0  0  0  0  0  0
    6.1796   -5.2277    1.6034 H   0  0  0  0  0  0  0  0  0  0  0  0
    5.7833   -2.7638    1.4795 H   0  0  0  0  0  0  0  0  0  0  0  0
    4.1941   -2.9771    2.1765 H   0  0  0  0  0  0  0  0  0  0  0  0
    2.7512   -2.1261   -0.0563 H   0  0  0  0  0  0  0  0  0  0  0  0
    4.3984   -1.4790    0.0641 H   0  0  0  0  0  0  0  0  0  0  0  0
    2.6136   -3.9070   -2.5857 H   0  0  0  0  0  0  0  0  0  0  0  0
    1.8262   -2.4384   -2.0662 H   0  0  0  0  0  0  0  0  0  0  0  0
    3.2714   -3.0424   -4.6018 H   0  0  0  0  0  0  0  0  0  0  0  0
    1.8102   -2.1011   -4.3239 H   0  0  0  0  0  0  0  0  0  0  0  0
    4.4256   -1.0520   -4.6937 H   0  0  0  0  0  0  0  0  0  0  0  0
    3.0702   -0.1352   -4.0486 H   0  0  0  0  0  0  0  0  0  0  0  0
    3.8653   -0.2380   -1.9141 H   0  0  0  0  0  0  0  0  0  0  0  0
    5.3867   -0.7990   -2.5609 H   0  0  0  0  0  0  0  0  0  0  0  0
    4.5303   -6.5754    2.6988 H   0  0  0  0  0  0  0  0  0  0  0  0
  1  2  2  0
  2 11  1  0
  2  3  1  0
  4  3  1  6
  4  9  1  0
  4  5  1  0
  4 10  1  0
  5  6  1  0
  5 16  1  0
  5 17  1  0
  6  7  1  0
  6 18  1  0
  6 19  1  0
  7  8  1  0
  7 20  1  0
  7 35  1  0
  8  9  1  0
  8 21  1  0
  8 22  1  0
  9 23  1  0
  9 24  1  0
 11 10  1  1
 10 25  1  0
 10 26  1  0
 11 15  1  0
 11 12  1  0
 12 13  1  0
 12 27  1  0
 12 28  1  0
 13 14  1  0
 13 29  1  0
 13 30  1  0
 14 15  1  0
 14 31  1  0
 14 32  1  0
 15 33  1  0
 15 34  1  0
M  CHG  1   7   1
M  END
>  <i_m_ct_stereo_status>  (202) 
1

>  <s_m_source_file>  (202) 
/var/tmp/pbs.5076255.sched01/tmpy0mqr2dw/78t3ouse6d.sdf

>  <i_m_source_file_index>  (202) 
6

>  <i_lp_mmshare_version>  (202) 
48012

>  <i_f3d_flags>  (202) 
0

>  <s_epik_input>  (202) 
W0NIMl0xW0NIMl1bQ0gyXVtDSDJdQzEoW0NIMl0yKUMoPU8pT0MyM1tDSDJdW0NIMl1bTkhdW0NIMl1bQ0gyXTM=

>  <s_epik_cmdline>  (202) 
J2VwaWtfcHl0aG9uJywgJy1waHQnLCAnMi4wJywgJy1waCcsICc3LjAnLCAnLXRuJywgJzgnLCAnLW1hJywgJzIwMCcsICctaW1hZScsICc8aW5maWxlLm1hZT4nLCAnLW9tYWUnLCAnPG91dGZpbGUubWFlPic=

>  <r_epik_Ionization_Penalty>  (202) 
0.00167805

>  <r_epik_Ionization_Penalty_Charging>  (202) 
0.00167805

>  <r_epik_Ionization_Penalty_Neutral>  (202) 
0

>  <r_epik_State_Penalty>  (202) 
0.00113275

>  <r_epik_Charging_Adjusted_Penalty>  (202) 
0.0028108

>  <i_epik_Tot_Q>  (202) 
1

>  <i_epik_Tot_abs_Q>  (202) 
1

>  <s_epik_Chemistry_Notes>  (202) 
This compound has an ester and may undergo hydrolysis at high or low pH.

>  <s_lp_Force_Field>  (202) 
OPLS3e

>  <r_lp_Energy>  (202) 
24.4433

>  <b_lp_Chiralities_Consistent>  (202) 
1

>  <s_lp_Variant>  (202) 
63:0-1

>  <s_i_glide_gridfile>  (202) 
pfpi4k_grid

>  <i_i_glide_lignum>  (202) 
6

>  <i_i_glide_rotatable_bonds>  (202) 
0

>  <r_i_docking_score>  (202) 
-4.08135

>  <r_i_glide_ligand_efficiency>  (202) 
-0.27209

>  <r_i_glide_ligand_efficiency_sa>  (202) 
-0.671031

>  <r_i_glide_ligand_efficiency_ln>  (202) 
-1.10067

>  <r_i_glide_gscore>  (202) 
-4.08135

>  <r_i_glide_lipo>  (202) 
-0.409563

>  <r_i_glide_hbond>  (202) 
0

>  <r_i_glide_metal>  (202) 
-0

>  <r_i_glide_rewards>  (202) 
-2.15904

>  <r_i_glide_evdw>  (202) 
-22.0501

>  <r_i_glide_ecoul>  (202) 
-2.73491

>  <r_i_glide_erotb>  (202) 
0

>  <r_i_glide_esite>  (202) 
0

>  <r_i_glide_emodel>  (202) 
-31.7555

>  <r_i_glide_energy>  (202) 
-24.785

>  <r_i_glide_einternal>  (202) 
0

>  <r_i_glide_intrahb_reward>  (202) 
-0

>  <i_i_glide_confnum>  (202) 
2

>  <i_i_glide_posenum>  (202) 
40

>  <r_i_glide_eff_state_penalty>  (202) 
0

>  <ligand_id>  (202) 
63

>  <original_smiles>  (202) 
O=C1OC2(CCNCC2)CC12CCCC2

>  <smiles>  (202) 
[H]C1([H])C([H])([H])C([H])([H])C2(C(=O)OC3(C2([H])[H])C([H])([H])C([H])([H])[N+]([H])([H])C([H])([H])C3([H])[H])C1([H])[H]

$$$$
63:0:2
     RDKit          3D

 35 37  0  0  1  0  0  0  0  0999 V2000
    6.8751   -2.3956   -0.9161 O   0  0  0  0  0  0  0  0  0  0  0  0
    5.9127   -2.9912   -0.4071 C   0  0  0  0  0  0  0  0  0  0  0  0
    5.9066   -3.9530    0.5580 O   0  0  0  0  0  0  0  0  0  0  0  0
    4.6050   -4.4309    0.9054 C   0  0  1  0  0  0  0  0  0  0  0  0
    4.3881   -5.8069    0.2257 C   0  0  0  0  0  0  0  0  0  0  0  0
    5.2255   -6.9091    0.8917 C   0  0  0  0  0  0  0  0  0  0  0  0
    4.9434   -6.9663    2.3390 N   0  0  0  0  0  0  0  0  0  0  0  0
    5.2840   -5.6940    3.0101 C   0  0  0  0  0  0  0  0  0  0  0  0
    4.4606   -4.5413    2.4257 C   0  0  0  0  0  0  0  0  0  0  0  0
    3.6818   -3.3264    0.3795 C   0  0  0  0  0  0  0  0  0  0  0  0
    4.4404   -2.6874   -0.7850 C   0  0  2  0  0  0  0  0  0  0  0  0
    4.0435   -3.3276   -2.1171 C   0  0  0  0  0  0  0  0  0  0  0  0
    4.3204   -2.2793   -3.1827 C   0  0  0  0  0  0  0  0  0  0  0  0
    4.2031   -0.9189   -2.4832 C   0  0  0  0  0  0  0  0  0  0  0  0
    4.1443   -1.1950   -0.9726 C   0  0  0  0  0  0  0  0  0  0  0  0
    3.3269   -6.0476    0.3068 H   0  0  0  0  0  0  0  0  0  0  0  0
    4.6279   -5.7915   -0.8410 H   0  0  0  0  0  0  0  0  0  0  0  0
    5.0009   -7.8698    0.4315 H   0  0  0  0  0  0  0  0  0  0  0  0
    6.2905   -6.7188    0.7282 H   0  0  0  0  0  0  0  0  0  0  0  0
    3.9602   -7.1680    2.4686 H   0  0  0  0  0  0  0  0  0  0  0  0
    5.0788   -5.7761    4.0728 H   0  0  0  0  0  0  0  0  0  0  0  0
    6.3492   -5.4838    2.8989 H   0  0  0  0  0  0  0  0  0  0  0  0
    4.7134   -3.5941    2.9103 H   0  0  0  0  0  0  0  0  0  0  0  0
    3.4039   -4.7167    2.6146 H   0  0  0  0  0  0  0  0  0  0  0  0
    2.7033   -3.7354    0.0901 H   0  0  0  0  0  0  0  0  0  0  0  0
    3.5089   -2.5656    1.1509 H   0  0  0  0  0  0  0  0  0  0  0  0
    4.5869   -4.2380   -2.3515 H   0  0  0  0  0  0  0  0  0  0  0  0
    2.9726   -3.5705   -2.1308 H   0  0  0  0  0  0  0  0  0  0  0  0
    5.3326   -2.4254   -3.5553 H   0  0  0  0  0  0  0  0  0  0  0  0
    3.6289   -2.3808   -4.0187 H   0  0  0  0  0  0  0  0  0  0  0  0
    5.0611   -0.2871   -2.7157 H   0  0  0  0  0  0  0  0  0  0  0  0
    3.3132   -0.3823   -2.8049 H   0  0  0  0  0  0  0  0  0  0  0  0
    3.1381   -0.9435   -0.6065 H   0  0  0  0  0  0  0  0  0  0  0  0
    4.8254   -0.5428   -0.4274 H   0  0  0  0  0  0  0  0  0  0  0  0
    5.4856   -7.7140    2.7459 H   0  0  0  0  0  0  0  0  0  0  0  0
  1  2  2  0
  2 11  1  0
  2  3  1  0
  4  3  1  1
  4  9  1  0
  4  5  1  0
  4 10  1  0
  5  6  1  0
  5 16  1  0
  5 17  1  0
  6  7  1  0
  6 18  1  0
  6 19  1  0
  7  8  1  0
  7 20  1  0
  7 35  1  0
  8  9  1  0
  8 21  1  0
  8 22  1  0
  9 23  1  0
  9 24  1  0
 11 10  1  1
 10 25  1  0
 10 26  1  0
 11 15  1  0
 11 12  1  0
 12 13  1  0
 12 27  1  0
 12 28  1  0
 13 14  1  0
 13 29  1  0
 13 30  1  0
 14 15  1  0
 14 31  1  0
 14 32  1  0
 15 33  1  0
 15 34  1  0
M  CHG  1   7   1
M  END
>  <i_m_ct_stereo_status>  (203) 
1

>  <s_m_source_file>  (203) 
/var/tmp/pbs.5076255.sched01/tmpy0mqr2dw/78t3ouse6d.sdf

>  <i_m_source_file_index>  (203) 
6

>  <i_lp_mmshare_version>  (203) 
48012

>  <i_f3d_flags>  (203) 
0

>  <s_epik_input>  (203) 
W0NIMl0xW0NIMl1bQ0gyXVtDSDJdQzEoW0NIMl0yKUMoPU8pT0MyM1tDSDJdW0NIMl1bTkhdW0NIMl1bQ0gyXTM=

>  <s_epik_cmdline>  (203) 
J2VwaWtfcHl0aG9uJywgJy1waHQnLCAnMi4wJywgJy1waCcsICc3LjAnLCAnLXRuJywgJzgnLCAnLW1hJywgJzIwMCcsICctaW1hZScsICc8aW5maWxlLm1hZT4nLCAnLW9tYWUnLCAnPG91dGZpbGUubWFlPic=

>  <r_epik_Ionization_Penalty>  (203) 
0.00167805

>  <r_epik_Ionization_Penalty_Charging>  (203) 
0.00167805

>  <r_epik_Ionization_Penalty_Neutral>  (203) 
0

>  <r_epik_State_Penalty>  (203) 
0.00113275

>  <r_epik_Charging_Adjusted_Penalty>  (203) 
0.0028108

>  <i_epik_Tot_Q>  (203) 
1

>  <i_epik_Tot_abs_Q>  (203) 
1

>  <s_epik_Chemistry_Notes>  (203) 
This compound has an ester and may undergo hydrolysis at high or low pH.

>  <s_lp_Force_Field>  (203) 
OPLS3e

>  <r_lp_Energy>  (203) 
24.4433

>  <b_lp_Chiralities_Consistent>  (203) 
1

>  <s_lp_Variant>  (203) 
63:0-1

>  <s_i_glide_gridfile>  (203) 
pfpi4k_grid

>  <i_i_glide_lignum>  (203) 
6

>  <i_i_glide_rotatable_bonds>  (203) 
0

>  <r_i_docking_score>  (203) 
-3.94998

>  <r_i_glide_ligand_efficiency>  (203) 
-0.263332

>  <r_i_glide_ligand_efficiency_sa>  (203) 
-0.649433

>  <r_i_glide_ligand_efficiency_ln>  (203) 
-1.06524

>  <r_i_glide_gscore>  (203) 
-3.94998

>  <r_i_glide_lipo>  (203) 
-0.317566

>  <r_i_glide_hbond>  (203) 
-0.119214

>  <r_i_glide_metal>  (203) 
-0

>  <r_i_glide_rewards>  (203) 
-2.02046

>  <r_i_glide_evdw>  (203) 
-19.5697

>  <r_i_glide_ecoul>  (203) 
-3.42839

>  <r_i_glide_erotb>  (203) 
0

>  <r_i_glide_esite>  (203) 
0

>  <r_i_glide_emodel>  (203) 
-29.7797

>  <r_i_glide_energy>  (203) 
-22.9981

>  <r_i_glide_einternal>  (203) 
0

>  <r_i_glide_intrahb_reward>  (203) 
-0

>  <i_i_glide_confnum>  (203) 
2

>  <i_i_glide_posenum>  (203) 
3

>  <r_i_glide_eff_state_penalty>  (203) 
0

>  <ligand_id>  (203) 
63

>  <original_smiles>  (203) 
O=C1OC2(CCNCC2)CC12CCCC2

>  <smiles>  (203) 
[H]C1([H])C([H])([H])C([H])([H])C2(C(=O)OC3(C2([H])[H])C([H])([H])C([H])([H])[N+]([H])([H])C([H])([H])C3([H])[H])C1([H])[H]

$$$$
64:0:0
     RDKit          3D

 68 75  0  0  1  0  0  0  0  0999 V2000
    2.9482   -5.1421    7.6106 C   0  0  0  0  0  0  0  0  0  0  0  0
    3.5266   -4.2171    6.5614 C   0  0  0  0  0  0  0  0  0  0  0  0
    2.7641   -3.3561    5.8623 C   0  0  0  0  0  0  0  0  0  0  0  0
    3.2970   -2.4172    4.7838 C   0  0  2  0  0  0  0  0  0  0  0  0
    3.4863   -0.9979    5.4175 C   0  0  2  0  0  0  0  0  0  0  0  0
    2.2643   -0.0987    5.6125 C   0  0  0  0  0  0  0  0  0  0  0  0
    1.3526   -0.3078    6.3896 O   0  0  0  0  0  0  0  0  0  0  0  0
    2.3653    1.0975    4.6788 C   0  0  0  0  0  0  0  0  0  0  0  0
    3.3933    0.6219    3.6299 C   0  0  2  0  0  0  0  0  0  0  0  0
    2.6498   -0.0590    2.4463 C   0  0  1  0  0  0  0  0  0  0  0  0
    3.4725   -0.1353    1.3068 O   0  0  0  0  0  0  0  0  0  0  0  0
    1.8541   -1.3530    2.7533 C   0  0  0  0  0  0  0  0  0  0  0  0
    0.6452   -1.3292    2.5728 O   0  0  0  0  0  0  0  0  0  0  0  0
    2.4713   -2.6010    3.4280 C   0  0  1  0  0  0  0  0  0  0  0  0
    3.3305   -3.4685    2.4442 C   0  0  1  0  0  0  0  0  0  0  0  0
    3.9008   -2.7206    1.3560 O   0  0  0  0  0  0  0  0  0  0  0  0
    4.0060   -3.4719    0.1455 C   0  0  0  0  0  0  0  0  0  0  0  0
    2.8743   -3.0767   -0.8116 C   0  0  0  0  0  0  0  0  0  0  0  0
    3.0179   -2.6294   -2.0635 C   0  0  0  0  0  0  0  0  0  0  0  0
    4.3504   -2.4705   -2.6672 C   0  0  0  0  0  0  0  0  0  0  0  0
    4.4840   -2.1022   -3.8267 O   0  0  0  0  0  0  0  0  0  0  0  0
    5.5136   -2.7640   -1.8038 C   0  0  0  0  0  0  0  0  0  0  0  0
    5.3533   -3.2160   -0.5516 C   0  0  0  0  0  0  0  0  0  0  0  0
    3.8242   -4.9118    0.6925 C   0  0  1  0  0  0  0  0  0  0  0  0
    5.1176   -5.4571    1.3901 C   0  0  0  0  0  0  0  0  0  0  0  0
    5.6560   -4.5144    2.5030 C   0  0  0  0  0  0  0  0  0  0  0  0
    4.4969   -3.9228    3.3193 C   0  0  1  0  0  0  0  0  0  0  0  0
    4.7263   -2.7756    4.3389 C   0  0  2  0  0  0  0  0  0  0  0  0
    5.6119   -3.1845    5.5444 C   0  0  0  0  0  0  0  0  0  0  0  0
    5.0261   -4.3365    6.3620 C   0  0  0  0  0  0  0  0  0  0  0  0
    5.1161   -1.3860    3.7505 C   0  0  0  0  0  0  0  0  0  0  0  0
    5.8306   -1.2035    2.8040 O   0  0  0  0  0  0  0  0  0  0  0  0
    4.4024   -0.2359    4.4710 C   0  0  2  0  0  0  0  0  0  0  0  0
    5.4182    0.6426    5.2000 C   0  0  0  0  0  0  0  0  0  0  0  0
    2.7071   -4.6789    1.7261 C   0  0  1  0  0  0  0  0  0  0  0  0
    2.2469   -5.9036    2.5476 C   0  0  0  0  0  0  0  0  0  0  0  0
    3.1942   -6.1789    7.3743 H   0  0  0  0  0  0  0  0  0  0  0  0
    1.8614   -5.0470    7.6553 H   0  0  0  0  0  0  0  0  0  0  0  0
    3.3562   -4.9073    8.5948 H   0  0  0  0  0  0  0  0  0  0  0  0
    1.6977   -3.3018    6.0472 H   0  0  0  0  0  0  0  0  0  0  0  0
    3.9704   -1.0903    6.3849 H   0  0  0  0  0  0  0  0  0  0  0  0
    1.4056    1.3955    4.2546 H   0  0  0  0  0  0  0  0  0  0  0  0
    2.7735    1.9430    5.2345 H   0  0  0  0  0  0  0  0  0  0  0  0
    3.8790    1.5111    3.2343 H   0  0  0  0  0  0  0  0  0  0  0  0
    1.8756    0.6531    2.1440 H   0  0  0  0  0  0  0  0  0  0  0  0
    4.0687   -0.8700    1.4093 H   0  0  0  0  0  0  0  0  0  0  0  0
    1.6136   -3.2147    3.6938 H   0  0  0  0  0  0  0  0  0  0  0  0
    1.8665   -3.1061   -0.4259 H   0  0  0  0  0  0  0  0  0  0  0  0
    2.1654   -2.3292   -2.6561 H   0  0  0  0  0  0  0  0  0  0  0  0
    6.4927   -2.5874   -2.2227 H   0  0  0  0  0  0  0  0  0  0  0  0
    6.2401   -3.3923    0.0347 H   0  0  0  0  0  0  0  0  0  0  0  0
    3.5121   -5.6068   -0.0899 H   0  0  0  0  0  0  0  0  0  0  0  0
    4.9069   -6.4388    1.8179 H   0  0  0  0  0  0  0  0  0  0  0  0
    5.9019   -5.6484    0.6545 H   0  0  0  0  0  0  0  0  0  0  0  0
    6.3144   -5.0887    3.1587 H   0  0  0  0  0  0  0  0  0  0  0  0
    6.2697   -3.7198    2.0938 H   0  0  0  0  0  0  0  0  0  0  0  0
    4.1325   -4.7564    3.9123 H   0  0  0  0  0  0  0  0  0  0  0  0
    6.6145   -3.4888    5.2362 H   0  0  0  0  0  0  0  0  0  0  0  0
    5.7906   -2.3254    6.1870 H   0  0  0  0  0  0  0  0  0  0  0  0
    5.5347   -4.3823    7.3233 H   0  0  0  0  0  0  0  0  0  0  0  0
    5.2234   -5.2823    5.8583 H   0  0  0  0  0  0  0  0  0  0  0  0
    4.9487    1.2823    5.9371 H   0  0  0  0  0  0  0  0  0  0  0  0
    5.9286    1.2925    4.4920 H   0  0  0  0  0  0  0  0  0  0  0  0
    6.1767    0.0541    5.7021 H   0  0  0  0  0  0  0  0  0  0  0  0
    1.8159   -4.3453    1.2198 H   0  0  0  0  0  0  0  0  0  0  0  0
    3.0451   -6.4199    3.0761 H   0  0  0  0  0  0  0  0  0  0  0  0
    1.7846   -6.6428    1.8957 H   0  0  0  0  0  0  0  0  0  0  0  0
    1.5001   -5.6186    3.2849 H   0  0  0  0  0  0  0  0  0  0  0  0
  1  2  1  0
  1 37  1  0
  1 38  1  0
  1 39  1  0
  2 30  1  0
  2  3  2  0
  4  3  1  1
  3 40  1  0
  4 14  1  0
  4 28  1  0
  4  5  1  0
  5 33  1  0
  5  6  1  0
  5 41  1  1
  6  7  2  0
  6  8  1  0
  8  9  1  0
  8 42  1  0
  8 43  1  0
  9 33  1  0
  9 10  1  0
  9 44  1  6
 10 11  1  0
 10 12  1  0
 10 45  1  6
 11 46  1  0
 12 13  2  0
 12 14  1  0
 14 15  1  0
 14 47  1  1
 15 27  1  0
 15 35  1  0
 15 16  1  6
 16 17  1  0
 17 23  1  0
 17 18  1  0
 17 24  1  0
 18 19  2  0
 18 48  1  0
 19 20  1  0
 19 49  1  0
 20 21  2  0
 20 22  1  0
 22 23  2  0
 22 50  1  0
 23 51  1  0
 24 25  1  0
 24 35  1  0
 24 52  1  6
 25 26  1  0
 25 53  1  0
 25 54  1  0
 26 27  1  0
 26 55  1  0
 26 56  1  0
 27 28  1  0
 27 57  1  1
 28 29  1  1
 28 31  1  0
 29 30  1  0
 29 58  1  0
 29 59  1  0
 30 60  1  0
 30 61  1  0
 31 32  2  0
 31 33  1  0
 33 34  1  1
 34 62  1  0
 34 63  1  0
 34 64  1  0
 35 36  1  0
 35 65  1  6
 36 66  1  0
 36 67  1  0
 36 68  1  0
M  END
>  <i_m_ct_stereo_status>  (204) 
1

>  <s_m_source_file>  (204) 
/var/tmp/pbs.5076255.sched01/tmpy0mqr2dw/78t3ouse6d.sdf

>  <i_m_source_file_index>  (204) 
7

>  <i_lp_mmshare_version>  (204) 
48012

>  <i_f3d_flags>  (204) 
0

>  <s_epik_input>  (204) 
W0NIXTE9W0NIXUMoPU8pW0NIXT1bQ0hdQzEoW0NAQEhdKFtDSDJdW0NIMl0yKVtDQEhdM1tDSDNdKU9bQ0BAXTMoW0NAQEhdMltDQEBdNChbQ0BAXTU2NylbQ0gyXVtDSDJdQyhbQ0gzXSk9W0NIXTUpW0NAQEhdN0MoPU8pW0NASF0oW09IXSlbQ0BASF04W0NAQF0oQzQ9TykoW0NIM10pW0NASF02Qyg9TylbQ0gyXTg=

>  <s_epik_cmdline>  (204) 
J2VwaWtfcHl0aG9uJywgJy1waHQnLCAnMi4wJywgJy1waCcsICc3LjAnLCAnLXRuJywgJzgnLCAnLW1hJywgJzIwMCcsICctaW1hZScsICc8aW5maWxlLm1hZT4nLCAnLW9tYWUnLCAnPG91dGZpbGUubWFlPic=

>  <r_lp_tautomer_probability>  (204) 
1

>  <r_epik_Ionization_Penalty>  (204) 
4.66585e-07

>  <r_epik_Ionization_Penalty_Charging>  (204) 
0

>  <r_epik_Ionization_Penalty_Neutral>  (204) 
4.66585e-07

>  <r_epik_State_Penalty>  (204) 
-0

>  <r_epik_Charging_Adjusted_Penalty>  (204) 
0

>  <i_epik_Tot_Q>  (204) 
0

>  <i_epik_Tot_abs_Q>  (204) 
0

>  <s_lp_Force_Field>  (204) 
OPLS3e

>  <r_lp_Energy>  (204) 
66.7552

>  <b_lp_Chiralities_Consistent>  (204) 
1

>  <s_lp_Variant>  (204) 
64:0-1

>  <s_i_glide_gridfile>  (204) 
pfpi4k_grid

>  <i_i_glide_lignum>  (204) 
7

>  <i_i_glide_rotatable_bonds>  (204) 
1

>  <r_i_docking_score>  (204) 
-3.10783

>  <r_i_glide_ligand_efficiency>  (204) 
-0.0863285

>  <r_i_glide_ligand_efficiency_sa>  (204) 
-0.28505

>  <r_i_glide_ligand_efficiency_ln>  (204) 
-0.678044

>  <r_i_glide_gscore>  (204) 
-3.10783

>  <r_i_glide_lipo>  (204) 
-0.332402

>  <r_i_glide_hbond>  (204) 
-0.0671265

>  <r_i_glide_metal>  (204) 
-0

>  <r_i_glide_rewards>  (204) 
-1.33688

>  <r_i_glide_evdw>  (204) 
-26.5775

>  <r_i_glide_ecoul>  (204) 
-0.159516

>  <r_i_glide_erotb>  (204) 
0

>  <r_i_glide_esite>  (204) 
-0.0186152

>  <r_i_glide_emodel>  (204) 
-40.9116

>  <r_i_glide_energy>  (204) 
-26.737

>  <r_i_glide_einternal>  (204) 
1.26119

>  <r_i_glide_intrahb_reward>  (204) 
-1

>  <i_i_glide_confnum>  (204) 
1

>  <i_i_glide_posenum>  (204) 
24

>  <r_i_glide_eff_state_penalty>  (204) 
0

>  <ligand_id>  (204) 
64

>  <original_smiles>  (204) 
CC1=CC23C4C(=O)CC5C(O)C(=O)C2C26OC7(C=CC(=O)C=C7)C(CCC2C3(CC1)C(=O)C54C)C6C

>  <smiles>  (204) 
[H]OC1([H])C(=O)C2([H])C34OC5(C([H])=C([H])C(=O)C([H])=C5[H])C([H])(C([H])([H])C([H])([H])C3([H])C35C(=O)C6(C([H])([H])[H])C([H])(C(=O)C([H])([H])C16[H])C23C([H])=C(C([H])([H])[H])C([H])([H])C5([H])[H])C4([H])C([H])([H])[H]

$$$$
64:0:1
     RDKit          3D

 68 75  0  0  1  0  0  0  0  0999 V2000
    6.1547    0.4924    9.2314 C   0  0  0  0  0  0  0  0  0  0  0  0
    5.0708    1.5211    8.9838 C   0  0  0  0  0  0  0  0  0  0  0  0
    3.7634    1.2475    9.1871 C   0  0  0  0  0  0  0  0  0  0  0  0
    2.6202    2.2292    8.9313 C   0  0  2  0  0  0  0  0  0  0  0  0
    2.2054    2.8793   10.2851 C   0  0  2  0  0  0  0  0  0  0  0  0
    1.3228    2.0948   11.2448 C   0  0  0  0  0  0  0  0  0  0  0  0
    1.6563    1.0725   11.8387 O   0  0  0  0  0  0  0  0  0  0  0  0
   -0.0353    2.7642   11.3426 C   0  0  0  0  0  0  0  0  0  0  0  0
   -0.0641    3.6454   10.0738 C   0  0  2  0  0  0  0  0  0  0  0  0
   -0.6994    2.8262    8.9154 C   0  0  1  0  0  0  0  0  0  0  0  0
   -1.1315    3.6842    7.8799 O   0  0  0  0  0  0  0  0  0  0  0  0
    0.0363    1.5566    8.3923 C   0  0  0  0  0  0  0  0  0  0  0  0
   -0.5874    0.5041    8.3208 O   0  0  0  0  0  0  0  0  0  0  0  0
    1.5317    1.5651    7.9717 C   0  0  1  0  0  0  0  0  0  0  0  0
    1.7435    2.1338    6.5295 C   0  0  1  0  0  0  0  0  0  0  0  0
    0.7298    3.0840    6.1420 O   0  0  0  0  0  0  0  0  0  0  0  0
    0.4306    3.0371    4.7439 C   0  0  0  0  0  0  0  0  0  0  0  0
   -0.8895    2.2767    4.5231 C   0  0  0  0  0  0  0  0  0  0  0  0
   -1.9652    2.7544    3.8735 C   0  0  0  0  0  0  0  0  0  0  0  0
   -1.9687    4.1036    3.3021 C   0  0  0  0  0  0  0  0  0  0  0  0
   -2.9553    4.5492    2.7164 O   0  0  0  0  0  0  0  0  0  0  0  0
   -0.7821    4.9350    3.5311 C   0  0  0  0  0  0  0  0  0  0  0  0
    0.2969    4.4520    4.1758 C   0  0  0  0  0  0  0  0  0  0  0  0
    1.6550    2.2567    4.2130 C   0  0  1  0  0  0  0  0  0  0  0  0
    2.9461    3.1401    4.1233 C   0  0  0  0  0  0  0  0  0  0  0  0
    3.3014    3.8524    5.4574 C   0  0  0  0  0  0  0  0  0  0  0  0
    3.0458    2.9221    6.6549 C   0  0  1  0  0  0  0  0  0  0  0  0
    3.0768    3.4533    8.1069 C   0  0  2  0  0  0  0  0  0  0  0  0
    4.4754    3.9718    8.5217 C   0  0  0  0  0  0  0  0  0  0  0  0
    5.5557    2.8727    8.4734 C   0  0  0  0  0  0  0  0  0  0  0  0
    1.9693    4.4549    8.5180 C   0  0  0  0  0  0  0  0  0  0  0  0
    1.5825    5.3911    7.8259 O   0  0  0  0  0  0  0  0  0  0  0  0
    1.4175    4.1343    9.9220 C   0  0  2  0  0  0  0  0  0  0  0  0
    1.7055    5.3090   10.8800 C   0  0  0  0  0  0  0  0  0  0  0  0
    1.7901    1.1895    5.3154 C   0  0  1  0  0  0  0  0  0  0  0  0
    2.9660    0.1982    5.1793 C   0  0  0  0  0  0  0  0  0  0  0  0
    6.7466    0.3417    8.3281 H   0  0  0  0  0  0  0  0  0  0  0  0
    5.7269   -0.4670    9.5239 H   0  0  0  0  0  0  0  0  0  0  0  0
    6.8205    0.8261   10.0274 H   0  0  0  0  0  0  0  0  0  0  0  0
    3.4704    0.2692    9.5483 H   0  0  0  0  0  0  0  0  0  0  0  0
    3.0990    3.1570   10.8447 H   0  0  0  0  0  0  0  0  0  0  0  0
   -0.8603    2.0494   11.4154 H   0  0  0  0  0  0  0  0  0  0  0  0
   -0.0536    3.3804   12.2412 H   0  0  0  0  0  0  0  0  0  0  0  0
   -0.7197    4.4972   10.2662 H   0  0  0  0  0  0  0  0  0  0  0  0
   -1.6371    2.4365    9.3186 H   0  0  0  0  0  0  0  0  0  0  0  0
   -0.3623    3.9961    7.4134 H   0  0  0  0  0  0  0  0  0  0  0  0
    1.7960    0.5112    7.9165 H   0  0  0  0  0  0  0  0  0  0  0  0
   -0.9704    1.2866    4.9495 H   0  0  0  0  0  0  0  0  0  0  0  0
   -2.8694    2.1631    3.7681 H   0  0  0  0  0  0  0  0  0  0  0  0
   -0.7841    5.9420    3.1412 H   0  0  0  0  0  0  0  0  0  0  0  0
    1.1280    5.1303    4.3041 H   0  0  0  0  0  0  0  0  0  0  0  0
    1.4528    1.8095    3.2390 H   0  0  0  0  0  0  0  0  0  0  0  0
    3.7848    2.5131    3.8211 H   0  0  0  0  0  0  0  0  0  0  0  0
    2.8583    3.8733    3.3190 H   0  0  0  0  0  0  0  0  0  0  0  0
    4.3471    4.1506    5.4321 H   0  0  0  0  0  0  0  0  0  0  0  0
    2.7403    4.7758    5.5747 H   0  0  0  0  0  0  0  0  0  0  0  0
    3.8416    2.1908    6.5900 H   0  0  0  0  0  0  0  0  0  0  0  0
    4.7694    4.8177    7.8978 H   0  0  0  0  0  0  0  0  0  0  0  0
    4.4352    4.3678    9.5351 H   0  0  0  0  0  0  0  0  0  0  0  0
    6.4228    3.1892    9.0534 H   0  0  0  0  0  0  0  0  0  0  0  0
    5.8997    2.7360    7.4483 H   0  0  0  0  0  0  0  0  0  0  0  0
    1.6415    5.0110   11.9240 H   0  0  0  0  0  0  0  0  0  0  0  0
    0.9927    6.1179   10.7279 H   0  0  0  0  0  0  0  0  0  0  0  0
    2.7003    5.7193   10.7207 H   0  0  0  0  0  0  0  0  0  0  0  0
    0.9100    0.5539    5.3342 H   0  0  0  0  0  0  0  0  0  0  0  0
    3.9436    0.6651    5.0749 H   0  0  0  0  0  0  0  0  0  0  0  0
    2.8265   -0.4252    4.2968 H   0  0  0  0  0  0  0  0  0  0  0  0
    3.0123   -0.4699    6.0387 H   0  0  0  0  0  0  0  0  0  0  0  0
  1  2  1  0
  1 37  1  0
  1 38  1  0
  1 39  1  0
  2 30  1  0
  2  3  2  0
  4  3  1  1
  3 40  1  0
  4 14  1  0
  4 28  1  0
  4  5  1  0
  5 33  1  0
  5  6  1  0
  5 41  1  1
  6  7  2  0
  6  8  1  0
  8  9  1  0
  8 42  1  0
  8 43  1  0
  9 33  1  0
  9 10  1  0
  9 44  1  1
 10 11  1  0
 10 12  1  0
 10 45  1  1
 11 46  1  0
 12 13  2  0
 12 14  1  0
 14 15  1  0
 14 47  1  6
 15 27  1  0
 15 35  1  0
 15 16  1  6
 16 17  1  0
 17 23  1  0
 17 18  1  0
 17 24  1  0
 18 19  2  0
 18 48  1  0
 19 20  1  0
 19 49  1  0
 20 21  2  0
 20 22  1  0
 22 23  2  0
 22 50  1  0
 23 51  1  0
 24 25  1  0
 24 35  1  0
 24 52  1  6
 25 26  1  0
 25 53  1  0
 25 54  1  0
 26 27  1  0
 26 55  1  0
 26 56  1  0
 27 28  1  0
 27 57  1  1
 28 29  1  1
 28 31  1  0
 29 30  1  0
 29 58  1  0
 29 59  1  0
 30 60  1  0
 30 61  1  0
 31 32  2  0
 31 33  1  0
 33 34  1  1
 34 62  1  0
 34 63  1  0
 34 64  1  0
 35 36  1  0
 35 65  1  1
 36 66  1  0
 36 67  1  0
 36 68  1  0
M  END
>  <i_m_ct_stereo_status>  (205) 
1

>  <s_m_source_file>  (205) 
/var/tmp/pbs.5076255.sched01/tmpy0mqr2dw/78t3ouse6d.sdf

>  <i_m_source_file_index>  (205) 
7

>  <i_lp_mmshare_version>  (205) 
48012

>  <i_f3d_flags>  (205) 
0

>  <s_epik_input>  (205) 
W0NIXTE9W0NIXUMoPU8pW0NIXT1bQ0hdQzEoW0NAQEhdKFtDSDJdW0NIMl0yKVtDQEhdM1tDSDNdKU9bQ0BAXTMoW0NAQEhdMltDQEBdNChbQ0BAXTU2NylbQ0gyXVtDSDJdQyhbQ0gzXSk9W0NIXTUpW0NAQEhdN0MoPU8pW0NASF0oW09IXSlbQ0BASF04W0NAQF0oQzQ9TykoW0NIM10pW0NASF02Qyg9TylbQ0gyXTg=

>  <s_epik_cmdline>  (205) 
J2VwaWtfcHl0aG9uJywgJy1waHQnLCAnMi4wJywgJy1waCcsICc3LjAnLCAnLXRuJywgJzgnLCAnLW1hJywgJzIwMCcsICctaW1hZScsICc8aW5maWxlLm1hZT4nLCAnLW9tYWUnLCAnPG91dGZpbGUubWFlPic=

>  <r_lp_tautomer_probability>  (205) 
1

>  <r_epik_Ionization_Penalty>  (205) 
4.66585e-07

>  <r_epik_Ionization_Penalty_Charging>  (205) 
0

>  <r_epik_Ionization_Penalty_Neutral>  (205) 
4.66585e-07

>  <r_epik_State_Penalty>  (205) 
-0

>  <r_epik_Charging_Adjusted_Penalty>  (205) 
0

>  <i_epik_Tot_Q>  (205) 
0

>  <i_epik_Tot_abs_Q>  (205) 
0

>  <s_lp_Force_Field>  (205) 
OPLS3e

>  <r_lp_Energy>  (205) 
66.7552

>  <b_lp_Chiralities_Consistent>  (205) 
1

>  <s_lp_Variant>  (205) 
64:0-1

>  <s_i_glide_gridfile>  (205) 
pfpi4k_grid

>  <i_i_glide_lignum>  (205) 
7

>  <i_i_glide_rotatable_bonds>  (205) 
1

>  <r_i_docking_score>  (205) 
-2.38441

>  <r_i_glide_ligand_efficiency>  (205) 
-0.0662337

>  <r_i_glide_ligand_efficiency_sa>  (205) 
-0.218699

>  <r_i_glide_ligand_efficiency_ln>  (205) 
-0.520214

>  <r_i_glide_gscore>  (205) 
-2.38441

>  <r_i_glide_lipo>  (205) 
-2.85362e-05

>  <r_i_glide_hbond>  (205) 
-0.117381

>  <r_i_glide_metal>  (205) 
-0

>  <r_i_glide_rewards>  (205) 
-0.577922

>  <r_i_glide_evdw>  (205) 
-18.7559

>  <r_i_glide_ecoul>  (205) 
-4.27417

>  <r_i_glide_erotb>  (205) 
0

>  <r_i_glide_esite>  (205) 
-0.11016

>  <r_i_glide_emodel>  (205) 
-31.2708

>  <r_i_glide_energy>  (205) 
-23.0301

>  <r_i_glide_einternal>  (205) 
1.24324

>  <r_i_glide_intrahb_reward>  (205) 
-0.5

>  <i_i_glide_confnum>  (205) 
2

>  <i_i_glide_posenum>  (205) 
32

>  <r_i_glide_eff_state_penalty>  (205) 
0

>  <ligand_id>  (205) 
64

>  <original_smiles>  (205) 
CC1=CC23C4C(=O)CC5C(O)C(=O)C2C26OC7(C=CC(=O)C=C7)C(CCC2C3(CC1)C(=O)C54C)C6C

>  <smiles>  (205) 
[H]OC1([H])C(=O)C2([H])C34OC5(C([H])=C([H])C(=O)C([H])=C5[H])C([H])(C([H])([H])C([H])([H])C3([H])C35C(=O)C6(C([H])([H])[H])C([H])(C(=O)C([H])([H])C16[H])C23C([H])=C(C([H])([H])[H])C([H])([H])C5([H])[H])C4([H])C([H])([H])[H]

$$$$
64:0:2
     RDKit          3D

 68 75  0  0  1  0  0  0  0  0999 V2000
    6.0842    5.7433    8.4830 C   0  0  0  0  0  0  0  0  0  0  0  0
    4.6124    5.9579    8.1900 C   0  0  0  0  0  0  0  0  0  0  0  0
    3.6713    5.0654    8.5568 C   0  0  0  0  0  0  0  0  0  0  0  0
    2.1776    5.2084    8.2688 C   0  0  2  0  0  0  0  0  0  0  0  0
    1.4726    5.7678    9.5395 C   0  0  2  0  0  0  0  0  0  0  0  0
    1.1619    4.8231   10.6905 C   0  0  0  0  0  0  0  0  0  0  0  0
    2.0005    4.2723   11.3986 O   0  0  0  0  0  0  0  0  0  0  0  0
   -0.3396    4.6551   10.8167 C   0  0  0  0  0  0  0  0  0  0  0  0
   -0.8445    5.1272    9.4347 C   0  0  2  0  0  0  0  0  0  0  0  0
   -0.9164    3.8868    8.4945 C   0  0  1  0  0  0  0  0  0  0  0  0
   -1.7362    4.1442    7.3749 O   0  0  0  0  0  0  0  0  0  0  0  0
    0.3992    3.1512    8.1092 C   0  0  0  0  0  0  0  0  0  0  0  0
    0.4590    1.9331    8.2682 O   0  0  0  0  0  0  0  0  0  0  0  0
    1.6345    3.8976    7.5385 C   0  0  1  0  0  0  0  0  0  0  0  0
    1.4971    4.2186    6.0125 C   0  0  1  0  0  0  0  0  0  0  0  0
    0.1305    4.3904    5.5810 O   0  0  0  0  0  0  0  0  0  0  0  0
   -0.0868    3.9313    4.2437 C   0  0  0  0  0  0  0  0  0  0  0  0
   -0.7685    2.5604    4.2803 C   0  0  0  0  0  0  0  0  0  0  0  0
   -1.9382    2.2541    3.6862 C   0  0  0  0  0  0  0  0  0  0  0  0
   -2.6912    3.2543    2.9186 C   0  0  0  0  0  0  0  0  0  0  0  0
   -3.7402    2.9824    2.3370 O   0  0  0  0  0  0  0  0  0  0  0  0
   -2.1476    4.6044    2.8802 C   0  0  0  0  0  0  0  0  0  0  0  0
   -0.9816    4.9166    3.4787 C   0  0  0  0  0  0  0  0  0  0  0  0
    1.3683    3.8512    3.7237 C   0  0  1  0  0  0  0  0  0  0  0  0
    1.9641    5.2561    3.3706 C   0  0  0  0  0  0  0  0  0  0  0  0
    1.8640    6.2761    4.5377 C   0  0  0  0  0  0  0  0  0  0  0  0
    2.1542    5.5910    5.8835 C   0  0  1  0  0  0  0  0  0  0  0  0
    1.8860    6.3111    7.2260 C   0  0  2  0  0  0  0  0  0  0  0  0
    2.7719    7.5681    7.4156 C   0  0  0  0  0  0  0  0  0  0  0  0
    4.2786    7.2392    7.4332 C   0  0  0  0  0  0  0  0  0  0  0  0
    0.4102    6.6119    7.5831 C   0  0  0  0  0  0  0  0  0  0  0  0
   -0.4296    7.0436    6.7943 O   0  0  0  0  0  0  0  0  0  0  0  0
    0.1246    6.3053    9.0672 C   0  0  2  0  0  0  0  0  0  0  0  0
   -0.2815    7.5989    9.8025 C   0  0  0  0  0  0  0  0  0  0  0  0
    2.0588    3.2462    4.9614 C   0  0  1  0  0  0  0  0  0  0  0  0
    3.5847    3.0408    4.8715 C   0  0  0  0  0  0  0  0  0  0  0  0
    6.6664    5.7755    7.5609 H   0  0  0  0  0  0  0  0  0  0  0  0
    6.2517    4.7759    8.9587 H   0  0  0  0  0  0  0  0  0  0  0  0
    6.4548    6.5198    9.1529 H   0  0  0  0  0  0  0  0  0  0  0  0
    3.9597    4.1674    9.0908 H   0  0  0  0  0  0  0  0  0  0  0  0
    2.0667    6.5797    9.9596 H   0  0  0  0  0  0  0  0  0  0  0  0
   -0.6333    3.6354   11.0786 H   0  0  0  0  0  0  0  0  0  0  0  0
   -0.6922    5.3153   11.6077 H   0  0  0  0  0  0  0  0  0  0  0  0
   -1.8622    5.5068    9.5564 H   0  0  0  0  0  0  0  0  0  0  0  0
   -1.4908    3.1405    9.0464 H   0  0  0  0  0  0  0  0  0  0  0  0
   -1.2260    4.6447    6.7543 H   0  0  0  0  0  0  0  0  0  0  0  0
    2.4363    3.1648    7.6154 H   0  0  0  0  0  0  0  0  0  0  0  0
   -0.2931    1.7762    4.8522 H   0  0  0  0  0  0  0  0  0  0  0  0
   -2.3586    1.2705    3.7751 H   0  0  0  0  0  0  0  0  0  0  0  0
   -2.7236    5.3436    2.3397 H   0  0  0  0  0  0  0  0  0  0  0  0
   -0.6147    5.9283    3.3848 H   0  0  0  0  0  0  0  0  0  0  0  0
    1.4480    3.1968    2.8534 H   0  0  0  0  0  0  0  0  0  0  0  0
    3.0086    5.1391    3.0800 H   0  0  0  0  0  0  0  0  0  0  0  0
    1.4845    5.6615    2.4773 H   0  0  0  0  0  0  0  0  0  0  0  0
    2.5742    7.0800    4.3646 H   0  0  0  0  0  0  0  0  0  0  0  0
    0.8898    6.7555    4.5628 H   0  0  0  0  0  0  0  0  0  0  0  0
    3.2211    5.4072    5.8560 H   0  0  0  0  0  0  0  0  0  0  0  0
    2.5561    8.3130    6.6461 H   0  0  0  0  0  0  0  0  0  0  0  0
    2.5178    8.0581    8.3544 H   0  0  0  0  0  0  0  0  0  0  0  0
    4.8253    8.0737    7.8698 H   0  0  0  0  0  0  0  0  0  0  0  0
    4.6439    7.1274    6.4120 H   0  0  0  0  0  0  0  0  0  0  0  0
   -0.1706    7.5097   10.8796 H   0  0  0  0  0  0  0  0  0  0  0  0
   -1.3200    7.8527    9.6031 H   0  0  0  0  0  0  0  0  0  0  0  0
    0.3242    8.4446    9.4876 H   0  0  0  0  0  0  0  0  0  0  0  0
    1.6726    2.2519    5.1609 H   0  0  0  0  0  0  0  0  0  0  0  0
    4.1454    3.9321    4.5970 H   0  0  0  0  0  0  0  0  0  0  0  0
    3.8106    2.2957    4.1103 H   0  0  0  0  0  0  0  0  0  0  0  0
    3.9902    2.6701    5.8117 H   0  0  0  0  0  0  0  0  0  0  0  0
  1  2  1  0
  1 37  1  0
  1 38  1  0
  1 39  1  0
  2 30  1  0
  2  3  2  0
  4  3  1  1
  3 40  1  0
  4 14  1  0
  4 28  1  0
  4  5  1  0
  5 33  1  0
  5  6  1  0
  5 41  1  1
  6  7  2  0
  6  8  1  0
  8  9  1  0
  8 42  1  0
  8 43  1  0
  9 33  1  0
  9 10  1  0
  9 44  1  1
 10 11  1  0
 10 12  1  0
 10 45  1  1
 11 46  1  0
 12 13  2  0
 12 14  1  0
 14 15  1  0
 14 47  1  6
 15 27  1  0
 15 35  1  0
 15 16  1  6
 16 17  1  0
 17 23  1  0
 17 18  1  0
 17 24  1  0
 18 19  2  0
 18 48  1  0
 19 20  1  0
 19 49  1  0
 20 21  2  0
 20 22  1  0
 22 23  2  0
 22 50  1  0
 23 51  1  0
 24 25  1  0
 24 35  1  0
 24 52  1  6
 25 26  1  0
 25 53  1  0
 25 54  1  0
 26 27  1  0
 26 55  1  0
 26 56  1  0
 27 28  1  0
 27 57  1  6
 28 29  1  1
 28 31  1  0
 29 30  1  0
 29 58  1  0
 29 59  1  0
 30 60  1  0
 30 61  1  0
 31 32  2  0
 31 33  1  0
 33 34  1  1
 34 62  1  0
 34 63  1  0
 34 64  1  0
 35 36  1  0
 35 65  1  1
 36 66  1  0
 36 67  1  0
 36 68  1  0
M  END
>  <i_m_ct_stereo_status>  (206) 
1

>  <s_m_source_file>  (206) 
/var/tmp/pbs.5076255.sched01/tmpy0mqr2dw/78t3ouse6d.sdf

>  <i_m_source_file_index>  (206) 
7

>  <i_lp_mmshare_version>  (206) 
48012

>  <i_f3d_flags>  (206) 
0

>  <s_epik_input>  (206) 
W0NIXTE9W0NIXUMoPU8pW0NIXT1bQ0hdQzEoW0NAQEhdKFtDSDJdW0NIMl0yKVtDQEhdM1tDSDNdKU9bQ0BAXTMoW0NAQEhdMltDQEBdNChbQ0BAXTU2NylbQ0gyXVtDSDJdQyhbQ0gzXSk9W0NIXTUpW0NAQEhdN0MoPU8pW0NASF0oW09IXSlbQ0BASF04W0NAQF0oQzQ9TykoW0NIM10pW0NASF02Qyg9TylbQ0gyXTg=

>  <s_epik_cmdline>  (206) 
J2VwaWtfcHl0aG9uJywgJy1waHQnLCAnMi4wJywgJy1waCcsICc3LjAnLCAnLXRuJywgJzgnLCAnLW1hJywgJzIwMCcsICctaW1hZScsICc8aW5maWxlLm1hZT4nLCAnLW9tYWUnLCAnPG91dGZpbGUubWFlPic=

>  <r_lp_tautomer_probability>  (206) 
1

>  <r_epik_Ionization_Penalty>  (206) 
4.66585e-07

>  <r_epik_Ionization_Penalty_Charging>  (206) 
0

>  <r_epik_Ionization_Penalty_Neutral>  (206) 
4.66585e-07

>  <r_epik_State_Penalty>  (206) 
-0

>  <r_epik_Charging_Adjusted_Penalty>  (206) 
0

>  <i_epik_Tot_Q>  (206) 
0

>  <i_epik_Tot_abs_Q>  (206) 
0

>  <s_lp_Force_Field>  (206) 
OPLS3e

>  <r_lp_Energy>  (206) 
66.7552

>  <b_lp_Chiralities_Consistent>  (206) 
1

>  <s_lp_Variant>  (206) 
64:0-1

>  <s_i_glide_gridfile>  (206) 
pfpi4k_grid

>  <i_i_glide_lignum>  (206) 
7

>  <i_i_glide_rotatable_bonds>  (206) 
1

>  <r_i_docking_score>  (206) 
-2.14182

>  <r_i_glide_ligand_efficiency>  (206) 
-0.0594949

>  <r_i_glide_ligand_efficiency_sa>  (206) 
-0.196448

>  <r_i_glide_ligand_efficiency_ln>  (206) 
-0.467286

>  <r_i_glide_gscore>  (206) 
-2.14182

>  <r_i_glide_lipo>  (206) 
0

>  <r_i_glide_hbond>  (206) 
0

>  <r_i_glide_metal>  (206) 
-0

>  <r_i_glide_rewards>  (206) 
-0.577922

>  <r_i_glide_evdw>  (206) 
-23.4164

>  <r_i_glide_ecoul>  (206) 
-2.33494

>  <r_i_glide_erotb>  (206) 
0

>  <r_i_glide_esite>  (206) 
-0.0428342

>  <r_i_glide_emodel>  (206) 
-33.4427

>  <r_i_glide_energy>  (206) 
-25.7513

>  <r_i_glide_einternal>  (206) 
1.31847

>  <r_i_glide_intrahb_reward>  (206) 
-0.5

>  <i_i_glide_confnum>  (206) 
1

>  <i_i_glide_posenum>  (206) 
1

>  <r_i_glide_eff_state_penalty>  (206) 
0

>  <ligand_id>  (206) 
64

>  <original_smiles>  (206) 
CC1=CC23C4C(=O)CC5C(O)C(=O)C2C26OC7(C=CC(=O)C=C7)C(CCC2C3(CC1)C(=O)C54C)C6C

>  <smiles>  (206) 
[H]OC1([H])C(=O)C2([H])C34OC5(C([H])=C([H])C(=O)C([H])=C5[H])C([H])(C([H])([H])C([H])([H])C3([H])C35C(=O)C6(C([H])([H])[H])C([H])(C(=O)C([H])([H])C16[H])C23C([H])=C(C([H])([H])[H])C([H])([H])C5([H])[H])C4([H])C([H])([H])[H]

$$$$
65:0:0
     RDKit          3D

 68 74  0  0  1  0  0  0  0  0999 V2000
    4.7216   -2.0177    4.3983 C   0  0  0  0  0  0  0  0  0  0  0  0
    4.6612   -1.8426    3.0677 C   0  0  0  0  0  0  0  0  0  0  0  0
    5.0966   -0.5319    2.4149 C   0  0  0  0  0  0  0  0  0  0  0  0
    5.1713   -0.5599    0.8624 C   0  0  0  0  0  0  0  0  0  0  0  0
    5.6456   -1.8895    0.3083 C   0  0  1  0  0  0  0  0  0  0  0  0
    6.5371   -2.6016    1.1557 O   0  0  0  0  0  0  0  0  0  0  0  0
    5.2105   -3.1590    0.9871 C   0  0  2  0  0  0  0  0  0  0  0  0
    5.2591   -4.5333    0.3201 C   0  0  1  0  0  0  0  0  0  0  0  0
    6.2518   -5.4843    1.0074 C   0  0  0  0  0  0  0  0  0  0  0  0
    5.8121   -5.8839    2.4225 C   0  0  0  0  0  0  0  0  0  0  0  0
    4.3604   -6.4334    2.4478 C   0  0  2  0  0  0  0  0  0  0  0  0
    3.3604   -5.4211    1.7607 C   0  0  1  0  0  0  0  0  0  0  0  0
    3.8749   -5.2069    0.3041 C   0  0  0  0  0  0  0  0  0  0  0  0
    1.9560   -6.0489    1.7151 C   0  0  0  0  0  0  0  0  0  0  0  0
    1.2079   -5.9059    0.7455 O   0  0  0  0  0  0  0  0  0  0  0  0
    1.4593   -6.7975    2.9518 C   0  0  0  0  0  0  0  0  0  0  0  0
    2.4815   -7.8042    3.5611 C   0  0  1  0  0  0  0  0  0  0  0  0
    2.4381   -9.2521    2.9015 C   0  0  0  0  0  0  0  0  0  0  0  0
    1.0758   -9.8992    3.2889 C   0  0  0  0  0  0  0  0  0  0  0  0
    2.5135   -9.2524    1.3555 C   0  0  0  0  0  0  0  0  0  0  0  0
    3.5479  -10.1791    3.4849 C   0  0  1  0  0  0  0  0  0  0  0  0
    3.6291  -11.4623    2.8806 O   0  0  0  0  0  0  0  0  0  0  0  0
    4.9484   -9.5566    3.5770 C   0  0  1  0  0  0  0  0  0  0  0  0
    5.5368   -9.3864    2.3044 O   0  0  0  0  0  0  0  0  0  0  0  0
    4.8491   -8.2367    4.3684 C   0  0  1  0  0  0  0  0  0  0  0  0
    6.1220   -7.7782    4.7924 O   0  0  0  0  0  0  0  0  0  0  0  0
    3.8878   -7.1285    3.7932 C   0  0  1  0  0  0  0  0  0  0  0  0
    3.7542   -6.0848    4.9443 C   0  0  0  0  0  0  0  0  0  0  0  0
    3.2558   -4.0404    2.4468 C   0  0  2  0  0  0  0  0  0  0  0  0
    2.7449   -2.8420    1.6837 C   0  0  1  0  0  0  0  0  0  0  0  0
    1.9287   -1.9891    2.4609 O   0  0  0  0  0  0  0  0  0  0  0  0
    4.2175   -2.9052    2.1057 C   0  0  1  0  0  0  0  0  0  0  0  0
    4.4305   -2.9464    4.8640 H   0  0  0  0  0  0  0  0  0  0  0  0
    5.0596   -1.2218    5.0461 H   0  0  0  0  0  0  0  0  0  0  0  0
    4.4180    0.2606    2.7337 H   0  0  0  0  0  0  0  0  0  0  0  0
    6.0801   -0.2801    2.8159 H   0  0  0  0  0  0  0  0  0  0  0  0
    4.1788   -0.3714    0.4492 H   0  0  0  0  0  0  0  0  0  0  0  0
    5.8186    0.2349    0.4961 H   0  0  0  0  0  0  0  0  0  0  0  0
    5.8777   -1.9279   -0.7522 H   0  0  0  0  0  0  0  0  0  0  0  0
    5.5866   -4.3866   -0.7085 H   0  0  0  0  0  0  0  0  0  0  0  0
    6.3346   -6.3899    0.4046 H   0  0  0  0  0  0  0  0  0  0  0  0
    7.2545   -5.0554    1.0244 H   0  0  0  0  0  0  0  0  0  0  0  0
    6.5208   -6.6480    2.7280 H   0  0  0  0  0  0  0  0  0  0  0  0
    5.9313   -5.0390    3.1009 H   0  0  0  0  0  0  0  0  0  0  0  0
    4.4175   -7.2542    1.7443 H   0  0  0  0  0  0  0  0  0  0  0  0
    3.1950   -4.6169   -0.3054 H   0  0  0  0  0  0  0  0  0  0  0  0
    3.9418   -6.1622   -0.2246 H   0  0  0  0  0  0  0  0  0  0  0  0
    1.1764   -6.0486    3.6906 H   0  0  0  0  0  0  0  0  0  0  0  0
    0.5302   -7.3018    2.6917 H   0  0  0  0  0  0  0  0  0  0  0  0
    2.1094   -7.9749    4.5736 H   0  0  0  0  0  0  0  0  0  0  0  0
    1.0034  -10.9312    2.9416 H   0  0  0  0  0  0  0  0  0  0  0  0
    0.2164   -9.3727    2.8715 H   0  0  0  0  0  0  0  0  0  0  0  0
    0.9366   -9.9276    4.3726 H   0  0  0  0  0  0  0  0  0  0  0  0
    2.3544  -10.2547    0.9642 H   0  0  0  0  0  0  0  0  0  0  0  0
    3.4669   -8.9280    0.9528 H   0  0  0  0  0  0  0  0  0  0  0  0
    1.7344   -8.6415    0.9050 H   0  0  0  0  0  0  0  0  0  0  0  0
    3.2607  -10.3844    4.5171 H   0  0  0  0  0  0  0  0  0  0  0  0
    3.7864  -11.4101    1.9340 H   0  0  0  0  0  0  0  0  0  0  0  0
    5.5849  -10.2461    4.1331 H   0  0  0  0  0  0  0  0  0  0  0  0
    5.4708  -10.2095    1.8423 H   0  0  0  0  0  0  0  0  0  0  0  0
    4.4040   -8.5475    5.3163 H   0  0  0  0  0  0  0  0  0  0  0  0
    6.5756   -8.4997    5.2012 H   0  0  0  0  0  0  0  0  0  0  0  0
    3.7971   -6.5498    5.9295 H   0  0  0  0  0  0  0  0  0  0  0  0
    2.8074   -5.5522    4.9392 H   0  0  0  0  0  0  0  0  0  0  0  0
    4.5545   -5.3468    4.9191 H   0  0  0  0  0  0  0  0  0  0  0  0
    2.9074   -4.0692    3.4690 H   0  0  0  0  0  0  0  0  0  0  0  0
    2.4581   -2.8789    0.6348 H   0  0  0  0  0  0  0  0  0  0  0  0
    1.7750   -1.2037    1.9507 H   0  0  0  0  0  0  0  0  0  0  0  0
  1  2  2  0
  1 33  1  0
  1 34  1  0
 32  2  1  1
  2  3  1  0
  3  4  1  0
  3 35  1  0
  3 36  1  0
  4  5  1  0
  4 37  1  0
  4 38  1  0
  5  7  1  0
  5  6  1  0
  5 39  1  6
  7  6  1  1
  7 32  1  0
  7  8  1  0
  8 13  1  0
  8  9  1  0
  8 40  1  6
  9 10  1  0
  9 41  1  0
  9 42  1  0
 10 11  1  0
 10 43  1  0
 10 44  1  0
 11 27  1  0
 11 12  1  0
 11 45  1  6
 12 13  1  0
 12 14  1  6
 12 29  1  0
 13 46  1  0
 13 47  1  0
 14 15  2  0
 14 16  1  0
 16 17  1  0
 16 48  1  0
 16 49  1  0
 17 27  1  0
 17 18  1  0
 17 50  1  1
 18 19  1  0
 18 20  1  0
 18 21  1  0
 19 51  1  0
 19 52  1  0
 19 53  1  0
 20 54  1  0
 20 55  1  0
 20 56  1  0
 21 22  1  0
 21 23  1  0
 21 57  1  1
 22 58  1  0
 23 24  1  0
 23 25  1  0
 23 59  1  1
 24 60  1  0
 25 26  1  0
 25 27  1  0
 25 61  1  1
 26 62  1  0
 27 28  1  1
 28 63  1  0
 28 64  1  0
 28 65  1  0
 29 32  1  0
 29 30  1  0
 29 66  1  1
 30 31  1  0
 30 32  1  0
 30 67  1  6
 31 68  1  0
M  END
>  <i_m_ct_stereo_status>  (207) 
1

>  <s_m_source_file>  (207) 
/var/tmp/pbs.5076255.sched01/tmpy0mqr2dw/78t3ouse6d.sdf

>  <i_m_source_file_index>  (207) 
8

>  <i_lp_mmshare_version>  (207) 
48012

>  <i_f3d_flags>  (207) 
0

>  <s_epik_input>  (207) 
TzFbQ0BASF0yW0NIMl1bQ0gyXUMoPVtDSDJdKVtDQEBdMyhbQ0BdMTI0KVtDQEBIXShbQ0BIXTNbT0hdKVtDQF01NltDQEBIXShbQ0gyXVtDSDJdW0NASF00W0NIMl01KVtDQEBdNyhbQ0gzXSlbQ0BASF0oW0NIMl1DNj1PKUMoW0NIM10pKFtDSDNdKVtDQEBIXShbT0hdKVtDQEBIXShbT0hdKVtDQEhdN1tPSF0=

>  <s_epik_cmdline>  (207) 
J2VwaWtfcHl0aG9uJywgJy1waHQnLCAnMi4wJywgJy1waCcsICc3LjAnLCAnLXRuJywgJzgnLCAnLW1hJywgJzIwMCcsICctaW1hZScsICc8aW5maWxlLm1hZT4nLCAnLW9tYWUnLCAnPG91dGZpbGUubWFlPic=

>  <r_lp_tautomer_probability>  (207) 
1

>  <r_epik_Ionization_Penalty>  (207) 
8.97034e-07

>  <r_epik_Ionization_Penalty_Charging>  (207) 
0

>  <r_epik_Ionization_Penalty_Neutral>  (207) 
8.97034e-07

>  <r_epik_State_Penalty>  (207) 
-0

>  <r_epik_Charging_Adjusted_Penalty>  (207) 
0

>  <i_epik_Tot_Q>  (207) 
0

>  <i_epik_Tot_abs_Q>  (207) 
0

>  <s_lp_Force_Field>  (207) 
OPLS3e

>  <r_lp_Energy>  (207) 
77.9523

>  <b_lp_Chiralities_Consistent>  (207) 
1

>  <s_lp_Variant>  (207) 
65:0-1

>  <s_i_glide_gridfile>  (207) 
pfpi4k_grid

>  <i_i_glide_lignum>  (207) 
8

>  <i_i_glide_rotatable_bonds>  (207) 
4

>  <r_i_docking_score>  (207) 
-3.71402

>  <r_i_glide_ligand_efficiency>  (207) 
-0.116063

>  <r_i_glide_ligand_efficiency_sa>  (207) 
-0.368478

>  <r_i_glide_ligand_efficiency_ln>  (207) 
-0.831671

>  <r_i_glide_gscore>  (207) 
-3.71402

>  <r_i_glide_lipo>  (207) 
-0.710237

>  <r_i_glide_hbond>  (207) 
-0.16

>  <r_i_glide_metal>  (207) 
-0

>  <r_i_glide_rewards>  (207) 
-0.377997

>  <r_i_glide_evdw>  (207) 
-27.8447

>  <r_i_glide_ecoul>  (207) 
-6.93084

>  <r_i_glide_erotb>  (207) 
0

>  <r_i_glide_esite>  (207) 
-0.0339275

>  <r_i_glide_emodel>  (207) 
-43.3508

>  <r_i_glide_energy>  (207) 
-34.7755

>  <r_i_glide_einternal>  (207) 
1.21871

>  <r_i_glide_intrahb_reward>  (207) 
-0

>  <i_i_glide_confnum>  (207) 
1

>  <i_i_glide_posenum>  (207) 
37

>  <r_i_glide_eff_state_penalty>  (207) 
0

>  <ligand_id>  (207) 
65

>  <original_smiles>  (207) 
C=C1CCC2OC23C2CCC4C(C2)(C(=O)CC2C(C)(C)C(O)C(O)C(O)C24C)C2C(O)C123

>  <smiles>  (207) 
[H]OC1([H])C([H])(O[H])C(C([H])([H])[H])(C([H])([H])[H])C2([H])C([H])([H])C(=O)C34C([H])([H])C([H])(C([H])([H])C([H])([H])C3([H])C2(C([H])([H])[H])C1([H])O[H])C12OC1([H])C([H])([H])C([H])([H])C(=C([H])[H])C21C([H])(O[H])C41[H]

$$$$
65:0:1
     RDKit          3D

 68 74  0  0  1  0  0  0  0  0999 V2000
    5.1388   -2.6407    4.4379 C   0  0  0  0  0  0  0  0  0  0  0  0
    4.5593   -2.3604    3.2615 C   0  0  0  0  0  0  0  0  0  0  0  0
    4.7395   -1.0047    2.5755 C   0  0  0  0  0  0  0  0  0  0  0  0
    4.1667   -0.9093    1.1324 C   0  0  0  0  0  0  0  0  0  0  0  0
    4.3196   -2.2005    0.3476 C   0  0  1  0  0  0  0  0  0  0  0  0
    5.4543   -2.9829    0.7022 O   0  0  0  0  0  0  0  0  0  0  0  0
    4.1538   -3.5161    1.0596 C   0  0  2  0  0  0  0  0  0  0  0  0
    3.8726   -4.8392    0.3425 C   0  0  1  0  0  0  0  0  0  0  0  0
    5.0167   -5.8485    0.4846 C   0  0  0  0  0  0  0  0  0  0  0  0
    5.1878   -6.3536    1.9243 C   0  0  0  0  0  0  0  0  0  0  0  0
    3.8577   -6.8947    2.5144 C   0  0  2  0  0  0  0  0  0  0  0  0
    2.7030   -5.8252    2.3766 C   0  0  1  0  0  0  0  0  0  0  0  0
    2.5855   -5.4990    0.8577 C   0  0  0  0  0  0  0  0  0  0  0  0
    1.3785   -6.4413    2.8672 C   0  0  0  0  0  0  0  0  0  0  0  0
    0.3136   -6.2517    2.2769 O   0  0  0  0  0  0  0  0  0  0  0  0
    1.4095   -7.2711    4.1550 C   0  0  0  0  0  0  0  0  0  0  0  0
    2.5561   -8.3274    4.2180 C   0  0  1  0  0  0  0  0  0  0  0  0
    2.1887   -9.7157    3.5394 C   0  0  0  0  0  0  0  0  0  0  0  0
    1.0864  -10.3876    4.4107 C   0  0  0  0  0  0  0  0  0  0  0  0
    1.6018   -9.5875    2.1151 C   0  0  0  0  0  0  0  0  0  0  0  0
    3.4095  -10.6916    3.5474 C   0  0  1  0  0  0  0  0  0  0  0  0
    3.1878  -11.9160    2.8812 O   0  0  0  0  0  0  0  0  0  0  0  0
    4.7495  -10.1012    3.0834 C   0  0  1  0  0  0  0  0  0  0  0  0
    4.7873   -9.8570    1.6834 O   0  0  0  0  0  0  0  0  0  0  0  0
    5.0277   -8.8419    3.9309 C   0  0  1  0  0  0  0  0  0  0  0  0
    6.3765   -8.4295    3.8146 O   0  0  0  0  0  0  0  0  0  0  0  0
    3.9575   -7.6854    3.8849 C   0  0  1  0  0  0  0  0  0  0  0  0
    4.3518   -6.7326    5.0547 C   0  0  0  0  0  0  0  0  0  0  0  0
    2.9475   -4.5025    3.1366 C   0  0  2  0  0  0  0  0  0  0  0  0
    2.2160   -3.2450    2.7496 C   0  0  1  0  0  0  0  0  0  0  0  0
    1.8381   -2.4543    3.8578 O   0  0  0  0  0  0  0  0  0  0  0  0
    3.7231   -3.3453    2.5047 C   0  0  1  0  0  0  0  0  0  0  0  0
    5.0335   -3.6036    4.9152 H   0  0  0  0  0  0  0  0  0  0  0  0
    5.7444   -1.9017    4.9430 H   0  0  0  0  0  0  0  0  0  0  0  0
    4.2858   -0.2321    3.2001 H   0  0  0  0  0  0  0  0  0  0  0  0
    5.8103   -0.7938    2.5503 H   0  0  0  0  0  0  0  0  0  0  0  0
    3.0988   -0.6893    1.1794 H   0  0  0  0  0  0  0  0  0  0  0  0
    4.6291   -0.0893    0.5859 H   0  0  0  0  0  0  0  0  0  0  0  0
    4.0894   -2.1610   -0.7156 H   0  0  0  0  0  0  0  0  0  0  0  0
    3.7508   -4.6165   -0.7175 H   0  0  0  0  0  0  0  0  0  0  0  0
    4.8012   -6.7014   -0.1661 H   0  0  0  0  0  0  0  0  0  0  0  0
    5.9534   -5.4302    0.1132 H   0  0  0  0  0  0  0  0  0  0  0  0
    5.9306   -7.1398    1.8470 H   0  0  0  0  0  0  0  0  0  0  0  0
    5.6077   -5.5625    2.5474 H   0  0  0  0  0  0  0  0  0  0  0  0
    3.5872   -7.6621    1.7989 H   0  0  0  0  0  0  0  0  0  0  0  0
    1.7523   -4.8472    0.6251 H   0  0  0  0  0  0  0  0  0  0  0  0
    2.3861   -6.4093    0.2881 H   0  0  0  0  0  0  0  0  0  0  0  0
    1.4863   -6.5790    4.9932 H   0  0  0  0  0  0  0  0  0  0  0  0
    0.4387   -7.7500    4.2730 H   0  0  0  0  0  0  0  0  0  0  0  0
    2.6292   -8.5761    5.2787 H   0  0  0  0  0  0  0  0  0  0  0  0
    0.8402  -11.3895    4.0541 H   0  0  0  0  0  0  0  0  0  0  0  0
    0.1501   -9.8293    4.4248 H   0  0  0  0  0  0  0  0  0  0  0  0
    1.4066  -10.5026    5.4496 H   0  0  0  0  0  0  0  0  0  0  0  0
    1.2130  -10.5475    1.7953 H   0  0  0  0  0  0  0  0  0  0  0  0
    2.3201   -9.2722    1.3621 H   0  0  0  0  0  0  0  0  0  0  0  0
    0.7380   -8.9294    2.0626 H   0  0  0  0  0  0  0  0  0  0  0  0
    3.5603  -10.9757    4.5915 H   0  0  0  0  0  0  0  0  0  0  0  0
    3.4061  -11.8449    1.9453 H   0  0  0  0  0  0  0  0  0  0  0  0
    5.5336  -10.8280    3.2929 H   0  0  0  0  0  0  0  0  0  0  0  0
    4.6305  -10.6861    1.2214 H   0  0  0  0  0  0  0  0  0  0  0  0
    5.0034   -9.2180    4.9562 H   0  0  0  0  0  0  0  0  0  0  0  0
    6.5190   -8.1747    2.9152 H   0  0  0  0  0  0  0  0  0  0  0  0
    4.7787   -7.2735    5.8998 H   0  0  0  0  0  0  0  0  0  0  0  0
    3.5082   -6.1952    5.4803 H   0  0  0  0  0  0  0  0  0  0  0  0
    5.0979   -5.9997    4.7514 H   0  0  0  0  0  0  0  0  0  0  0  0
    3.0497   -4.6099    4.2081 H   0  0  0  0  0  0  0  0  0  0  0  0
    1.5306   -3.1742    1.9131 H   0  0  0  0  0  0  0  0  0  0  0  0
    1.7956   -1.5537    3.5648 H   0  0  0  0  0  0  0  0  0  0  0  0
  1  2  2  0
  1 33  1  0
  1 34  1  0
 32  2  1  1
  2  3  1  0
  3  4  1  0
  3 35  1  0
  3 36  1  0
  4  5  1  0
  4 37  1  0
  4 38  1  0
  5  7  1  0
  5  6  1  0
  5 39  1  6
  7  6  1  1
  7 32  1  0
  7  8  1  0
  8 13  1  0
  8  9  1  0
  8 40  1  6
  9 10  1  0
  9 41  1  0
  9 42  1  0
 10 11  1  0
 10 43  1  0
 10 44  1  0
 11 27  1  0
 11 12  1  0
 11 45  1  6
 12 13  1  0
 12 14  1  1
 12 29  1  0
 13 46  1  0
 13 47  1  0
 14 15  2  0
 14 16  1  0
 16 17  1  0
 16 48  1  0
 16 49  1  0
 17 27  1  0
 17 18  1  0
 17 50  1  1
 18 19  1  0
 18 20  1  0
 18 21  1  0
 19 51  1  0
 19 52  1  0
 19 53  1  0
 20 54  1  0
 20 55  1  0
 20 56  1  0
 21 22  1  0
 21 23  1  0
 21 57  1  1
 22 58  1  0
 23 24  1  0
 23 25  1  0
 23 59  1  6
 24 60  1  0
 25 26  1  0
 25 27  1  0
 25 61  1  1
 26 62  1  0
 27 28  1  1
 28 63  1  0
 28 64  1  0
 28 65  1  0
 29 32  1  0
 29 30  1  0
 29 66  1  1
 30 31  1  0
 30 32  1  0
 30 67  1  6
 31 68  1  0
M  END
>  <i_m_ct_stereo_status>  (208) 
1

>  <s_m_source_file>  (208) 
/var/tmp/pbs.5076255.sched01/tmpy0mqr2dw/78t3ouse6d.sdf

>  <i_m_source_file_index>  (208) 
8

>  <i_lp_mmshare_version>  (208) 
48012

>  <i_f3d_flags>  (208) 
0

>  <s_epik_input>  (208) 
TzFbQ0BASF0yW0NIMl1bQ0gyXUMoPVtDSDJdKVtDQEBdMyhbQ0BdMTI0KVtDQEBIXShbQ0BIXTNbT0hdKVtDQF01NltDQEBIXShbQ0gyXVtDSDJdW0NASF00W0NIMl01KVtDQEBdNyhbQ0gzXSlbQ0BASF0oW0NIMl1DNj1PKUMoW0NIM10pKFtDSDNdKVtDQEBIXShbT0hdKVtDQEBIXShbT0hdKVtDQEhdN1tPSF0=

>  <s_epik_cmdline>  (208) 
J2VwaWtfcHl0aG9uJywgJy1waHQnLCAnMi4wJywgJy1waCcsICc3LjAnLCAnLXRuJywgJzgnLCAnLW1hJywgJzIwMCcsICctaW1hZScsICc8aW5maWxlLm1hZT4nLCAnLW9tYWUnLCAnPG91dGZpbGUubWFlPic=

>  <r_lp_tautomer_probability>  (208) 
1

>  <r_epik_Ionization_Penalty>  (208) 
8.97034e-07

>  <r_epik_Ionization_Penalty_Charging>  (208) 
0

>  <r_epik_Ionization_Penalty_Neutral>  (208) 
8.97034e-07

>  <r_epik_State_Penalty>  (208) 
-0

>  <r_epik_Charging_Adjusted_Penalty>  (208) 
0

>  <i_epik_Tot_Q>  (208) 
0

>  <i_epik_Tot_abs_Q>  (208) 
0

>  <s_lp_Force_Field>  (208) 
OPLS3e

>  <r_lp_Energy>  (208) 
77.9523

>  <b_lp_Chiralities_Consistent>  (208) 
1

>  <s_lp_Variant>  (208) 
65:0-1

>  <s_i_glide_gridfile>  (208) 
pfpi4k_grid

>  <i_i_glide_lignum>  (208) 
8

>  <i_i_glide_rotatable_bonds>  (208) 
4

>  <r_i_docking_score>  (208) 
-3.6748

>  <r_i_glide_ligand_efficiency>  (208) 
-0.114838

>  <r_i_glide_ligand_efficiency_sa>  (208) 
-0.364587

>  <r_i_glide_ligand_efficiency_ln>  (208) 
-0.822889

>  <r_i_glide_gscore>  (208) 
-3.6748

>  <r_i_glide_lipo>  (208) 
-0.450568

>  <r_i_glide_hbond>  (208) 
-0.16808

>  <r_i_glide_metal>  (208) 
-0

>  <r_i_glide_rewards>  (208) 
-0.377997

>  <r_i_glide_evdw>  (208) 
-24.8687

>  <r_i_glide_ecoul>  (208) 
-9.3849

>  <r_i_glide_erotb>  (208) 
0

>  <r_i_glide_esite>  (208) 
-0.0269911

>  <r_i_glide_emodel>  (208) 
-42.6765

>  <r_i_glide_energy>  (208) 
-34.2536

>  <r_i_glide_einternal>  (208) 
1.10765

>  <r_i_glide_intrahb_reward>  (208) 
-0

>  <i_i_glide_confnum>  (208) 
1

>  <i_i_glide_posenum>  (208) 
1

>  <r_i_glide_eff_state_penalty>  (208) 
0

>  <ligand_id>  (208) 
65

>  <original_smiles>  (208) 
C=C1CCC2OC23C2CCC4C(C2)(C(=O)CC2C(C)(C)C(O)C(O)C(O)C24C)C2C(O)C123

>  <smiles>  (208) 
[H]OC1([H])C([H])(O[H])C(C([H])([H])[H])(C([H])([H])[H])C2([H])C([H])([H])C(=O)C34C([H])([H])C([H])(C([H])([H])C([H])([H])C3([H])C2(C([H])([H])[H])C1([H])O[H])C12OC1([H])C([H])([H])C([H])([H])C(=C([H])[H])C21C([H])(O[H])C41[H]

$$$$
65:0:2
     RDKit          3D

 68 74  0  0  1  0  0  0  0  0999 V2000
    5.1285   -2.6244    4.4121 C   0  0  0  0  0  0  0  0  0  0  0  0
    4.4929   -2.3450    3.2654 C   0  0  0  0  0  0  0  0  0  0  0  0
    4.6217   -0.9816    2.5824 C   0  0  0  0  0  0  0  0  0  0  0  0
    3.9810   -0.8854    1.1680 C   0  0  0  0  0  0  0  0  0  0  0  0
    4.1142   -2.1687    0.3673 C   0  0  1  0  0  0  0  0  0  0  0  0
    5.2745   -2.9381    0.6647 O   0  0  0  0  0  0  0  0  0  0  0  0
    4.0005   -3.4930    1.0776 C   0  0  2  0  0  0  0  0  0  0  0  0
    3.7060   -4.8151    0.3638 C   0  0  1  0  0  0  0  0  0  0  0  0
    4.8700   -5.8103    0.4471 C   0  0  0  0  0  0  0  0  0  0  0  0
    5.1141   -6.3228    1.8744 C   0  0  0  0  0  0  0  0  0  0  0  0
    3.8198   -6.8865    2.5206 C   0  0  2  0  0  0  0  0  0  0  0  0
    2.6481   -5.8306    2.4423 C   0  0  1  0  0  0  0  0  0  0  0  0
    2.4542   -5.5012    0.9313 C   0  0  0  0  0  0  0  0  0  0  0  0
    1.3522   -6.4576    2.9915 C   0  0  0  0  0  0  0  0  0  0  0  0
    0.2574   -6.2523    2.4662 O   0  0  0  0  0  0  0  0  0  0  0  0
    1.4536   -7.3049    4.2645 C   0  0  0  0  0  0  0  0  0  0  0  0
    2.6158   -8.3466    4.2684 C   0  0  1  0  0  0  0  0  0  0  0  0
    2.2376   -9.7371    3.5998 C   0  0  0  0  0  0  0  0  0  0  0  0
    1.1856  -10.4275    4.5160 C   0  0  0  0  0  0  0  0  0  0  0  0
    1.5820   -9.6113    2.2057 C   0  0  0  0  0  0  0  0  0  0  0  0
    3.4702  -10.6977    3.5468 C   0  0  1  0  0  0  0  0  0  0  0  0
    3.2360  -11.9229    2.8833 O   0  0  0  0  0  0  0  0  0  0  0  0
    4.7821  -10.0850    3.0332 C   0  0  1  0  0  0  0  0  0  0  0  0
    4.7541   -9.8158    1.6442 O   0  0  0  0  0  0  0  0  0  0  0  0
    5.0809   -8.8255    3.8719 C   0  0  1  0  0  0  0  0  0  0  0  0
    6.4169   -8.3878    3.6991 O   0  0  0  0  0  0  0  0  0  0  0  0
    3.9929   -7.6843    3.8797 C   0  0  1  0  0  0  0  0  0  0  0  0
    4.4275   -6.7327    5.0359 C   0  0  0  0  0  0  0  0  0  0  0  0
    2.9129   -4.5110    3.2010 C   0  0  2  0  0  0  0  0  0  0  0  0
    2.1470   -3.2612    2.8638 C   0  0  1  0  0  0  0  0  0  0  0  0
    1.8076   -2.4822    3.9939 O   0  0  0  0  0  0  0  0  0  0  0  0
    3.6393   -3.3374    2.5424 C   0  0  1  0  0  0  0  0  0  0  0  0
    5.0576   -3.5925    4.8860 H   0  0  0  0  0  0  0  0  0  0  0  0
    5.7447   -1.8801    4.8937 H   0  0  0  0  0  0  0  0  0  0  0  0
    4.1866   -0.2209    3.2335 H   0  0  0  0  0  0  0  0  0  0  0  0
    5.6871   -0.7572    2.5094 H   0  0  0  0  0  0  0  0  0  0  0  0
    2.9135   -0.6792    1.2653 H   0  0  0  0  0  0  0  0  0  0  0  0
    4.4073   -0.0555    0.6062 H   0  0  0  0  0  0  0  0  0  0  0  0
    3.8358   -2.1248   -0.6836 H   0  0  0  0  0  0  0  0  0  0  0  0
    3.5318   -4.5864   -0.6877 H   0  0  0  0  0  0  0  0  0  0  0  0
    4.6365   -6.6615   -0.2003 H   0  0  0  0  0  0  0  0  0  0  0  0
    5.7820   -5.3756    0.0356 H   0  0  0  0  0  0  0  0  0  0  0  0
    5.8641   -7.1009    1.7685 H   0  0  0  0  0  0  0  0  0  0  0  0
    5.5500   -5.5293    2.4824 H   0  0  0  0  0  0  0  0  0  0  0  0
    3.5281   -7.6526    1.8127 H   0  0  0  0  0  0  0  0  0  0  0  0
    1.5972   -4.8673    0.7430 H   0  0  0  0  0  0  0  0  0  0  0  0
    2.2443   -6.4142    0.3684 H   0  0  0  0  0  0  0  0  0  0  0  0
    1.5595   -6.6191    5.1044 H   0  0  0  0  0  0  0  0  0  0  0  0
    0.4949   -7.7970    4.4235 H   0  0  0  0  0  0  0  0  0  0  0  0
    2.7398   -8.5987    5.3233 H   0  0  0  0  0  0  0  0  0  0  0  0
    0.9373  -11.4303    4.1634 H   0  0  0  0  0  0  0  0  0  0  0  0
    0.2436   -9.8815    4.5760 H   0  0  0  0  0  0  0  0  0  0  0  0
    1.5554  -10.5447    5.5380 H   0  0  0  0  0  0  0  0  0  0  0  0
    1.1990  -10.5803    1.9019 H   0  0  0  0  0  0  0  0  0  0  0  0
    2.2613   -9.2793    1.4241 H   0  0  0  0  0  0  0  0  0  0  0  0
    0.7077   -8.9640    2.1941 H   0  0  0  0  0  0  0  0  0  0  0  0
    3.6685  -10.9834    4.5818 H   0  0  0  0  0  0  0  0  0  0  0  0
    3.4313  -11.8491    1.9426 H   0  0  0  0  0  0  0  0  0  0  0  0
    5.5813  -10.8085    3.1973 H   0  0  0  0  0  0  0  0  0  0  0  0
    4.6199  -10.6269    1.1607 H   0  0  0  0  0  0  0  0  0  0  0  0
    5.1054   -9.2086    4.8938 H   0  0  0  0  0  0  0  0  0  0  0  0
    6.9885   -9.1338    3.7955 H   0  0  0  0  0  0  0  0  0  0  0  0
    4.9007   -7.2718    5.8571 H   0  0  0  0  0  0  0  0  0  0  0  0
    3.5972   -6.2087    5.5024 H   0  0  0  0  0  0  0  0  0  0  0  0
    5.1492   -5.9883    4.7023 H   0  0  0  0  0  0  0  0  0  0  0  0
    3.0603   -4.6242    4.2666 H   0  0  0  0  0  0  0  0  0  0  0  0
    1.4211   -3.1984    2.0596 H   0  0  0  0  0  0  0  0  0  0  0  0
    1.7586   -1.5786    3.7114 H   0  0  0  0  0  0  0  0  0  0  0  0
  1  2  2  0
  1 33  1  0
  1 34  1  0
 32  2  1  1
  2  3  1  0
  3  4  1  0
  3 35  1  0
  3 36  1  0
  4  5  1  0
  4 37  1  0
  4 38  1  0
  5  7  1  0
  5  6  1  0
  5 39  1  6
  7  6  1  1
  7 32  1  0
  7  8  1  0
  8 13  1  0
  8  9  1  0
  8 40  1  6
  9 10  1  0
  9 41  1  0
  9 42  1  0
 10 11  1  0
 10 43  1  0
 10 44  1  0
 11 27  1  0
 11 12  1  0
 11 45  1  6
 12 13  1  0
 12 14  1  1
 12 29  1  0
 13 46  1  0
 13 47  1  0
 14 15  2  0
 14 16  1  0
 16 17  1  0
 16 48  1  0
 16 49  1  0
 17 27  1  0
 17 18  1  0
 17 50  1  1
 18 19  1  0
 18 20  1  0
 18 21  1  0
 19 51  1  0
 19 52  1  0
 19 53  1  0
 20 54  1  0
 20 55  1  0
 20 56  1  0
 21 22  1  0
 21 23  1  0
 21 57  1  1
 22 58  1  0
 23 24  1  0
 23 25  1  0
 23 59  1  6
 24 60  1  0
 25 26  1  0
 25 27  1  0
 25 61  1  1
 26 62  1  0
 27 28  1  1
 28 63  1  0
 28 64  1  0
 28 65  1  0
 29 32  1  0
 29 30  1  0
 29 66  1  1
 30 31  1  0
 30 32  1  0
 30 67  1  6
 31 68  1  0
M  END
>  <i_m_ct_stereo_status>  (209) 
1

>  <s_m_source_file>  (209) 
/var/tmp/pbs.5076255.sched01/tmpy0mqr2dw/78t3ouse6d.sdf

>  <i_m_source_file_index>  (209) 
8

>  <i_lp_mmshare_version>  (209) 
48012

>  <i_f3d_flags>  (209) 
0

>  <s_epik_input>  (209) 
TzFbQ0BASF0yW0NIMl1bQ0gyXUMoPVtDSDJdKVtDQEBdMyhbQ0BdMTI0KVtDQEBIXShbQ0BIXTNbT0hdKVtDQF01NltDQEBIXShbQ0gyXVtDSDJdW0NASF00W0NIMl01KVtDQEBdNyhbQ0gzXSlbQ0BASF0oW0NIMl1DNj1PKUMoW0NIM10pKFtDSDNdKVtDQEBIXShbT0hdKVtDQEBIXShbT0hdKVtDQEhdN1tPSF0=

>  <s_epik_cmdline>  (209) 
J2VwaWtfcHl0aG9uJywgJy1waHQnLCAnMi4wJywgJy1waCcsICc3LjAnLCAnLXRuJywgJzgnLCAnLW1hJywgJzIwMCcsICctaW1hZScsICc8aW5maWxlLm1hZT4nLCAnLW9tYWUnLCAnPG91dGZpbGUubWFlPic=

>  <r_lp_tautomer_probability>  (209) 
1

>  <r_epik_Ionization_Penalty>  (209) 
8.97034e-07

>  <r_epik_Ionization_Penalty_Charging>  (209) 
0

>  <r_epik_Ionization_Penalty_Neutral>  (209) 
8.97034e-07

>  <r_epik_State_Penalty>  (209) 
-0

>  <r_epik_Charging_Adjusted_Penalty>  (209) 
0

>  <i_epik_Tot_Q>  (209) 
0

>  <i_epik_Tot_abs_Q>  (209) 
0

>  <s_lp_Force_Field>  (209) 
OPLS3e

>  <r_lp_Energy>  (209) 
77.9523

>  <b_lp_Chiralities_Consistent>  (209) 
1

>  <s_lp_Variant>  (209) 
65:0-1

>  <s_i_glide_gridfile>  (209) 
pfpi4k_grid

>  <i_i_glide_lignum>  (209) 
8

>  <i_i_glide_rotatable_bonds>  (209) 
4

>  <r_i_docking_score>  (209) 
-3.55594

>  <r_i_glide_ligand_efficiency>  (209) 
-0.111123

>  <r_i_glide_ligand_efficiency_sa>  (209) 
-0.352794

>  <r_i_glide_ligand_efficiency_ln>  (209) 
-0.796273

>  <r_i_glide_gscore>  (209) 
-3.55594

>  <r_i_glide_lipo>  (209) 
-0.403475

>  <r_i_glide_hbond>  (209) 
-0.146074

>  <r_i_glide_metal>  (209) 
-0

>  <r_i_glide_rewards>  (209) 
-0.377997

>  <r_i_glide_evdw>  (209) 
-24.926

>  <r_i_glide_ecoul>  (209) 
-9.04751

>  <r_i_glide_erotb>  (209) 
0

>  <r_i_glide_esite>  (209) 
-0.0249716

>  <r_i_glide_emodel>  (209) 
-41.8894

>  <r_i_glide_energy>  (209) 
-33.9735

>  <r_i_glide_einternal>  (209) 
1.49647

>  <r_i_glide_intrahb_reward>  (209) 
-0

>  <i_i_glide_confnum>  (209) 
1

>  <i_i_glide_posenum>  (209) 
29

>  <r_i_glide_eff_state_penalty>  (209) 
0

>  <ligand_id>  (209) 
65

>  <original_smiles>  (209) 
C=C1CCC2OC23C2CCC4C(C2)(C(=O)CC2C(C)(C)C(O)C(O)C(O)C24C)C2C(O)C123

>  <smiles>  (209) 
[H]OC1([H])C([H])(O[H])C(C([H])([H])[H])(C([H])([H])[H])C2([H])C([H])([H])C(=O)C34C([H])([H])C([H])(C([H])([H])C([H])([H])C3([H])C2(C([H])([H])[H])C1([H])O[H])C12OC1([H])C([H])([H])C([H])([H])C(=C([H])[H])C21C([H])(O[H])C41[H]

$$$$
66:0:0
     RDKit          3D

 53 59  0  0  1  0  0  0  0  0999 V2000
    3.9646   -1.8671   -4.1504 O   0  0  0  0  0  0  0  0  0  0  0  0
    4.2474   -2.1771   -2.8577 C   0  0  0  0  0  0  0  0  0  0  0  0
    3.4433   -1.7014   -1.7956 C   0  0  0  0  0  0  0  0  0  0  0  0
    3.7356   -2.0139   -0.4439 C   0  0  0  0  0  0  0  0  0  0  0  0
    4.8822   -2.7904   -0.1420 C   0  0  0  0  0  0  0  0  0  0  0  0
    5.2281   -3.1269    1.3149 C   0  0  0  0  0  0  0  0  0  0  0  0
    5.0554   -4.5391    1.7025 N   0  0  0  0  0  0  0  0  0  0  0  0
    3.8339   -5.0060    2.2712 C   0  0  0  0  0  0  0  0  0  0  0  0
    2.6878   -4.1837    2.4276 C   0  0  0  0  0  0  0  0  0  0  0  0
    1.5016   -4.6998    2.9707 C   0  0  0  0  0  0  0  0  0  0  0  0
    1.3187   -5.9847    3.3178 N   0  0  0  0  0  0  0  0  0  0  0  0
    2.3666   -6.8281    3.2136 C   0  0  0  0  0  0  0  0  0  0  0  0
    3.6108   -6.3398    2.7361 C   0  0  0  0  0  0  0  0  0  0  0  0
    4.8281   -7.3254    2.7197 C   0  0  1  0  0  0  0  0  0  0  0  0
    4.5488   -8.8268    2.7400 C   0  0  0  0  0  0  0  0  0  0  0  0
    5.2294  -10.0181    2.5665 C   0  0  0  0  0  0  0  0  0  0  0  0
    4.3072  -11.0042    2.8938 N   0  0  0  0  0  0  0  0  0  0  0  0
    3.1052  -10.4432    3.2561 C   0  0  0  0  0  0  0  0  0  0  0  0
    1.8829  -10.9617    3.6549 C   0  0  0  0  0  0  0  0  0  0  0  0
    0.7913  -10.1078    3.9677 C   0  0  0  0  0  0  0  0  0  0  0  0
    0.9629   -8.7678    3.8502 N   0  0  0  0  0  0  0  0  0  0  0  0
    2.1477   -8.2474    3.4554 C   0  0  0  0  0  0  0  0  0  0  0  0
    3.2352   -9.0814    3.1653 C   0  0  0  0  0  0  0  0  0  0  0  0
    5.8501   -6.8733    1.6623 C   0  0  2  0  0  0  0  0  0  0  0  0
    7.2317   -7.5629    1.5992 C   0  0  0  0  0  0  0  0  0  0  0  0
    8.2252   -6.4949    1.1303 C   0  0  0  0  0  0  0  0  0  0  0  0
    7.4348   -5.2083    1.0522 C   0  0  0  0  0  0  0  0  0  0  0  0
    6.2019   -5.4182    1.9402 C   0  0  1  0  0  0  0  0  0  0  0  0
    5.7198   -3.2029   -1.2215 C   0  0  0  0  0  0  0  0  0  0  0  0
    5.3802   -2.9470   -2.5612 C   0  0  0  0  0  0  0  0  0  0  0  0
    4.4460  -12.0003    2.7733 H   0  0  0  0  0  0  0  0  0  0  0  0
    3.1447   -1.4140   -4.2074 H   0  0  0  0  0  0  0  0  0  0  0  0
    2.5978   -1.0693   -2.0067 H   0  0  0  0  0  0  0  0  0  0  0  0
    3.1029   -1.6375    0.3470 H   0  0  0  0  0  0  0  0  0  0  0  0
    6.2568   -2.8294    1.5074 H   0  0  0  0  0  0  0  0  0  0  0  0
    4.6575   -2.4800    1.9773 H   0  0  0  0  0  0  0  0  0  0  0  0
    2.6738   -3.1492    2.1398 H   0  0  0  0  0  0  0  0  0  0  0  0
    0.6414   -4.0615    3.0761 H   0  0  0  0  0  0  0  0  0  0  0  0
    5.3171   -7.1173    3.6717 H   0  0  0  0  0  0  0  0  0  0  0  0
    6.2506  -10.2319    2.2583 H   0  0  0  0  0  0  0  0  0  0  0  0
    1.7543  -12.0333    3.7357 H   0  0  0  0  0  0  0  0  0  0  0  0
   -0.1820  -10.4639    4.2961 H   0  0  0  0  0  0  0  0  0  0  0  0
    5.3783   -6.9641    0.6784 H   0  0  0  0  0  0  0  0  0  0  0  0
    7.5523   -7.9000    2.5831 H   0  0  0  0  0  0  0  0  0  0  0  0
    7.2221   -8.4123    0.9111 H   0  0  0  0  0  0  0  0  0  0  0  0
    9.0709   -6.3750    1.7991 H   0  0  0  0  0  0  0  0  0  0  0  0
    8.6243   -6.7155    0.1344 H   0  0  0  0  0  0  0  0  0  0  0  0
    8.0104   -4.2964    1.2742 H   0  0  0  0  0  0  0  0  0  0  0  0
    7.1612   -5.2480    0.0157 H   0  0  0  0  0  0  0  0  0  0  0  0
    6.5109   -5.2841    2.9704 H   0  0  0  0  0  0  0  0  0  0  0  0
    6.6655   -3.6909   -1.1065 H   0  0  0  0  0  0  0  0  0  0  0  0
    6.0395   -3.3214   -3.3270 H   0  0  0  0  0  0  0  0  0  0  0  0
    0.1828   -8.1346    4.0433 H   0  0  0  0  0  0  0  0  0  0  0  0
  1  2  1  0
  1 32  1  0
  2 30  2  0
  2  3  1  0
  3  4  2  0
  3 33  1  0
  4  5  1  0
  4 34  1  0
  5  6  1  0
  5 29  2  0
  6  7  1  0
  6 35  1  0
  6 36  1  0
  7 28  1  0
  7  8  1  0
  8 13  1  0
  8  9  2  0
  9 10  1  0
  9 37  1  0
 10 11  2  0
 10 38  1  0
 11 12  1  0
 12 22  1  0
 12 13  2  0
 13 14  1  0
 14 15  1  0
 14 24  1  0
 14 39  1  1
 15 23  1  0
 15 16  2  0
 16 17  1  0
 16 40  1  0
 17 31  1  0
 17 18  1  0
 18 23  2  0
 18 19  1  0
 19 20  2  0
 19 41  1  0
 20 21  1  0
 20 42  1  0
 21 22  2  0
 21 53  1  0
 22 23  1  0
 24 28  1  0
 24 25  1  0
 24 43  1  6
 25 26  1  0
 25 44  1  0
 25 45  1  0
 26 27  1  0
 26 46  1  0
 26 47  1  0
 27 28  1  0
 27 48  1  0
 27 49  1  0
 28 50  1  1
 29 30  1  0
 29 51  1  0
 30 52  1  0
M  CHG  1  21   1
M  END
>  <i_m_ct_stereo_status>  (210) 
1

>  <s_m_source_file>  (210) 
/var/tmp/pbs.5076255.sched01/tmpy0mqr2dw/78t3ouse6d.sdf

>  <i_m_source_file_index>  (210) 
9

>  <i_lp_mmshare_version>  (210) 
48012

>  <i_f3d_flags>  (210) 
0

>  <s_epik_input>  (210) 
W09IXWMxW2NIXVtjSF1jKFtjSF1bY0hdMSlbQ0gyXU4yW0NASF0oW0NIMl1bQ0gyXVtDSDJdMylbQ0BASF0zW0NAQEhdNGMoW2NIXVtuSF1jNVtjSF1bY0hdbjYpYzVjNmMoYzRjMjcpbltjSF1bY0hdNw==

>  <s_epik_cmdline>  (210) 
J2VwaWtfcHl0aG9uJywgJy1waHQnLCAnMi4wJywgJy1waCcsICc3LjAnLCAnLXRuJywgJzgnLCAnLW1hJywgJzIwMCcsICctaW1hZScsICc8aW5maWxlLm1hZT4nLCAnLW9tYWUnLCAnPG91dGZpbGUubWFlPic=

>  <r_lp_tautomer_probability>  (210) 
1

>  <r_epik_Ionization_Penalty>  (210) 
0.0967478

>  <r_epik_Ionization_Penalty_Charging>  (210) 
0.0527655

>  <r_epik_Ionization_Penalty_Neutral>  (210) 
0.0439823

>  <r_epik_State_Penalty>  (210) 
0.0797949

>  <r_epik_Charging_Adjusted_Penalty>  (210) 
0.13256

>  <i_epik_Tot_Q>  (210) 
1

>  <i_epik_Tot_abs_Q>  (210) 
1

>  <s_lp_Force_Field>  (210) 
OPLS3e

>  <r_lp_Energy>  (210) 
72.8661

>  <b_lp_Chiralities_Consistent>  (210) 
1

>  <s_lp_Variant>  (210) 
66:0-1

>  <s_i_glide_gridfile>  (210) 
pfpi4k_grid

>  <i_i_glide_lignum>  (210) 
9

>  <i_i_glide_rotatable_bonds>  (210) 
3

>  <r_i_docking_score>  (210) 
-4.44092

>  <r_i_glide_ligand_efficiency>  (210) 
-0.148031

>  <r_i_glide_ligand_efficiency_sa>  (210) 
-0.459966

>  <r_i_glide_ligand_efficiency_ln>  (210) 
-1.00903

>  <r_i_glide_gscore>  (210) 
-4.44092

>  <r_i_glide_lipo>  (210) 
-0.793804

>  <r_i_glide_hbond>  (210) 
-0.283862

>  <r_i_glide_metal>  (210) 
-0

>  <r_i_glide_rewards>  (210) 
-0.754389

>  <r_i_glide_evdw>  (210) 
-31.356

>  <r_i_glide_ecoul>  (210) 
-7.90801

>  <r_i_glide_erotb>  (210) 
0.250065

>  <r_i_glide_esite>  (210) 
-0.104931

>  <r_i_glide_emodel>  (210) 
-50.8037

>  <r_i_glide_energy>  (210) 
-39.264

>  <r_i_glide_einternal>  (210) 
0.986156

>  <r_i_glide_intrahb_reward>  (210) 
-0

>  <i_i_glide_confnum>  (210) 
1

>  <i_i_glide_posenum>  (210) 
35

>  <r_i_glide_eff_state_penalty>  (210) 
0

>  <ligand_id>  (210) 
66

>  <original_smiles>  (210) 
Oc1ccc(CN2c3ccnc4c3C(c3c[nH]c5ccnc-4c35)C3CCCC32)cc1

>  <smiles>  (210) 
[H]Oc1c([H])c([H])c(C([H])([H])N2c3c([H])c([H])nc4c3C([H])(c3c([H])n([H])c5c([H])c([H])[n+]([H])c-4c35)C3([H])C([H])([H])C([H])([H])C([H])([H])C23[H])c([H])c1[H]

$$$$
66:0:1
     RDKit          3D

 53 59  0  0  1  0  0  0  0  0999 V2000
    4.2148   -2.3472   -3.8093 O   0  0  0  0  0  0  0  0  0  0  0  0
    4.4793   -2.6779   -2.5133 C   0  0  0  0  0  0  0  0  0  0  0  0
    5.7713   -3.0874   -2.0955 C   0  0  0  0  0  0  0  0  0  0  0  0
    6.0138   -3.4303   -0.7402 C   0  0  0  0  0  0  0  0  0  0  0  0
    4.9627   -3.3675    0.2048 C   0  0  0  0  0  0  0  0  0  0  0  0
    5.2174   -3.7467    1.6641 C   0  0  0  0  0  0  0  0  0  0  0  0
    4.3307   -4.7825    2.1983 N   0  0  0  0  0  0  0  0  0  0  0  0
    4.5986   -6.1681    1.9765 C   0  0  0  0  0  0  0  0  0  0  0  0
    5.8116   -6.6324    1.4200 C   0  0  0  0  0  0  0  0  0  0  0  0
    6.0740   -8.0120    1.3200 C   0  0  0  0  0  0  0  0  0  0  0  0
    5.2219   -8.9695    1.7271 N   0  0  0  0  0  0  0  0  0  0  0  0
    4.0383   -8.5994    2.2388 C   0  0  0  0  0  0  0  0  0  0  0  0
    3.7084   -7.2180    2.3420 C   0  0  0  0  0  0  0  0  0  0  0  0
    2.2978   -6.8360    2.8870 C   0  0  1  0  0  0  0  0  0  0  0  0
    1.5199   -7.8521    3.7272 C   0  0  0  0  0  0  0  0  0  0  0  0
    0.3936   -7.9378    4.5158 C   0  0  0  0  0  0  0  0  0  0  0  0
    0.2611   -9.2986    4.8154 N   0  0  0  0  0  0  0  0  0  0  0  0
    1.2664  -10.0033    4.2371 C   0  0  0  0  0  0  0  0  0  0  0  0
    1.6005  -11.3545    4.2242 C   0  0  0  0  0  0  0  0  0  0  0  0
    2.7361  -11.8142    3.5279 C   0  0  0  0  0  0  0  0  0  0  0  0
    3.5149  -10.9342    2.8713 N   0  0  0  0  0  0  0  0  0  0  0  0
    3.1897   -9.6073    2.8595 C   0  0  0  0  0  0  0  0  0  0  0  0
    2.0798   -9.1433    3.5399 C   0  0  0  0  0  0  0  0  0  0  0  0
    2.3498   -5.4300    3.5248 C   0  0  2  0  0  0  0  0  0  0  0  0
    1.0351   -4.7262    3.9116 C   0  0  0  0  0  0  0  0  0  0  0  0
    1.2825   -3.2114    3.7179 C   0  0  0  0  0  0  0  0  0  0  0  0
    2.6748   -3.0713    3.1163 C   0  0  0  0  0  0  0  0  0  0  0  0
    2.9432   -4.4699    2.5131 C   0  0  1  0  0  0  0  0  0  0  0  0
    3.6849   -2.9356   -0.2348 C   0  0  0  0  0  0  0  0  0  0  0  0
    3.4377   -2.6064   -1.5731 C   0  0  0  0  0  0  0  0  0  0  0  0
   -0.4858   -9.7447    5.3442 H   0  0  0  0  0  0  0  0  0  0  0  0
    3.3055   -2.1073   -3.8967 H   0  0  0  0  0  0  0  0  0  0  0  0
    6.5707   -3.1523   -2.8165 H   0  0  0  0  0  0  0  0  0  0  0  0
    6.9988   -3.7533   -0.4327 H   0  0  0  0  0  0  0  0  0  0  0  0
    6.2545   -4.0489    1.8156 H   0  0  0  0  0  0  0  0  0  0  0  0
    5.1495   -2.8369    2.2656 H   0  0  0  0  0  0  0  0  0  0  0  0
    6.5764   -5.9710    1.0632 H   0  0  0  0  0  0  0  0  0  0  0  0
    7.0057   -8.3545    0.8999 H   0  0  0  0  0  0  0  0  0  0  0  0
    1.7270   -6.7392    1.9688 H   0  0  0  0  0  0  0  0  0  0  0  0
   -0.3026   -7.1663    4.8482 H   0  0  0  0  0  0  0  0  0  0  0  0
    0.9846  -12.0506    4.7704 H   0  0  0  0  0  0  0  0  0  0  0  0
    3.0471  -12.8507    3.4721 H   0  0  0  0  0  0  0  0  0  0  0  0
    3.0022   -5.4629    4.4008 H   0  0  0  0  0  0  0  0  0  0  0  0
    0.2150   -5.0534    3.2695 H   0  0  0  0  0  0  0  0  0  0  0  0
    0.7666   -4.9434    4.9450 H   0  0  0  0  0  0  0  0  0  0  0  0
    0.5450   -2.7879    3.0363 H   0  0  0  0  0  0  0  0  0  0  0  0
    1.2211   -2.6482    4.6485 H   0  0  0  0  0  0  0  0  0  0  0  0
    2.6983   -2.2288    2.4333 H   0  0  0  0  0  0  0  0  0  0  0  0
    3.4023   -2.8361    3.8921 H   0  0  0  0  0  0  0  0  0  0  0  0
    2.3563   -4.6131    1.6077 H   0  0  0  0  0  0  0  0  0  0  0  0
    2.8262   -2.8375    0.3977 H   0  0  0  0  0  0  0  0  0  0  0  0
    2.4324   -2.3023   -1.8316 H   0  0  0  0  0  0  0  0  0  0  0  0
    4.3004  -11.2607    2.2989 H   0  0  0  0  0  0  0  0  0  0  0  0
  1  2  1  0
  1 32  1  0
  2 30  2  0
  2  3  1  0
  3  4  2  0
  3 33  1  0
  4  5  1  0
  4 34  1  0
  5  6  1  0
  5 29  2  0
  6  7  1  0
  6 35  1  0
  6 36  1  0
  7 28  1  0
  7  8  1  0
  8 13  1  0
  8  9  2  0
  9 10  1  0
  9 37  1  0
 10 11  2  0
 10 38  1  0
 11 12  1  0
 12 22  1  0
 12 13  2  0
 13 14  1  0
 14 15  1  0
 14 24  1  0
 14 39  1  6
 15 23  1  0
 15 16  2  0
 16 17  1  0
 16 40  1  0
 17 31  1  0
 17 18  1  0
 18 23  2  0
 18 19  1  0
 19 20  2  0
 19 41  1  0
 20 21  1  0
 20 42  1  0
 21 22  2  0
 21 53  1  0
 22 23  1  0
 24 28  1  0
 24 25  1  0
 24 43  1  1
 25 26  1  0
 25 44  1  0
 25 45  1  0
 26 27  1  0
 26 46  1  0
 26 47  1  0
 27 28  1  0
 27 48  1  0
 27 49  1  0
 28 50  1  6
 29 30  1  0
 29 51  1  0
 30 52  1  0
M  CHG  1  21   1
M  END
>  <i_m_ct_stereo_status>  (211) 
1

>  <s_m_source_file>  (211) 
/var/tmp/pbs.5076255.sched01/tmpy0mqr2dw/78t3ouse6d.sdf

>  <i_m_source_file_index>  (211) 
9

>  <i_lp_mmshare_version>  (211) 
48012

>  <i_f3d_flags>  (211) 
0

>  <s_epik_input>  (211) 
W09IXWMxW2NIXVtjSF1jKFtjSF1bY0hdMSlbQ0gyXU4yW0NASF0oW0NIMl1bQ0gyXVtDSDJdMylbQ0BASF0zW0NAQEhdNGMoW2NIXVtuSF1jNVtjSF1bY0hdbjYpYzVjNmMoYzRjMjcpbltjSF1bY0hdNw==

>  <s_epik_cmdline>  (211) 
J2VwaWtfcHl0aG9uJywgJy1waHQnLCAnMi4wJywgJy1waCcsICc3LjAnLCAnLXRuJywgJzgnLCAnLW1hJywgJzIwMCcsICctaW1hZScsICc8aW5maWxlLm1hZT4nLCAnLW9tYWUnLCAnPG91dGZpbGUubWFlPic=

>  <r_lp_tautomer_probability>  (211) 
1

>  <r_epik_Ionization_Penalty>  (211) 
0.0967478

>  <r_epik_Ionization_Penalty_Charging>  (211) 
0.0527655

>  <r_epik_Ionization_Penalty_Neutral>  (211) 
0.0439823

>  <r_epik_State_Penalty>  (211) 
0.0797949

>  <r_epik_Charging_Adjusted_Penalty>  (211) 
0.13256

>  <i_epik_Tot_Q>  (211) 
1

>  <i_epik_Tot_abs_Q>  (211) 
1

>  <s_lp_Force_Field>  (211) 
OPLS3e

>  <r_lp_Energy>  (211) 
72.8661

>  <b_lp_Chiralities_Consistent>  (211) 
1

>  <s_lp_Variant>  (211) 
66:0-1

>  <s_i_glide_gridfile>  (211) 
pfpi4k_grid

>  <i_i_glide_lignum>  (211) 
9

>  <i_i_glide_rotatable_bonds>  (211) 
3

>  <r_i_docking_score>  (211) 
-4.26198

>  <r_i_glide_ligand_efficiency>  (211) 
-0.142066

>  <r_i_glide_ligand_efficiency_sa>  (211) 
-0.441433

>  <r_i_glide_ligand_efficiency_ln>  (211) 
-0.968369

>  <r_i_glide_gscore>  (211) 
-4.26198

>  <r_i_glide_lipo>  (211) 
-0.724258

>  <r_i_glide_hbond>  (211) 
-0.2383

>  <r_i_glide_metal>  (211) 
-0

>  <r_i_glide_rewards>  (211) 
-0.72253

>  <r_i_glide_evdw>  (211) 
-30.0666

>  <r_i_glide_ecoul>  (211) 
-7.96098

>  <r_i_glide_erotb>  (211) 
0.250065

>  <r_i_glide_esite>  (211) 
-0.129482

>  <r_i_glide_emodel>  (211) 
-49.1769

>  <r_i_glide_energy>  (211) 
-38.0276

>  <r_i_glide_einternal>  (211) 
0.896361

>  <r_i_glide_intrahb_reward>  (211) 
-0

>  <i_i_glide_confnum>  (211) 
4

>  <i_i_glide_posenum>  (211) 
38

>  <r_i_glide_eff_state_penalty>  (211) 
0

>  <ligand_id>  (211) 
66

>  <original_smiles>  (211) 
Oc1ccc(CN2c3ccnc4c3C(c3c[nH]c5ccnc-4c35)C3CCCC32)cc1

>  <smiles>  (211) 
[H]Oc1c([H])c([H])c(C([H])([H])N2c3c([H])c([H])nc4c3C([H])(c3c([H])n([H])c5c([H])c([H])[n+]([H])c-4c35)C3([H])C([H])([H])C([H])([H])C([H])([H])C23[H])c([H])c1[H]

$$$$
66:0:2
     RDKit          3D

 53 59  0  0  1  0  0  0  0  0999 V2000
    4.5052   -1.0242   -2.1420 O   0  0  0  0  0  0  0  0  0  0  0  0
    4.6029   -1.5828   -0.9015 C   0  0  0  0  0  0  0  0  0  0  0  0
    5.1674   -0.8614    0.1703 C   0  0  0  0  0  0  0  0  0  0  0  0
    5.2735   -1.4398    1.4481 C   0  0  0  0  0  0  0  0  0  0  0  0
    4.8135   -2.7588    1.6600 C   0  0  0  0  0  0  0  0  0  0  0  0
    4.9349   -3.3622    3.0521 C   0  0  0  0  0  0  0  0  0  0  0  0
    4.0451   -4.4912    3.3375 N   0  0  0  0  0  0  0  0  0  0  0  0
    4.3715   -5.7996    2.9003 C   0  0  0  0  0  0  0  0  0  0  0  0
    5.6291   -6.1345    2.3537 C   0  0  0  0  0  0  0  0  0  0  0  0
    5.9347   -7.4586    1.9997 C   0  0  0  0  0  0  0  0  0  0  0  0
    5.0813   -8.4872    2.1611 N   0  0  0  0  0  0  0  0  0  0  0  0
    3.8528   -8.2283    2.6500 C   0  0  0  0  0  0  0  0  0  0  0  0
    3.4702   -6.9034    2.9851 C   0  0  0  0  0  0  0  0  0  0  0  0
    2.0033   -6.6293    3.4448 C   0  0  1  0  0  0  0  0  0  0  0  0
    1.2034   -7.8054    4.0174 C   0  0  0  0  0  0  0  0  0  0  0  0
    0.0212   -8.0502    4.6936 C   0  0  0  0  0  0  0  0  0  0  0  0
   -0.1013   -9.4458    4.7452 N   0  0  0  0  0  0  0  0  0  0  0  0
    0.9693  -10.0292    4.1330 C   0  0  0  0  0  0  0  0  0  0  0  0
    1.3394  -11.3471    3.9103 C   0  0  0  0  0  0  0  0  0  0  0  0
    2.5453  -11.6477    3.2400 C   0  0  0  0  0  0  0  0  0  0  0  0
    3.3355  -10.6479    2.7999 N   0  0  0  0  0  0  0  0  0  0  0  0
    2.9860   -9.3506    2.9999 C   0  0  0  0  0  0  0  0  0  0  0  0
    1.8011   -9.0358    3.6644 C   0  0  0  0  0  0  0  0  0  0  0  0
    1.9614   -5.3554    4.3025 C   0  0  2  0  0  0  0  0  0  0  0  0
    0.6137   -4.7575    4.7130 C   0  0  0  0  0  0  0  0  0  0  0  0
    0.8253   -3.2281    4.7915 C   0  0  0  0  0  0  0  0  0  0  0  0
    2.2546   -2.9594    4.3142 C   0  0  0  0  0  0  0  0  0  0  0  0
    2.6249   -4.2271    3.5279 C   0  0  1  0  0  0  0  0  0  0  0  0
    4.2520   -3.4784    0.5786 C   0  0  0  0  0  0  0  0  0  0  0  0
    4.1403   -2.8970   -0.6951 C   0  0  0  0  0  0  0  0  0  0  0  0
   -0.8809   -9.9972    5.1292 H   0  0  0  0  0  0  0  0  0  0  0  0
    3.9101   -1.5067   -2.6932 H   0  0  0  0  0  0  0  0  0  0  0  0
    5.5187    0.1356    0.0233 H   0  0  0  0  0  0  0  0  0  0  0  0
    5.6989   -0.8685    2.2605 H   0  0  0  0  0  0  0  0  0  0  0  0
    5.9670   -3.6515    3.2245 H   0  0  0  0  0  0  0  0  0  0  0  0
    4.7652   -2.5623    3.7801 H   0  0  0  0  0  0  0  0  0  0  0  0
    6.3955   -5.3932    2.1779 H   0  0  0  0  0  0  0  0  0  0  0  0
    6.9000   -7.7045    1.5971 H   0  0  0  0  0  0  0  0  0  0  0  0
    1.5086   -6.3809    2.5139 H   0  0  0  0  0  0  0  0  0  0  0  0
   -0.7210   -7.3624    5.0984 H   0  0  0  0  0  0  0  0  0  0  0  0
    0.7035  -12.1398    4.2552 H   0  0  0  0  0  0  0  0  0  0  0  0
    2.8798  -12.6505    3.0084 H   0  0  0  0  0  0  0  0  0  0  0  0
    2.5393   -5.5352    5.2116 H   0  0  0  0  0  0  0  0  0  0  0  0
   -0.1542   -4.9841    3.9719 H   0  0  0  0  0  0  0  0  0  0  0  0
    0.2756   -5.1584    5.6699 H   0  0  0  0  0  0  0  0  0  0  0  0
    0.1107   -2.7115    4.1506 H   0  0  0  0  0  0  0  0  0  0  0  0
    0.6848   -2.8470    5.8029 H   0  0  0  0  0  0  0  0  0  0  0  0
    2.3285   -2.0592    3.7073 H   0  0  0  0  0  0  0  0  0  0  0  0
    2.9105   -2.8302    5.1733 H   0  0  0  0  0  0  0  0  0  0  0  0
    2.1583   -4.1403    2.5440 H   0  0  0  0  0  0  0  0  0  0  0  0
    3.8915   -4.4815    0.6957 H   0  0  0  0  0  0  0  0  0  0  0  0
    3.7069   -3.4779   -1.4989 H   0  0  0  0  0  0  0  0  0  0  0  0
    4.1949  -10.8714    2.2874 H   0  0  0  0  0  0  0  0  0  0  0  0
  1  2  1  0
  1 32  1  0
  2 30  2  0
  2  3  1  0
  3  4  2  0
  3 33  1  0
  4  5  1  0
  4 34  1  0
  5  6  1  0
  5 29  2  0
  6  7  1  0
  6 35  1  0
  6 36  1  0
  7 28  1  0
  7  8  1  0
  8 13  1  0
  8  9  2  0
  9 10  1  0
  9 37  1  0
 10 11  2  0
 10 38  1  0
 11 12  1  0
 12 22  1  0
 12 13  2  0
 13 14  1  0
 14 15  1  0
 14 24  1  0
 14 39  1  6
 15 23  1  0
 15 16  2  0
 16 17  1  0
 16 40  1  0
 17 31  1  0
 17 18  1  0
 18 23  2  0
 18 19  1  0
 19 20  2  0
 19 41  1  0
 20 21  1  0
 20 42  1  0
 21 22  2  0
 21 53  1  0
 22 23  1  0
 24 28  1  0
 24 25  1  0
 24 43  1  1
 25 26  1  0
 25 44  1  0
 25 45  1  0
 26 27  1  0
 26 46  1  0
 26 47  1  0
 27 28  1  0
 27 48  1  0
 27 49  1  0
 28 50  1  6
 29 30  1  0
 29 51  1  0
 30 52  1  0
M  CHG  1  21   1
M  END
>  <i_m_ct_stereo_status>  (212) 
1

>  <s_m_source_file>  (212) 
/var/tmp/pbs.5076255.sched01/tmpy0mqr2dw/78t3ouse6d.sdf

>  <i_m_source_file_index>  (212) 
9

>  <i_lp_mmshare_version>  (212) 
48012

>  <i_f3d_flags>  (212) 
0

>  <s_epik_input>  (212) 
W09IXWMxW2NIXVtjSF1jKFtjSF1bY0hdMSlbQ0gyXU4yW0NASF0oW0NIMl1bQ0gyXVtDSDJdMylbQ0BASF0zW0NAQEhdNGMoW2NIXVtuSF1jNVtjSF1bY0hdbjYpYzVjNmMoYzRjMjcpbltjSF1bY0hdNw==

>  <s_epik_cmdline>  (212) 
J2VwaWtfcHl0aG9uJywgJy1waHQnLCAnMi4wJywgJy1waCcsICc3LjAnLCAnLXRuJywgJzgnLCAnLW1hJywgJzIwMCcsICctaW1hZScsICc8aW5maWxlLm1hZT4nLCAnLW9tYWUnLCAnPG91dGZpbGUubWFlPic=

>  <r_lp_tautomer_probability>  (212) 
1

>  <r_epik_Ionization_Penalty>  (212) 
0.0967478

>  <r_epik_Ionization_Penalty_Charging>  (212) 
0.0527655

>  <r_epik_Ionization_Penalty_Neutral>  (212) 
0.0439823

>  <r_epik_State_Penalty>  (212) 
0.0797949

>  <r_epik_Charging_Adjusted_Penalty>  (212) 
0.13256

>  <i_epik_Tot_Q>  (212) 
1

>  <i_epik_Tot_abs_Q>  (212) 
1

>  <s_lp_Force_Field>  (212) 
OPLS3e

>  <r_lp_Energy>  (212) 
72.8661

>  <b_lp_Chiralities_Consistent>  (212) 
1

>  <s_lp_Variant>  (212) 
66:0-1

>  <s_i_glide_gridfile>  (212) 
pfpi4k_grid

>  <i_i_glide_lignum>  (212) 
9

>  <i_i_glide_rotatable_bonds>  (212) 
3

>  <r_i_docking_score>  (212) 
-3.88879

>  <r_i_glide_ligand_efficiency>  (212) 
-0.129626

>  <r_i_glide_ligand_efficiency_sa>  (212) 
-0.402779

>  <r_i_glide_ligand_efficiency_ln>  (212) 
-0.883576

>  <r_i_glide_gscore>  (212) 
-3.88879

>  <r_i_glide_lipo>  (212) 
-0.51381

>  <r_i_glide_hbond>  (212) 
-0.177766

>  <r_i_glide_metal>  (212) 
-0

>  <r_i_glide_rewards>  (212) 
-0.712661

>  <r_i_glide_evdw>  (212) 
-25.6609

>  <r_i_glide_ecoul>  (212) 
-8.71261

>  <r_i_glide_erotb>  (212) 
0.250065

>  <r_i_glide_esite>  (212) 
-0.144681

>  <r_i_glide_emodel>  (212) 
-45.0309

>  <r_i_glide_energy>  (212) 
-34.3736

>  <r_i_glide_einternal>  (212) 
1.00706

>  <r_i_glide_intrahb_reward>  (212) 
-0

>  <i_i_glide_confnum>  (212) 
3

>  <i_i_glide_posenum>  (212) 
13

>  <r_i_glide_eff_state_penalty>  (212) 
0

>  <ligand_id>  (212) 
66

>  <original_smiles>  (212) 
Oc1ccc(CN2c3ccnc4c3C(c3c[nH]c5ccnc-4c35)C3CCCC32)cc1

>  <smiles>  (212) 
[H]Oc1c([H])c([H])c(C([H])([H])N2c3c([H])c([H])nc4c3C([H])(c3c([H])n([H])c5c([H])c([H])[n+]([H])c-4c35)C3([H])C([H])([H])C([H])([H])C([H])([H])C23[H])c([H])c1[H]

$$$$
66:1:0
     RDKit          3D

 52 58  0  0  1  0  0  0  0  0999 V2000
    4.7983   -0.6554   -2.3229 O   0  0  0  0  0  0  0  0  0  0  0  0
    5.1368   -1.4893   -1.3096 C   0  0  0  0  0  0  0  0  0  0  0  0
    5.3466   -2.8601   -1.5688 C   0  0  0  0  0  0  0  0  0  0  0  0
    5.6753   -3.7255   -0.5054 C   0  0  0  0  0  0  0  0  0  0  0  0
    5.8082   -3.2212    0.8047 C   0  0  0  0  0  0  0  0  0  0  0  0
    6.1167   -4.1638    1.9501 C   0  0  0  0  0  0  0  0  0  0  0  0
    5.1704   -5.2676    2.1328 N   0  0  0  0  0  0  0  0  0  0  0  0
    3.8424   -5.0288    2.5695 C   0  0  0  0  0  0  0  0  0  0  0  0
    3.3100   -3.7248    2.7197 C   0  0  0  0  0  0  0  0  0  0  0  0
    1.9743   -3.5226    3.0778 C   0  0  0  0  0  0  0  0  0  0  0  0
    1.1133   -4.5287    3.3027 N   0  0  0  0  0  0  0  0  0  0  0  0
    1.5450   -5.7995    3.1991 C   0  0  0  0  0  0  0  0  0  0  0  0
    2.9008   -6.0536    2.8711 C   0  0  0  0  0  0  0  0  0  0  0  0
    3.3983   -7.5337    2.8530 C   0  0  1  0  0  0  0  0  0  0  0  0
    2.3441   -8.6306    2.7032 C   0  0  0  0  0  0  0  0  0  0  0  0
    2.2815   -9.9869    2.4805 C   0  0  0  0  0  0  0  0  0  0  0  0
    0.9372  -10.3251    2.6113 N   0  0  0  0  0  0  0  0  0  0  0  0
    0.1988   -9.2221    2.9141 C   0  0  0  0  0  0  0  0  0  0  0  0
   -1.1492   -9.0084    3.1450 C   0  0  0  0  0  0  0  0  0  0  0  0
   -1.5938   -7.7127    3.4542 C   0  0  0  0  0  0  0  0  0  0  0  0
   -0.7582   -6.6655    3.5059 N   0  0  0  0  0  0  0  0  0  0  0  0
    0.5644   -6.8740    3.2825 C   0  0  0  0  0  0  0  0  0  0  0  0
    1.0457   -8.1481    2.9905 C   0  0  0  0  0  0  0  0  0  0  0  0
    4.6120   -7.6635    1.9033 C   0  0  2  0  0  0  0  0  0  0  0  0
    5.4104   -8.9780    1.8756 C   0  0  0  0  0  0  0  0  0  0  0  0
    6.8530   -8.5750    1.5113 C   0  0  0  0  0  0  0  0  0  0  0  0
    6.9033   -7.0395    1.5146 C   0  0  0  0  0  0  0  0  0  0  0  0
    5.6573   -6.6311    2.3121 C   0  0  1  0  0  0  0  0  0  0  0  0
    5.6278   -1.8423    1.0478 C   0  0  0  0  0  0  0  0  0  0  0  0
    5.2739   -0.9784   -0.0024 C   0  0  0  0  0  0  0  0  0  0  0  0
    0.5606  -11.2544    2.4832 H   0  0  0  0  0  0  0  0  0  0  0  0
    4.6099    0.2236   -2.0309 H   0  0  0  0  0  0  0  0  0  0  0  0
    5.2411   -3.2475   -2.5678 H   0  0  0  0  0  0  0  0  0  0  0  0
    5.8073   -4.7781   -0.6962 H   0  0  0  0  0  0  0  0  0  0  0  0
    7.1269   -4.5334    1.7659 H   0  0  0  0  0  0  0  0  0  0  0  0
    6.1807   -3.6028    2.8806 H   0  0  0  0  0  0  0  0  0  0  0  0
    3.8952   -2.8450    2.5594 H   0  0  0  0  0  0  0  0  0  0  0  0
    1.5838   -2.5241    3.1603 H   0  0  0  0  0  0  0  0  0  0  0  0
    3.7966   -7.6678    3.8581 H   0  0  0  0  0  0  0  0  0  0  0  0
    3.0501  -10.7128    2.2434 H   0  0  0  0  0  0  0  0  0  0  0  0
   -1.8485   -9.8382    3.1280 H   0  0  0  0  0  0  0  0  0  0  0  0
   -2.6394   -7.5254    3.6620 H   0  0  0  0  0  0  0  0  0  0  0  0
    4.2668   -7.4538    0.8873 H   0  0  0  0  0  0  0  0  0  0  0  0
    5.4016   -9.4580    2.8551 H   0  0  0  0  0  0  0  0  0  0  0  0
    4.9978   -9.6808    1.1508 H   0  0  0  0  0  0  0  0  0  0  0  0
    7.5470   -8.9701    2.2509 H   0  0  0  0  0  0  0  0  0  0  0  0
    7.1591   -8.9783    0.5448 H   0  0  0  0  0  0  0  0  0  0  0  0
    7.8285   -6.6724    1.9563 H   0  0  0  0  0  0  0  0  0  0  0  0
    6.8595   -6.6602    0.4932 H   0  0  0  0  0  0  0  0  0  0  0  0
    5.8964   -6.7549    3.3689 H   0  0  0  0  0  0  0  0  0  0  0  0
    5.7095   -1.4476    2.0492 H   0  0  0  0  0  0  0  0  0  0  0  0
    5.0959    0.0668    0.1999 H   0  0  0  0  0  0  0  0  0  0  0  0
  1  2  1  0
  1 32  1  0
  2 30  2  0
  2  3  1  0
  3  4  2  0
  3 33  1  0
  4  5  1  0
  4 34  1  0
  5  6  1  0
  5 29  2  0
  6  7  1  0
  6 35  1  0
  6 36  1  0
  7 28  1  0
  7  8  1  0
  8 13  1  0
  8  9  2  0
  9 10  1  0
  9 37  1  0
 10 11  2  0
 10 38  1  0
 11 12  1  0
 12 22  1  0
 12 13  2  0
 13 14  1  0
 14 15  1  0
 14 24  1  0
 14 39  1  1
 15 23  1  0
 15 16  2  0
 16 17  1  0
 16 40  1  0
 17 31  1  0
 17 18  1  0
 18 23  2  0
 18 19  1  0
 19 20  2  0
 19 41  1  0
 20 21  1  0
 20 42  1  0
 21 22  2  0
 22 23  1  0
 24 28  1  0
 24 25  1  0
 24 43  1  6
 25 26  1  0
 25 44  1  0
 25 45  1  0
 26 27  1  0
 26 46  1  0
 26 47  1  0
 27 28  1  0
 27 48  1  0
 27 49  1  0
 28 50  1  1
 29 30  1  0
 29 51  1  0
 30 52  1  0
M  END
>  <i_m_ct_stereo_status>  (213) 
1

>  <s_m_source_file>  (213) 
/var/tmp/pbs.5076255.sched01/tmpy0mqr2dw/78t3ouse6d.sdf

>  <i_m_source_file_index>  (213) 
10

>  <i_lp_mmshare_version>  (213) 
48012

>  <i_f3d_flags>  (213) 
0

>  <s_epik_input>  (213) 
W09IXWMxW2NIXVtjSF1jKFtjSF1bY0hdMSlbQ0gyXU4yW0NASF0oW0NIMl1bQ0gyXVtDSDJdMylbQ0BASF0zW0NAQEhdNGMoW2NIXVtuSF1jNVtjSF1bY0hdbjYpYzVjNmMoYzRjMjcpbltjSF1bY0hdNw==

>  <s_epik_cmdline>  (213) 
J2VwaWtfcHl0aG9uJywgJy1waHQnLCAnMi4wJywgJy1waCcsICc3LjAnLCAnLXRuJywgJzgnLCAnLW1hJywgJzIwMCcsICctaW1hZScsICc8aW5maWxlLm1hZT4nLCAnLW9tYWUnLCAnPG91dGZpbGUubWFlPic=

>  <r_lp_tautomer_probability>  (213) 
0.999931

>  <r_epik_Ionization_Penalty>  (213) 
1.46045

>  <r_epik_Ionization_Penalty_Charging>  (213) 
0

>  <r_epik_Ionization_Penalty_Neutral>  (213) 
1.46045

>  <r_epik_State_Penalty>  (213) 
1.58046

>  <r_epik_Charging_Adjusted_Penalty>  (213) 
1.58046

>  <i_epik_Tot_Q>  (213) 
0

>  <i_epik_Tot_abs_Q>  (213) 
0

>  <s_lp_Force_Field>  (213) 
OPLS3e

>  <r_lp_Energy>  (213) 
70.558

>  <b_lp_Chiralities_Consistent>  (213) 
1

>  <s_lp_Variant>  (213) 
66:0-2

>  <s_i_glide_gridfile>  (213) 
pfpi4k_grid

>  <i_i_glide_lignum>  (213) 
10

>  <i_i_glide_rotatable_bonds>  (213) 
3

>  <r_i_docking_score>  (213) 
-3.48498

>  <r_i_glide_ligand_efficiency>  (213) 
-0.116166

>  <r_i_glide_ligand_efficiency_sa>  (213) 
-0.360955

>  <r_i_glide_ligand_efficiency_ln>  (213) 
-0.791825

>  <r_i_glide_gscore>  (213) 
-3.48498

>  <r_i_glide_lipo>  (213) 
-0.600904

>  <r_i_glide_hbond>  (213) 
-0.311414

>  <r_i_glide_metal>  (213) 
-0

>  <r_i_glide_rewards>  (213) 
-0.739873

>  <r_i_glide_evdw>  (213) 
-31.6834

>  <r_i_glide_ecoul>  (213) 
-3.33221

>  <r_i_glide_erotb>  (213) 
0.251215

>  <r_i_glide_esite>  (213) 
0

>  <r_i_glide_emodel>  (213) 
-43.8453

>  <r_i_glide_energy>  (213) 
-35.0156

>  <r_i_glide_einternal>  (213) 
0.304984

>  <r_i_glide_intrahb_reward>  (213) 
-0

>  <i_i_glide_confnum>  (213) 
6

>  <i_i_glide_posenum>  (213) 
26

>  <r_i_glide_eff_state_penalty>  (213) 
0

>  <ligand_id>  (213) 
66

>  <original_smiles>  (213) 
Oc1ccc(CN2c3ccnc4c3C(c3c[nH]c5ccnc-4c35)C3CCCC32)cc1

>  <smiles>  (213) 
[H]Oc1c([H])c([H])c(C([H])([H])N2c3c([H])c([H])nc4c3C([H])(c3c([H])n([H])c5c([H])c([H])nc-4c35)C3([H])C([H])([H])C([H])([H])C([H])([H])C23[H])c([H])c1[H]

$$$$
66:1:1
     RDKit          3D

 52 58  0  0  1  0  0  0  0  0999 V2000
    4.2134   -1.3647   -3.6661 O   0  0  0  0  0  0  0  0  0  0  0  0
    4.6271   -1.8616   -2.4663 C   0  0  0  0  0  0  0  0  0  0  0  0
    5.7780   -2.6725   -2.3583 C   0  0  0  0  0  0  0  0  0  0  0  0
    6.1884   -3.1722   -1.1006 C   0  0  0  0  0  0  0  0  0  0  0  0
    5.4609   -2.8443    0.0660 C   0  0  0  0  0  0  0  0  0  0  0  0
    5.9055   -3.4224    1.4143 C   0  0  0  0  0  0  0  0  0  0  0  0
    5.3088   -4.7190    1.7835 N   0  0  0  0  0  0  0  0  0  0  0  0
    3.9855   -4.8082    2.3198 C   0  0  0  0  0  0  0  0  0  0  0  0
    3.1646   -3.6560    2.4601 C   0  0  0  0  0  0  0  0  0  0  0  0
    1.8270   -3.8045    2.8608 C   0  0  0  0  0  0  0  0  0  0  0  0
    1.2498   -4.9668    3.1769 N   0  0  0  0  0  0  0  0  0  0  0  0
    2.0116   -6.0879    3.1617 C   0  0  0  0  0  0  0  0  0  0  0  0
    3.3732   -6.0058    2.7536 C   0  0  0  0  0  0  0  0  0  0  0  0
    4.2492   -7.2887    2.8328 C   0  0  1  0  0  0  0  0  0  0  0  0
    3.5204   -8.6372    2.8721 C   0  0  0  0  0  0  0  0  0  0  0  0
    3.8079   -9.9709    2.7606 C   0  0  0  0  0  0  0  0  0  0  0  0
    2.6145  -10.6391    3.0331 N   0  0  0  0  0  0  0  0  0  0  0  0
    1.6265   -9.7425    3.3084 C   0  0  0  0  0  0  0  0  0  0  0  0
    0.2850   -9.8489    3.6415 C   0  0  0  0  0  0  0  0  0  0  0  0
   -0.4792   -8.6882    3.8615 C   0  0  0  0  0  0  0  0  0  0  0  0
    0.0385   -7.4513    3.7483 N   0  0  0  0  0  0  0  0  0  0  0  0
    1.3634   -7.3518    3.4305 C   0  0  0  0  0  0  0  0  0  0  0  0
    2.1561   -8.4752    3.2194 C   0  0  0  0  0  0  0  0  0  0  0  0
    5.4022   -7.1953    1.8026 C   0  0  2  0  0  0  0  0  0  0  0  0
    6.5286   -8.2469    1.8228 C   0  0  0  0  0  0  0  0  0  0  0  0
    7.7887   -7.5233    1.3107 C   0  0  0  0  0  0  0  0  0  0  0  0
    7.4213   -6.0381    1.1707 C   0  0  0  0  0  0  0  0  0  0  0  0
    6.1596   -5.8851    2.0281 C   0  0  1  0  0  0  0  0  0  0  0  0
    4.3398   -1.9710   -0.0450 C   0  0  0  0  0  0  0  0  0  0  0  0
    3.9105   -1.5280   -1.3085 C   0  0  0  0  0  0  0  0  0  0  0  0
    2.4990  -11.6395    3.0165 H   0  0  0  0  0  0  0  0  0  0  0  0
    3.4076   -0.8744   -3.5548 H   0  0  0  0  0  0  0  0  0  0  0  0
    6.3527   -2.9153   -3.2446 H   0  0  0  0  0  0  0  0  0  0  0  0
    7.0730   -3.7951   -1.0412 H   0  0  0  0  0  0  0  0  0  0  0  0
    6.9861   -3.5186    1.3731 H   0  0  0  0  0  0  0  0  0  0  0  0
    5.7317   -2.6982    2.2099 H   0  0  0  0  0  0  0  0  0  0  0  0
    3.5256   -2.6844    2.3078 H   0  0  0  0  0  0  0  0  0  0  0  0
    1.1979   -2.9310    2.8792 H   0  0  0  0  0  0  0  0  0  0  0  0
    4.7362   -7.2024    3.8087 H   0  0  0  0  0  0  0  0  0  0  0  0
    4.7310  -10.4951    2.5300 H   0  0  0  0  0  0  0  0  0  0  0  0
   -0.1748  -10.8173    3.7484 H   0  0  0  0  0  0  0  0  0  0  0  0
   -1.5225   -8.7553    4.1325 H   0  0  0  0  0  0  0  0  0  0  0  0
    4.9632   -7.1918    0.8057 H   0  0  0  0  0  0  0  0  0  0  0  0
    6.7009   -8.6013    2.8383 H   0  0  0  0  0  0  0  0  0  0  0  0
    6.2788   -9.1032    1.1992 H   0  0  0  0  0  0  0  0  0  0  0  0
    8.6021   -7.6429    2.0246 H   0  0  0  0  0  0  0  0  0  0  0  0
    8.1554   -7.9271    0.3669 H   0  0  0  0  0  0  0  0  0  0  0  0
    8.2404   -5.3930    1.4999 H   0  0  0  0  0  0  0  0  0  0  0  0
    7.2230   -5.8075    0.1209 H   0  0  0  0  0  0  0  0  0  0  0  0
    6.4831   -5.8221    3.0676 H   0  0  0  0  0  0  0  0  0  0  0  0
    3.7727   -1.5992    0.7808 H   0  0  0  0  0  0  0  0  0  0  0  0
    3.0208   -0.9137   -1.3370 H   0  0  0  0  0  0  0  0  0  0  0  0
  1  2  1  0
  1 32  1  0
  2 30  2  0
  2  3  1  0
  3  4  2  0
  3 33  1  0
  4  5  1  0
  4 34  1  0
  5  6  1  0
  5 29  2  0
  6  7  1  0
  6 35  1  0
  6 36  1  0
  7 28  1  0
  7  8  1  0
  8 13  1  0
  8  9  2  0
  9 10  1  0
  9 37  1  0
 10 11  2  0
 10 38  1  0
 11 12  1  0
 12 22  1  0
 12 13  2  0
 13 14  1  0
 14 15  1  0
 14 24  1  0
 14 39  1  1
 15 23  1  0
 15 16  2  0
 16 17  1  0
 16 40  1  0
 17 31  1  0
 17 18  1  0
 18 23  2  0
 18 19  1  0
 19 20  2  0
 19 41  1  0
 20 21  1  0
 20 42  1  0
 21 22  2  0
 22 23  1  0
 24 28  1  0
 24 25  1  0
 24 43  1  6
 25 26  1  0
 25 44  1  0
 25 45  1  0
 26 27  1  0
 26 46  1  0
 26 47  1  0
 27 28  1  0
 27 48  1  0
 27 49  1  0
 28 50  1  1
 29 30  1  0
 29 51  1  0
 30 52  1  0
M  END
>  <i_m_ct_stereo_status>  (214) 
1

>  <s_m_source_file>  (214) 
/var/tmp/pbs.5076255.sched01/tmpy0mqr2dw/78t3ouse6d.sdf

>  <i_m_source_file_index>  (214) 
10

>  <i_lp_mmshare_version>  (214) 
48012

>  <i_f3d_flags>  (214) 
0

>  <s_epik_input>  (214) 
W09IXWMxW2NIXVtjSF1jKFtjSF1bY0hdMSlbQ0gyXU4yW0NASF0oW0NIMl1bQ0gyXVtDSDJdMylbQ0BASF0zW0NAQEhdNGMoW2NIXVtuSF1jNVtjSF1bY0hdbjYpYzVjNmMoYzRjMjcpbltjSF1bY0hdNw==

>  <s_epik_cmdline>  (214) 
J2VwaWtfcHl0aG9uJywgJy1waHQnLCAnMi4wJywgJy1waCcsICc3LjAnLCAnLXRuJywgJzgnLCAnLW1hJywgJzIwMCcsICctaW1hZScsICc8aW5maWxlLm1hZT4nLCAnLW9tYWUnLCAnPG91dGZpbGUubWFlPic=

>  <r_lp_tautomer_probability>  (214) 
0.999931

>  <r_epik_Ionization_Penalty>  (214) 
1.46045

>  <r_epik_Ionization_Penalty_Charging>  (214) 
0

>  <r_epik_Ionization_Penalty_Neutral>  (214) 
1.46045

>  <r_epik_State_Penalty>  (214) 
1.58046

>  <r_epik_Charging_Adjusted_Penalty>  (214) 
1.58046

>  <i_epik_Tot_Q>  (214) 
0

>  <i_epik_Tot_abs_Q>  (214) 
0

>  <s_lp_Force_Field>  (214) 
OPLS3e

>  <r_lp_Energy>  (214) 
70.558

>  <b_lp_Chiralities_Consistent>  (214) 
1

>  <s_lp_Variant>  (214) 
66:0-2

>  <s_i_glide_gridfile>  (214) 
pfpi4k_grid

>  <i_i_glide_lignum>  (214) 
10

>  <i_i_glide_rotatable_bonds>  (214) 
3

>  <r_i_docking_score>  (214) 
-3.37186

>  <r_i_glide_ligand_efficiency>  (214) 
-0.112395

>  <r_i_glide_ligand_efficiency_sa>  (214) 
-0.349238

>  <r_i_glide_ligand_efficiency_ln>  (214) 
-0.766122

>  <r_i_glide_gscore>  (214) 
-3.37186

>  <r_i_glide_lipo>  (214) 
-0.532435

>  <r_i_glide_hbond>  (214) 
0

>  <r_i_glide_metal>  (214) 
-0

>  <r_i_glide_rewards>  (214) 
-0.767886

>  <r_i_glide_evdw>  (214) 
-33.0595

>  <r_i_glide_ecoul>  (214) 
-4.39737

>  <r_i_glide_erotb>  (214) 
0.251215

>  <r_i_glide_esite>  (214) 
-0.0101707

>  <r_i_glide_emodel>  (214) 
-45.4548

>  <r_i_glide_energy>  (214) 
-37.4568

>  <r_i_glide_einternal>  (214) 
0.235853

>  <r_i_glide_intrahb_reward>  (214) 
-0

>  <i_i_glide_confnum>  (214) 
2

>  <i_i_glide_posenum>  (214) 
5

>  <r_i_glide_eff_state_penalty>  (214) 
0

>  <ligand_id>  (214) 
66

>  <original_smiles>  (214) 
Oc1ccc(CN2c3ccnc4c3C(c3c[nH]c5ccnc-4c35)C3CCCC32)cc1

>  <smiles>  (214) 
[H]Oc1c([H])c([H])c(C([H])([H])N2c3c([H])c([H])nc4c3C([H])(c3c([H])n([H])c5c([H])c([H])nc-4c35)C3([H])C([H])([H])C([H])([H])C([H])([H])C23[H])c([H])c1[H]

$$$$
66:1:2
     RDKit          3D

 52 58  0  0  1  0  0  0  0  0999 V2000
    4.1985   -0.5931   -2.9159 O   0  0  0  0  0  0  0  0  0  0  0  0
    4.6877   -1.3271   -1.8770 C   0  0  0  0  0  0  0  0  0  0  0  0
    4.6488   -0.8089   -0.5677 C   0  0  0  0  0  0  0  0  0  0  0  0
    5.1870   -1.5412    0.4992 C   0  0  0  0  0  0  0  0  0  0  0  0
    5.7092   -2.8317    0.2870 C   0  0  0  0  0  0  0  0  0  0  0  0
    6.2186   -3.6351    1.4704 C   0  0  0  0  0  0  0  0  0  0  0  0
    5.5021   -4.8796    1.7740 N   0  0  0  0  0  0  0  0  0  0  0  0
    4.1627   -4.8601    2.2533 C   0  0  0  0  0  0  0  0  0  0  0  0
    3.3900   -3.6821    2.3254 C   0  0  0  0  0  0  0  0  0  0  0  0
    2.0486   -3.7093    2.7129 C   0  0  0  0  0  0  0  0  0  0  0  0
    1.4016   -4.8353    3.0389 N   0  0  0  0  0  0  0  0  0  0  0  0
    2.0738   -6.0035    3.0309 C   0  0  0  0  0  0  0  0  0  0  0  0
    3.4489   -6.0185    2.6816 C   0  0  0  0  0  0  0  0  0  0  0  0
    4.2286   -7.3648    2.7828 C   0  0  1  0  0  0  0  0  0  0  0  0
    3.4029   -8.6585    2.7729 C   0  0  0  0  0  0  0  0  0  0  0  0
    3.6030  -10.0118    2.6634 C   0  0  0  0  0  0  0  0  0  0  0  0
    2.3560  -10.5936    2.8810 N   0  0  0  0  0  0  0  0  0  0  0  0
    1.4203   -9.6305    3.1179 C   0  0  0  0  0  0  0  0  0  0  0  0
    0.0663   -9.6562    3.3904 C   0  0  0  0  0  0  0  0  0  0  0  0
   -0.6249   -8.4440    3.5903 C   0  0  0  0  0  0  0  0  0  0  0  0
   -0.0163   -7.2413    3.5075 N   0  0  0  0  0  0  0  0  0  0  0  0
    1.3191   -7.2306    3.2521 C   0  0  0  0  0  0  0  0  0  0  0  0
    2.0444   -8.4066    3.0628 C   0  0  0  0  0  0  0  0  0  0  0  0
    5.4251   -7.3470    1.8048 C   0  0  2  0  0  0  0  0  0  0  0  0
    6.4705   -8.4751    1.8667 C   0  0  0  0  0  0  0  0  0  0  0  0
    7.7986   -7.8358    1.4134 C   0  0  0  0  0  0  0  0  0  0  0  0
    7.5415   -6.3308    1.2736 C   0  0  0  0  0  0  0  0  0  0  0  0
    6.2524   -6.0932    2.0721 C   0  0  1  0  0  0  0  0  0  0  0  0
    5.7475   -3.3520   -1.0232 C   0  0  0  0  0  0  0  0  0  0  0  0
    5.2471   -2.6006   -2.1083 C   0  0  0  0  0  0  0  0  0  0  0  0
    2.1768  -11.5884    2.8534 H   0  0  0  0  0  0  0  0  0  0  0  0
    3.6948    0.1562   -2.6328 H   0  0  0  0  0  0  0  0  0  0  0  0
    4.2160    0.1517   -0.3534 H   0  0  0  0  0  0  0  0  0  0  0  0
    5.1469   -1.1248    1.4938 H   0  0  0  0  0  0  0  0  0  0  0  0
    7.2723   -3.8264    1.2629 H   0  0  0  0  0  0  0  0  0  0  0  0
    6.2087   -3.0085    2.3620 H   0  0  0  0  0  0  0  0  0  0  0  0
    3.7727   -2.7187    2.0774 H   0  0  0  0  0  0  0  0  0  0  0  0
    1.4742   -2.7962    2.7115 H   0  0  0  0  0  0  0  0  0  0  0  0
    4.6668   -7.3203    3.7817 H   0  0  0  0  0  0  0  0  0  0  0  0
    4.4928  -10.5960    2.4686 H   0  0  0  0  0  0  0  0  0  0  0  0
   -0.4695  -10.5950    3.4751 H   0  0  0  0  0  0  0  0  0  0  0  0
   -1.6823   -8.4496    3.8202 H   0  0  0  0  0  0  0  0  0  0  0  0
    5.0271   -7.3087    0.7876 H   0  0  0  0  0  0  0  0  0  0  0  0
    6.5732   -8.8501    2.8867 H   0  0  0  0  0  0  0  0  0  0  0  0
    6.1881   -9.3110    1.2245 H   0  0  0  0  0  0  0  0  0  0  0  0
    8.5785   -8.0171    2.1516 H   0  0  0  0  0  0  0  0  0  0  0  0
    8.1575   -8.2562    0.4740 H   0  0  0  0  0  0  0  0  0  0  0  0
    8.3845   -5.7494    1.6460 H   0  0  0  0  0  0  0  0  0  0  0  0
    7.4069   -6.0774    0.2210 H   0  0  0  0  0  0  0  0  0  0  0  0
    6.5315   -6.0621    3.1265 H   0  0  0  0  0  0  0  0  0  0  0  0
    6.1508   -4.3343   -1.1894 H   0  0  0  0  0  0  0  0  0  0  0  0
    5.2864   -3.0016   -3.1109 H   0  0  0  0  0  0  0  0  0  0  0  0
  1  2  1  0
  1 32  1  0
  2 30  2  0
  2  3  1  0
  3  4  2  0
  3 33  1  0
  4  5  1  0
  4 34  1  0
  5  6  1  0
  5 29  2  0
  6  7  1  0
  6 35  1  0
  6 36  1  0
  7 28  1  0
  7  8  1  0
  8 13  1  0
  8  9  2  0
  9 10  1  0
  9 37  1  0
 10 11  2  0
 10 38  1  0
 11 12  1  0
 12 22  1  0
 12 13  2  0
 13 14  1  0
 14 15  1  0
 14 24  1  0
 14 39  1  1
 15 23  1  0
 15 16  2  0
 16 17  1  0
 16 40  1  0
 17 31  1  0
 17 18  1  0
 18 23  2  0
 18 19  1  0
 19 20  2  0
 19 41  1  0
 20 21  1  0
 20 42  1  0
 21 22  2  0
 22 23  1  0
 24 28  1  0
 24 25  1  0
 24 43  1  6
 25 26  1  0
 25 44  1  0
 25 45  1  0
 26 27  1  0
 26 46  1  0
 26 47  1  0
 27 28  1  0
 27 48  1  0
 27 49  1  0
 28 50  1  1
 29 30  1  0
 29 51  1  0
 30 52  1  0
M  END
>  <i_m_ct_stereo_status>  (215) 
1

>  <s_m_source_file>  (215) 
/var/tmp/pbs.5076255.sched01/tmpy0mqr2dw/78t3ouse6d.sdf

>  <i_m_source_file_index>  (215) 
10

>  <i_lp_mmshare_version>  (215) 
48012

>  <i_f3d_flags>  (215) 
0

>  <s_epik_input>  (215) 
W09IXWMxW2NIXVtjSF1jKFtjSF1bY0hdMSlbQ0gyXU4yW0NASF0oW0NIMl1bQ0gyXVtDSDJdMylbQ0BASF0zW0NAQEhdNGMoW2NIXVtuSF1jNVtjSF1bY0hdbjYpYzVjNmMoYzRjMjcpbltjSF1bY0hdNw==

>  <s_epik_cmdline>  (215) 
J2VwaWtfcHl0aG9uJywgJy1waHQnLCAnMi4wJywgJy1waCcsICc3LjAnLCAnLXRuJywgJzgnLCAnLW1hJywgJzIwMCcsICctaW1hZScsICc8aW5maWxlLm1hZT4nLCAnLW9tYWUnLCAnPG91dGZpbGUubWFlPic=

>  <r_lp_tautomer_probability>  (215) 
0.999931

>  <r_epik_Ionization_Penalty>  (215) 
1.46045

>  <r_epik_Ionization_Penalty_Charging>  (215) 
0

>  <r_epik_Ionization_Penalty_Neutral>  (215) 
1.46045

>  <r_epik_State_Penalty>  (215) 
1.58046

>  <r_epik_Charging_Adjusted_Penalty>  (215) 
1.58046

>  <i_epik_Tot_Q>  (215) 
0

>  <i_epik_Tot_abs_Q>  (215) 
0

>  <s_lp_Force_Field>  (215) 
OPLS3e

>  <r_lp_Energy>  (215) 
70.558

>  <b_lp_Chiralities_Consistent>  (215) 
1

>  <s_lp_Variant>  (215) 
66:0-2

>  <s_i_glide_gridfile>  (215) 
pfpi4k_grid

>  <i_i_glide_lignum>  (215) 
10

>  <i_i_glide_rotatable_bonds>  (215) 
3

>  <r_i_docking_score>  (215) 
-3.22762

>  <r_i_glide_ligand_efficiency>  (215) 
-0.107587

>  <r_i_glide_ligand_efficiency_sa>  (215) 
-0.334298

>  <r_i_glide_ligand_efficiency_ln>  (215) 
-0.733349

>  <r_i_glide_gscore>  (215) 
-3.22762

>  <r_i_glide_lipo>  (215) 
-0.588932

>  <r_i_glide_hbond>  (215) 
0

>  <r_i_glide_metal>  (215) 
-0

>  <r_i_glide_rewards>  (215) 
-0.775661

>  <r_i_glide_evdw>  (215) 
-32.7862

>  <r_i_glide_ecoul>  (215) 
-3.16617

>  <r_i_glide_erotb>  (215) 
0.251215

>  <r_i_glide_esite>  (215) 
0

>  <r_i_glide_emodel>  (215) 
-43.7976

>  <r_i_glide_energy>  (215) 
-35.9524

>  <r_i_glide_einternal>  (215) 
0.500099

>  <r_i_glide_intrahb_reward>  (215) 
-0

>  <i_i_glide_confnum>  (215) 
1

>  <i_i_glide_posenum>  (215) 
30

>  <r_i_glide_eff_state_penalty>  (215) 
0

>  <ligand_id>  (215) 
66

>  <original_smiles>  (215) 
Oc1ccc(CN2c3ccnc4c3C(c3c[nH]c5ccnc-4c35)C3CCCC32)cc1

>  <smiles>  (215) 
[H]Oc1c([H])c([H])c(C([H])([H])N2c3c([H])c([H])nc4c3C([H])(c3c([H])n([H])c5c([H])c([H])nc-4c35)C3([H])C([H])([H])C([H])([H])C([H])([H])C23[H])c([H])c1[H]

$$$$
66:2:0
     RDKit          3D

 54 60  0  0  1  0  0  0  0  0999 V2000
    4.6113   -1.8421   -3.4882 O   0  0  0  0  0  0  0  0  0  0  0  0
    4.8247   -2.2770   -2.2181 C   0  0  0  0  0  0  0  0  0  0  0  0
    3.8921   -1.9396   -1.2262 C   0  0  0  0  0  0  0  0  0  0  0  0
    4.0759   -2.3933    0.0849 C   0  0  0  0  0  0  0  0  0  0  0  0
    5.1981   -3.1796    0.4524 C   0  0  0  0  0  0  0  0  0  0  0  0
    5.3710   -3.6541    1.8917 C   0  0  0  0  0  0  0  0  0  0  0  0
    4.3697   -4.6272    2.3326 N   0  0  0  0  0  0  0  0  0  0  0  0
    4.5324   -6.0179    2.0527 C   0  0  0  0  0  0  0  0  0  0  0  0
    5.7169   -6.5599    1.4847 C   0  0  0  0  0  0  0  0  0  0  0  0
    5.9003   -7.9515    1.3037 C   0  0  0  0  0  0  0  0  0  0  0  0
    4.9467   -8.8228    1.6736 N   0  0  0  0  0  0  0  0  0  0  0  0
    3.7740   -8.4142    2.2113 C   0  0  0  0  0  0  0  0  0  0  0  0
    3.5550   -7.0140    2.3611 C   0  0  0  0  0  0  0  0  0  0  0  0
    2.1606   -6.5445    2.8986 C   0  0  1  0  0  0  0  0  0  0  0  0
    1.2886   -7.5400    3.6766 C   0  0  0  0  0  0  0  0  0  0  0  0
    0.1423   -7.5655    4.4487 C   0  0  0  0  0  0  0  0  0  0  0  0
   -0.1062   -8.9242    4.6858 N   0  0  0  0  0  0  0  0  0  0  0  0
    0.8524   -9.6877    4.0775 C   0  0  0  0  0  0  0  0  0  0  0  0
    1.0578  -11.0544    4.0083 C   0  0  0  0  0  0  0  0  0  0  0  0
    2.1699  -11.5674    3.2985 C   0  0  0  0  0  0  0  0  0  0  0  0
    3.0196  -10.7304    2.6923 N   0  0  0  0  0  0  0  0  0  0  0  0
    2.8392   -9.3925    2.7495 C   0  0  0  0  0  0  0  0  0  0  0  0
    1.7359   -8.8554    3.4398 C   0  0  0  0  0  0  0  0  0  0  0  0
    2.3116   -5.1709    3.5820 C   0  0  2  0  0  0  0  0  0  0  0  0
    1.0490   -4.3997    4.0121 C   0  0  0  0  0  0  0  0  0  0  0  0
    1.4054   -2.9089    3.8974 C   0  0  0  0  0  0  0  0  0  0  0  0
    2.8259   -2.8420    3.3437 C   0  0  0  0  0  0  0  0  0  0  0  0
    3.0050   -4.2048    2.6308 C   0  0  1  0  0  0  0  0  0  0  0  0
    6.1464   -3.5068   -0.5443 C   0  0  0  0  0  0  0  0  0  0  0  0
    5.9550   -3.0571   -1.8774 C   0  0  0  0  0  0  0  0  0  0  0  0
   -0.8845   -9.3353    5.2050 H   0  0  0  0  0  0  0  0  0  0  0  0
    3.8043   -1.3546   -3.5316 H   0  0  0  0  0  0  0  0  0  0  0  0
    3.0170   -1.3400   -1.4282 H   0  0  0  0  0  0  0  0  0  0  0  0
    3.3002   -2.1107    0.7669 H   0  0  0  0  0  0  0  0  0  0  0  0
    6.3781   -4.0328    2.0599 H   0  0  0  0  0  0  0  0  0  0  0  0
    5.3311   -2.7775    2.5367 H   0  0  0  0  0  0  0  0  0  0  0  0
    6.5310   -5.9242    1.1854 H   0  0  0  0  0  0  0  0  0  0  0  0
    6.8059   -8.3780    0.8937 H   0  0  0  0  0  0  0  0  0  0  0  0
    1.6108   -6.3533    1.9777 H   0  0  0  0  0  0  0  0  0  0  0  0
   -0.4901   -6.7664    4.8084 H   0  0  0  0  0  0  0  0  0  0  0  0
    0.3758  -11.7262    4.5024 H   0  0  0  0  0  0  0  0  0  0  0  0
    2.3942  -12.6211    3.1906 H   0  0  0  0  0  0  0  0  0  0  0  0
    2.9380   -5.2994    4.4683 H   0  0  0  0  0  0  0  0  0  0  0  0
    0.2173   -4.6306    3.3458 H   0  0  0  0  0  0  0  0  0  0  0  0
    0.7564   -4.6448    5.0333 H   0  0  0  0  0  0  0  0  0  0  0  0
    0.7195   -2.4118    3.2078 H   0  0  0  0  0  0  0  0  0  0  0  0
    1.3591   -2.3759    4.8442 H   0  0  0  0  0  0  0  0  0  0  0  0
    2.8898   -1.9315    2.7570 H   0  0  0  0  0  0  0  0  0  0  0  0
    3.5561   -2.7235    4.1471 H   0  0  0  0  0  0  0  0  0  0  0  0
    2.4596   -4.1939    1.6864 H   0  0  0  0  0  0  0  0  0  0  0  0
    7.0047   -4.1148   -0.2969 H   0  0  0  0  0  0  0  0  0  0  0  0
    6.6712   -3.3248   -2.6439 H   0  0  0  0  0  0  0  0  0  0  0  0
    3.7995  -11.1567    2.1700 H   0  0  0  0  0  0  0  0  0  0  0  0
    5.1389   -9.8220    1.5723 H   0  0  0  0  0  0  0  0  0  0  0  0
  1  2  1  0
  1 32  1  0
  2 30  2  0
  2  3  1  0
  3  4  2  0
  3 33  1  0
  4  5  1  0
  4 34  1  0
  5  6  1  0
  5 29  2  0
  6  7  1  0
  6 35  1  0
  6 36  1  0
  7 28  1  0
  7  8  1  0
  8 13  1  0
  8  9  2  0
  9 10  1  0
  9 37  1  0
 10 11  2  0
 10 38  1  0
 11 12  1  0
 11 54  1  0
 12 22  1  0
 12 13  2  0
 13 14  1  0
 14 15  1  0
 14 24  1  0
 14 39  1  6
 15 23  1  0
 15 16  2  0
 16 17  1  0
 16 40  1  0
 17 31  1  0
 17 18  1  0
 18 23  2  0
 18 19  1  0
 19 20  2  0
 19 41  1  0
 20 21  1  0
 20 42  1  0
 21 22  2  0
 21 53  1  0
 22 23  1  0
 24 28  1  0
 24 25  1  0
 24 43  1  1
 25 26  1  0
 25 44  1  0
 25 45  1  0
 26 27  1  0
 26 46  1  0
 26 47  1  0
 27 28  1  0
 27 48  1  0
 27 49  1  0
 28 50  1  6
 29 30  1  0
 29 51  1  0
 30 52  1  0
M  CHG  2  11   1  21   1
M  END
>  <i_m_ct_stereo_status>  (216) 
1

>  <s_m_source_file>  (216) 
/var/tmp/pbs.5076255.sched01/tmpy0mqr2dw/78t3ouse6d.sdf

>  <i_m_source_file_index>  (216) 
11

>  <i_lp_mmshare_version>  (216) 
48012

>  <i_f3d_flags>  (216) 
0

>  <s_epik_input>  (216) 
W09IXWMxW2NIXVtjSF1jKFtjSF1bY0hdMSlbQ0gyXU4yW0NASF0oW0NIMl1bQ0gyXVtDSDJdMylbQ0BASF0zW0NAQEhdNGMoW2NIXVtuSF1jNVtjSF1bY0hdbjYpYzVjNmMoYzRjMjcpbltjSF1bY0hdNw==

>  <s_epik_cmdline>  (216) 
J2VwaWtfcHl0aG9uJywgJy1waHQnLCAnMi4wJywgJy1waCcsICc3LjAnLCAnLXRuJywgJzgnLCAnLW1hJywgJzIwMCcsICctaW1hZScsICc8aW5maWxlLm1hZT4nLCAnLW9tYWUnLCAnPG91dGZpbGUubWFlPic=

>  <r_lp_tautomer_probability>  (216) 
1

>  <r_epik_Ionization_Penalty>  (216) 
1.78344

>  <r_epik_Ionization_Penalty_Charging>  (216) 
1.78332

>  <r_epik_Ionization_Penalty_Neutral>  (216) 
0.000118001

>  <r_epik_State_Penalty>  (216) 
1.7017

>  <r_epik_Charging_Adjusted_Penalty>  (216) 
3.48502

>  <i_epik_Tot_Q>  (216) 
2

>  <i_epik_Tot_abs_Q>  (216) 
2

>  <s_lp_Force_Field>  (216) 
OPLS3e

>  <r_lp_Energy>  (216) 
83.6951

>  <b_lp_Chiralities_Consistent>  (216) 
1

>  <s_lp_Variant>  (216) 
66:0-3

>  <s_i_glide_gridfile>  (216) 
pfpi4k_grid

>  <i_i_glide_lignum>  (216) 
11

>  <i_i_glide_rotatable_bonds>  (216) 
3

>  <r_i_docking_score>  (216) 
-4.37029

>  <r_i_glide_ligand_efficiency>  (216) 
-0.145676

>  <r_i_glide_ligand_efficiency_sa>  (216) 
-0.45265

>  <r_i_glide_ligand_efficiency_ln>  (216) 
-0.992977

>  <r_i_glide_gscore>  (216) 
-4.37029

>  <r_i_glide_lipo>  (216) 
-0.709298

>  <r_i_glide_hbond>  (216) 
-0.205873

>  <r_i_glide_metal>  (216) 
-0

>  <r_i_glide_rewards>  (216) 
-0.71393

>  <r_i_glide_evdw>  (216) 
-28.5292

>  <r_i_glide_ecoul>  (216) 
-9.4826

>  <r_i_glide_erotb>  (216) 
0.248923

>  <r_i_glide_esite>  (216) 
-0.141262

>  <r_i_glide_emodel>  (216) 
-51.2626

>  <r_i_glide_energy>  (216) 
-38.0118

>  <r_i_glide_einternal>  (216) 
0.781892

>  <r_i_glide_intrahb_reward>  (216) 
-0

>  <i_i_glide_confnum>  (216) 
3

>  <i_i_glide_posenum>  (216) 
24

>  <r_i_glide_eff_state_penalty>  (216) 
0

>  <ligand_id>  (216) 
66

>  <original_smiles>  (216) 
Oc1ccc(CN2c3ccnc4c3C(c3c[nH]c5ccnc-4c35)C3CCCC32)cc1

>  <smiles>  (216) 
[H]Oc1c([H])c([H])c(C([H])([H])N2c3c([H])c([H])[n+]([H])c4c3C([H])(c3c([H])n([H])c5c([H])c([H])[n+]([H])c-4c35)C3([H])C([H])([H])C([H])([H])C([H])([H])C23[H])c([H])c1[H]

$$$$
66:2:1
     RDKit          3D

 54 60  0  0  1  0  0  0  0  0999 V2000
    3.5904   -2.5334   -4.0939 O   0  0  0  0  0  0  0  0  0  0  0  0
    3.9933   -2.8938   -2.8544 C   0  0  0  0  0  0  0  0  0  0  0  0
    3.0249   -2.9451   -1.8311 C   0  0  0  0  0  0  0  0  0  0  0  0
    3.4199   -3.2638   -0.5330 C   0  0  0  0  0  0  0  0  0  0  0  0
    4.7529   -3.6230   -0.2010 C   0  0  0  0  0  0  0  0  0  0  0  0
    5.1417   -4.0241    1.2222 C   0  0  0  0  0  0  0  0  0  0  0  0
    4.1888   -4.9125    1.9140 N   0  0  0  0  0  0  0  0  0  0  0  0
    4.2226   -6.3225    1.7440 C   0  0  0  0  0  0  0  0  0  0  0  0
    5.2808   -6.9809    1.0571 C   0  0  0  0  0  0  0  0  0  0  0  0
    5.3532   -8.3893    0.9933 C   0  0  0  0  0  0  0  0  0  0  0  0
    4.4279   -9.1632    1.5709 N   0  0  0  0  0  0  0  0  0  0  0  0
    3.3735   -8.6253    2.2298 C   0  0  0  0  0  0  0  0  0  0  0  0
    3.2546   -7.2149    2.2877 C   0  0  0  0  0  0  0  0  0  0  0  0
    1.9935   -6.5935    2.9815 C   0  0  1  0  0  0  0  0  0  0  0  0
    1.1938   -7.4621    3.9502 C   0  0  0  0  0  0  0  0  0  0  0  0
    0.1846   -7.3350    4.8685 C   0  0  0  0  0  0  0  0  0  0  0  0
   -0.1025   -8.6424    5.2797 N   0  0  0  0  0  0  0  0  0  0  0  0
    0.6986   -9.5267    4.6225 C   0  0  0  0  0  0  0  0  0  0  0  0
    0.8297  -10.8975    4.6534 C   0  0  0  0  0  0  0  0  0  0  0  0
    1.7802  -11.5622    3.8502 C   0  0  0  0  0  0  0  0  0  0  0  0
    2.5813  -10.8417    3.0325 N   0  0  0  0  0  0  0  0  0  0  0  0
    2.4760   -9.4918    2.9831 C   0  0  0  0  0  0  0  0  0  0  0  0
    1.5305   -8.8223    3.7702 C   0  0  0  0  0  0  0  0  0  0  0  0
    2.3340   -5.1982    3.5479 C   0  0  2  0  0  0  0  0  0  0  0  0
    1.1850   -4.2818    4.0143 C   0  0  0  0  0  0  0  0  0  0  0  0
    1.5936   -2.8305    3.6652 C   0  0  0  0  0  0  0  0  0  0  0  0
    2.8990   -2.9301    2.8823 C   0  0  0  0  0  0  0  0  0  0  0  0
    2.9134   -4.3925    2.4037 C   0  0  1  0  0  0  0  0  0  0  0  0
    5.7274   -3.5544   -1.2359 C   0  0  0  0  0  0  0  0  0  0  0  0
    5.3400   -3.1876   -2.5447 C   0  0  0  0  0  0  0  0  0  0  0  0
   -0.8084   -8.9347    5.9390 H   0  0  0  0  0  0  0  0  0  0  0  0
    2.6566   -2.3808   -4.1114 H   0  0  0  0  0  0  0  0  0  0  0  0
    1.9840   -2.7149   -1.9909 H   0  0  0  0  0  0  0  0  0  0  0  0
    2.6095   -3.1929    0.1939 H   0  0  0  0  0  0  0  0  0  0  0  0
    6.1387   -4.4603    1.2396 H   0  0  0  0  0  0  0  0  0  0  0  0
    5.2811   -3.1068    1.7907 H   0  0  0  0  0  0  0  0  0  0  0  0
    6.0634   -6.4247    0.5728 H   0  0  0  0  0  0  0  0  0  0  0  0
    6.1551   -8.9238    0.4977 H   0  0  0  0  0  0  0  0  0  0  0  0
    1.3199   -6.4488    2.1379 H   0  0  0  0  0  0  0  0  0  0  0  0
   -0.3496   -6.4559    5.2418 H   0  0  0  0  0  0  0  0  0  0  0  0
    0.2024  -11.4759    5.3126 H   0  0  0  0  0  0  0  0  0  0  0  0
    1.9245  -12.6289    3.8615 H   0  0  0  0  0  0  0  0  0  0  0  0
    3.0796   -5.2849    4.3407 H   0  0  0  0  0  0  0  0  0  0  0  0
    0.2511   -4.5155    3.4975 H   0  0  0  0  0  0  0  0  0  0  0  0
    1.0161   -4.3913    5.0832 H   0  0  0  0  0  0  0  0  0  0  0  0
    0.8285   -2.3443    3.0557 H   0  0  0  0  0  0  0  0  0  0  0  0
    1.7348   -2.2140    4.5528 H   0  0  0  0  0  0  0  0  0  0  0  0
    2.9441   -2.1996    2.0812 H   0  0  0  0  0  0  0  0  0  0  0  0
    3.7448   -2.7217    3.5331 H   0  0  0  0  0  0  0  0  0  0  0  0
    2.1641   -4.5323    1.6244 H   0  0  0  0  0  0  0  0  0  0  0  0
    6.7555   -3.7854   -1.0167 H   0  0  0  0  0  0  0  0  0  0  0  0
    6.0885   -3.1307   -3.3319 H   0  0  0  0  0  0  0  0  0  0  0  0
    3.2692  -11.3583    2.4711 H   0  0  0  0  0  0  0  0  0  0  0  0
    4.5467  -10.1800    1.5215 H   0  0  0  0  0  0  0  0  0  0  0  0
  1  2  1  0
  1 32  1  0
  2 30  2  0
  2  3  1  0
  3  4  2  0
  3 33  1  0
  4  5  1  0
  4 34  1  0
  5  6  1  0
  5 29  2  0
  6  7  1  0
  6 35  1  0
  6 36  1  0
  7 28  1  0
  7  8  1  0
  8 13  1  0
  8  9  2  0
  9 10  1  0
  9 37  1  0
 10 11  2  0
 10 38  1  0
 11 12  1  0
 11 54  1  0
 12 22  1  0
 12 13  2  0
 13 14  1  0
 14 15  1  0
 14 24  1  0
 14 39  1  6
 15 23  1  0
 15 16  2  0
 16 17  1  0
 16 40  1  0
 17 31  1  0
 17 18  1  0
 18 23  2  0
 18 19  1  0
 19 20  2  0
 19 41  1  0
 20 21  1  0
 20 42  1  0
 21 22  2  0
 21 53  1  0
 22 23  1  0
 24 28  1  0
 24 25  1  0
 24 43  1  1
 25 26  1  0
 25 44  1  0
 25 45  1  0
 26 27  1  0
 26 46  1  0
 26 47  1  0
 27 28  1  0
 27 48  1  0
 27 49  1  0
 28 50  1  6
 29 30  1  0
 29 51  1  0
 30 52  1  0
M  CHG  2  11   1  21   1
M  END
>  <i_m_ct_stereo_status>  (217) 
1

>  <s_m_source_file>  (217) 
/var/tmp/pbs.5076255.sched01/tmpy0mqr2dw/78t3ouse6d.sdf

>  <i_m_source_file_index>  (217) 
11

>  <i_lp_mmshare_version>  (217) 
48012

>  <i_f3d_flags>  (217) 
0

>  <s_epik_input>  (217) 
W09IXWMxW2NIXVtjSF1jKFtjSF1bY0hdMSlbQ0gyXU4yW0NASF0oW0NIMl1bQ0gyXVtDSDJdMylbQ0BASF0zW0NAQEhdNGMoW2NIXVtuSF1jNVtjSF1bY0hdbjYpYzVjNmMoYzRjMjcpbltjSF1bY0hdNw==

>  <s_epik_cmdline>  (217) 
J2VwaWtfcHl0aG9uJywgJy1waHQnLCAnMi4wJywgJy1waCcsICc3LjAnLCAnLXRuJywgJzgnLCAnLW1hJywgJzIwMCcsICctaW1hZScsICc8aW5maWxlLm1hZT4nLCAnLW9tYWUnLCAnPG91dGZpbGUubWFlPic=

>  <r_lp_tautomer_probability>  (217) 
1

>  <r_epik_Ionization_Penalty>  (217) 
1.78344

>  <r_epik_Ionization_Penalty_Charging>  (217) 
1.78332

>  <r_epik_Ionization_Penalty_Neutral>  (217) 
0.000118001

>  <r_epik_State_Penalty>  (217) 
1.7017

>  <r_epik_Charging_Adjusted_Penalty>  (217) 
3.48502

>  <i_epik_Tot_Q>  (217) 
2

>  <i_epik_Tot_abs_Q>  (217) 
2

>  <s_lp_Force_Field>  (217) 
OPLS3e

>  <r_lp_Energy>  (217) 
83.6951

>  <b_lp_Chiralities_Consistent>  (217) 
1

>  <s_lp_Variant>  (217) 
66:0-3

>  <s_i_glide_gridfile>  (217) 
pfpi4k_grid

>  <i_i_glide_lignum>  (217) 
11

>  <i_i_glide_rotatable_bonds>  (217) 
3

>  <r_i_docking_score>  (217) 
-4.31874

>  <r_i_glide_ligand_efficiency>  (217) 
-0.143958

>  <r_i_glide_ligand_efficiency_sa>  (217) 
-0.447311

>  <r_i_glide_ligand_efficiency_ln>  (217) 
-0.981265

>  <r_i_glide_gscore>  (217) 
-4.31874

>  <r_i_glide_lipo>  (217) 
-0.661237

>  <r_i_glide_hbond>  (217) 
-0.290067

>  <r_i_glide_metal>  (217) 
-0

>  <r_i_glide_rewards>  (217) 
-0.721086

>  <r_i_glide_evdw>  (217) 
-29.4164

>  <r_i_glide_ecoul>  (217) 
-8.6886

>  <r_i_glide_erotb>  (217) 
0.248923

>  <r_i_glide_esite>  (217) 
-0.121164

>  <r_i_glide_emodel>  (217) 
-50.5069

>  <r_i_glide_energy>  (217) 
-38.105

>  <r_i_glide_einternal>  (217) 
1.58548

>  <r_i_glide_intrahb_reward>  (217) 
-0

>  <i_i_glide_confnum>  (217) 
3

>  <i_i_glide_posenum>  (217) 
1

>  <r_i_glide_eff_state_penalty>  (217) 
0

>  <ligand_id>  (217) 
66

>  <original_smiles>  (217) 
Oc1ccc(CN2c3ccnc4c3C(c3c[nH]c5ccnc-4c35)C3CCCC32)cc1

>  <smiles>  (217) 
[H]Oc1c([H])c([H])c(C([H])([H])N2c3c([H])c([H])[n+]([H])c4c3C([H])(c3c([H])n([H])c5c([H])c([H])[n+]([H])c-4c35)C3([H])C([H])([H])C([H])([H])C([H])([H])C23[H])c([H])c1[H]

$$$$
66:2:2
     RDKit          3D

 54 60  0  0  1  0  0  0  0  0999 V2000
    3.0157   -1.4845   -2.3761 O   0  0  0  0  0  0  0  0  0  0  0  0
    3.7203   -2.0492   -1.3599 C   0  0  0  0  0  0  0  0  0  0  0  0
    3.7472   -1.4279   -0.0958 C   0  0  0  0  0  0  0  0  0  0  0  0
    4.4585   -2.0155    0.9612 C   0  0  0  0  0  0  0  0  0  0  0  0
    5.1262   -3.2439    0.7727 C   0  0  0  0  0  0  0  0  0  0  0  0
    5.8893   -3.8677    1.9259 C   0  0  0  0  0  0  0  0  0  0  0  0
    5.4092   -5.1822    2.3614 N   0  0  0  0  0  0  0  0  0  0  0  0
    4.2214   -5.3202    3.1308 C   0  0  0  0  0  0  0  0  0  0  0  0
    3.3876   -4.2157    3.4415 C   0  0  0  0  0  0  0  0  0  0  0  0
    2.1776   -4.3690    4.1417 C   0  0  0  0  0  0  0  0  0  0  0  0
    1.7673   -5.5899    4.5277 N   0  0  0  0  0  0  0  0  0  0  0  0
    2.4917   -6.7041    4.2936 C   0  0  0  0  0  0  0  0  0  0  0  0
    3.7397   -6.5670    3.6314 C   0  0  0  0  0  0  0  0  0  0  0  0
    4.6383   -7.8341    3.4537 C   0  0  1  0  0  0  0  0  0  0  0  0
    3.9597   -9.2078    3.5475 C   0  0  0  0  0  0  0  0  0  0  0  0
    4.2479  -10.5317    3.2972 C   0  0  0  0  0  0  0  0  0  0  0  0
    3.1519  -11.2530    3.7748 N   0  0  0  0  0  0  0  0  0  0  0  0
    2.2243  -10.4007    4.3067 C   0  0  0  0  0  0  0  0  0  0  0  0
    0.9862  -10.5811    4.9081 C   0  0  0  0  0  0  0  0  0  0  0  0
    0.2408   -9.4670    5.3632 C   0  0  0  0  0  0  0  0  0  0  0  0
    0.7336   -8.2228    5.1938 N   0  0  0  0  0  0  0  0  0  0  0  0
    1.9409   -8.0195    4.6076 C   0  0  0  0  0  0  0  0  0  0  0  0
    2.6996   -9.1109    4.1740 C   0  0  0  0  0  0  0  0  0  0  0  0
    5.5510   -7.6413    2.2246 C   0  0  2  0  0  0  0  0  0  0  0  0
    6.6626   -8.6615    1.9549 C   0  0  0  0  0  0  0  0  0  0  0  0
    7.7981   -7.8582    1.2956 C   0  0  0  0  0  0  0  0  0  0  0  0
    7.3831   -6.3882    1.2934 C   0  0  0  0  0  0  0  0  0  0  0  0
    6.3102   -6.3251    2.3824 C   0  0  1  0  0  0  0  0  0  0  0  0
    5.0961   -3.8628   -0.4976 C   0  0  0  0  0  0  0  0  0  0  0  0
    4.3996   -3.2660   -1.5642 C   0  0  0  0  0  0  0  0  0  0  0  0
    3.0533  -12.2617    3.7291 H   0  0  0  0  0  0  0  0  0  0  0  0
    2.2702   -1.0020   -2.0362 H   0  0  0  0  0  0  0  0  0  0  0  0
    3.2114   -0.5046    0.0745 H   0  0  0  0  0  0  0  0  0  0  0  0
    4.4778   -1.5248    1.9214 H   0  0  0  0  0  0  0  0  0  0  0  0
    6.9349   -3.9161    1.6183 H   0  0  0  0  0  0  0  0  0  0  0  0
    5.8847   -3.1880    2.7786 H   0  0  0  0  0  0  0  0  0  0  0  0
    3.6520   -3.2174    3.1447 H   0  0  0  0  0  0  0  0  0  0  0  0
    1.5248   -3.5439    4.3794 H   0  0  0  0  0  0  0  0  0  0  0  0
    5.3034   -7.7883    4.3190 H   0  0  0  0  0  0  0  0  0  0  0  0
    5.1141  -11.0110    2.8531 H   0  0  0  0  0  0  0  0  0  0  0  0
    0.5777  -11.5753    5.0449 H   0  0  0  0  0  0  0  0  0  0  0  0
   -0.7285   -9.5428    5.8368 H   0  0  0  0  0  0  0  0  0  0  0  0
    4.9188   -7.5939    1.3347 H   0  0  0  0  0  0  0  0  0  0  0  0
    7.0251   -9.1020    2.8864 H   0  0  0  0  0  0  0  0  0  0  0  0
    6.3170   -9.4700    1.3103 H   0  0  0  0  0  0  0  0  0  0  0  0
    8.6881   -7.9798    1.9056 H   0  0  0  0  0  0  0  0  0  0  0  0
    8.0471   -8.2188    0.2953 H   0  0  0  0  0  0  0  0  0  0  0  0
    8.2349   -5.7384    1.4942 H   0  0  0  0  0  0  0  0  0  0  0  0
    6.9913   -6.1302    0.3131 H   0  0  0  0  0  0  0  0  0  0  0  0
    6.8263   -6.3107    3.3432 H   0  0  0  0  0  0  0  0  0  0  0  0
    5.6023   -4.7980   -0.6683 H   0  0  0  0  0  0  0  0  0  0  0  0
    4.3697   -3.7500   -2.5309 H   0  0  0  0  0  0  0  0  0  0  0  0
    0.1538   -7.4479    5.5087 H   0  0  0  0  0  0  0  0  0  0  0  0
    0.8617   -5.6595    4.9896 H   0  0  0  0  0  0  0  0  0  0  0  0
  1  2  1  0
  1 32  1  0
  2 30  2  0
  2  3  1  0
  3  4  2  0
  3 33  1  0
  4  5  1  0
  4 34  1  0
  5  6  1  0
  5 29  2  0
  6  7  1  0
  6 35  1  0
  6 36  1  0
  7 28  1  0
  7  8  1  0
  8 13  1  0
  8  9  2  0
  9 10  1  0
  9 37  1  0
 10 11  2  0
 10 38  1  0
 11 12  1  0
 11 54  1  0
 12 22  1  0
 12 13  2  0
 13 14  1  0
 14 15  1  0
 14 24  1  0
 14 39  1  1
 15 23  1  0
 15 16  2  0
 16 17  1  0
 16 40  1  0
 17 31  1  0
 17 18  1  0
 18 23  2  0
 18 19  1  0
 19 20  2  0
 19 41  1  0
 20 21  1  0
 20 42  1  0
 21 22  2  0
 21 53  1  0
 22 23  1  0
 24 28  1  0
 24 25  1  0
 24 43  1  6
 25 26  1  0
 25 44  1  0
 25 45  1  0
 26 27  1  0
 26 46  1  0
 26 47  1  0
 27 28  1  0
 27 48  1  0
 27 49  1  0
 28 50  1  1
 29 30  1  0
 29 51  1  0
 30 52  1  0
M  CHG  2  11   1  21   1
M  END
>  <i_m_ct_stereo_status>  (218) 
1

>  <s_m_source_file>  (218) 
/var/tmp/pbs.5076255.sched01/tmpy0mqr2dw/78t3ouse6d.sdf

>  <i_m_source_file_index>  (218) 
11

>  <i_lp_mmshare_version>  (218) 
48012

>  <i_f3d_flags>  (218) 
0

>  <s_epik_input>  (218) 
W09IXWMxW2NIXVtjSF1jKFtjSF1bY0hdMSlbQ0gyXU4yW0NASF0oW0NIMl1bQ0gyXVtDSDJdMylbQ0BASF0zW0NAQEhdNGMoW2NIXVtuSF1jNVtjSF1bY0hdbjYpYzVjNmMoYzRjMjcpbltjSF1bY0hdNw==

>  <s_epik_cmdline>  (218) 
J2VwaWtfcHl0aG9uJywgJy1waHQnLCAnMi4wJywgJy1waCcsICc3LjAnLCAnLXRuJywgJzgnLCAnLW1hJywgJzIwMCcsICctaW1hZScsICc8aW5maWxlLm1hZT4nLCAnLW9tYWUnLCAnPG91dGZpbGUubWFlPic=

>  <r_lp_tautomer_probability>  (218) 
1

>  <r_epik_Ionization_Penalty>  (218) 
1.78344

>  <r_epik_Ionization_Penalty_Charging>  (218) 
1.78332

>  <r_epik_Ionization_Penalty_Neutral>  (218) 
0.000118001

>  <r_epik_State_Penalty>  (218) 
1.7017

>  <r_epik_Charging_Adjusted_Penalty>  (218) 
3.48502

>  <i_epik_Tot_Q>  (218) 
2

>  <i_epik_Tot_abs_Q>  (218) 
2

>  <s_lp_Force_Field>  (218) 
OPLS3e

>  <r_lp_Energy>  (218) 
83.6951

>  <b_lp_Chiralities_Consistent>  (218) 
1

>  <s_lp_Variant>  (218) 
66:0-3

>  <s_i_glide_gridfile>  (218) 
pfpi4k_grid

>  <i_i_glide_lignum>  (218) 
11

>  <i_i_glide_rotatable_bonds>  (218) 
3

>  <r_i_docking_score>  (218) 
-3.45013

>  <r_i_glide_ligand_efficiency>  (218) 
-0.115004

>  <r_i_glide_ligand_efficiency_sa>  (218) 
-0.357345

>  <r_i_glide_ligand_efficiency_ln>  (218) 
-0.783907

>  <r_i_glide_gscore>  (218) 
-3.45013

>  <r_i_glide_lipo>  (218) 
-0.294376

>  <r_i_glide_hbond>  (218) 
-0.153311

>  <r_i_glide_metal>  (218) 
-0

>  <r_i_glide_rewards>  (218) 
-0.724173

>  <r_i_glide_evdw>  (218) 
-25.0209

>  <r_i_glide_ecoul>  (218) 
-8.18181

>  <r_i_glide_erotb>  (218) 
0.248923

>  <r_i_glide_esite>  (218) 
-0.0488741

>  <r_i_glide_emodel>  (218) 
-43.7121

>  <r_i_glide_energy>  (218) 
-33.2027

>  <r_i_glide_einternal>  (218) 
0.938561

>  <r_i_glide_intrahb_reward>  (218) 
-0

>  <i_i_glide_confnum>  (218) 
5

>  <i_i_glide_posenum>  (218) 
8

>  <r_i_glide_eff_state_penalty>  (218) 
0

>  <ligand_id>  (218) 
66

>  <original_smiles>  (218) 
Oc1ccc(CN2c3ccnc4c3C(c3c[nH]c5ccnc-4c35)C3CCCC32)cc1

>  <smiles>  (218) 
[H]Oc1c([H])c([H])c(C([H])([H])N2c3c([H])c([H])[n+]([H])c4c3C([H])(c3c([H])n([H])c5c([H])c([H])[n+]([H])c-4c35)C3([H])C([H])([H])C([H])([H])C([H])([H])C23[H])c([H])c1[H]

$$$$
67:0:0
     RDKit          3D

 69 74  0  0  1  0  0  0  0  0999 V2000
    4.0540   -1.3322   -4.2642 C   0  0  0  0  0  0  0  0  0  0  0  0
    4.5025   -1.8860   -2.9967 N   0  0  0  0  0  0  0  0  0  0  0  0
    4.3099   -3.3378   -3.0055 C   0  0  0  0  0  0  0  0  0  0  0  0
    4.7485   -3.9282   -1.6610 C   0  0  0  0  0  0  0  0  0  0  0  0
    3.9528   -3.3732   -0.5124 N   0  0  0  0  0  0  0  0  0  0  0  0
    4.3149   -3.9572    0.8334 C   0  0  2  0  0  0  0  0  0  0  0  0
    4.9438   -5.3895    0.7485 C   0  0  1  0  0  0  0  0  0  0  0  0
    6.3605   -5.2669    0.5518 O   0  0  0  0  0  0  0  0  0  0  0  0
    4.6683   -6.4893    1.8189 C   0  0  2  0  0  0  0  0  0  0  0  0
    5.2670   -7.8195    1.2649 C   0  0  0  0  0  0  0  0  0  0  0  0
    3.1840   -6.8005    2.0864 C   0  0  2  0  0  0  0  0  0  0  0  0
    2.1879   -5.7912    1.5407 C   0  0  0  0  0  0  0  0  0  0  0  0
    1.2918   -6.1061    0.7507 O   0  0  0  0  0  0  0  0  0  0  0  0
    2.2080   -4.6198    2.1474 O   0  0  0  0  0  0  0  0  0  0  0  0
    3.2866   -3.7289    2.0360 C   0  0  2  0  0  0  0  0  0  0  0  0
    2.6721   -2.4618    1.9158 O   0  0  0  0  0  0  0  0  0  0  0  0
    4.1099   -3.6805    3.3745 C   0  0  1  0  0  0  0  0  0  0  0  0
    4.7271   -2.3943    3.3347 O   0  0  0  0  0  0  0  0  0  0  0  0
    3.4812   -3.9628    4.7595 C   0  0  1  0  0  0  0  0  0  0  0  0
    2.1955   -4.8092    4.9206 C   0  0  0  0  0  0  0  0  0  0  0  0
    2.1107   -6.3285    4.5344 C   0  0  0  0  0  0  0  0  0  0  0  0
    3.1018   -7.1058    3.6011 C   0  0  1  0  0  0  0  0  0  0  0  0
    2.7957   -8.6025    3.7818 C   0  0  0  0  0  0  0  0  0  0  0  0
    4.4383   -6.9939    4.0627 O   0  0  0  0  0  0  0  0  0  0  0  0
    5.2190   -6.1920    3.2496 C   0  0  1  0  0  0  0  0  0  0  0  0
    6.5658   -6.6068    3.3234 O   0  0  0  0  0  0  0  0  0  0  0  0
    5.1764   -4.7359    3.7767 C   0  0  2  0  0  0  0  0  0  0  0  0
    4.8675   -4.4441    5.2887 C   0  0  0  0  0  0  0  0  0  0  0  0
    5.7449   -3.3723    5.9774 C   0  0  0  0  0  0  0  0  0  0  0  0
    4.9017   -5.5714    6.3377 C   0  0  0  0  0  0  0  0  0  0  0  0
    4.0779   -1.8702   -0.5665 C   0  0  0  0  0  0  0  0  0  0  0  0
    3.6636   -1.3323   -1.9415 C   0  0  0  0  0  0  0  0  0  0  0  0
    4.5976   -1.8041   -5.0662 H   0  0  0  0  0  0  0  0  0  0  0  0
    4.2573   -0.2624   -4.2964 H   0  0  0  0  0  0  0  0  0  0  0  0
    2.9871   -1.5064   -4.4273 H   0  0  0  0  0  0  0  0  0  0  0  0
    3.2718   -3.5967   -3.2277 H   0  0  0  0  0  0  0  0  0  0  0  0
    4.9389   -3.7588   -3.7930 H   0  0  0  0  0  0  0  0  0  0  0  0
    4.7125   -4.9952   -1.7972 H   0  0  0  0  0  0  0  0  0  0  0  0
    5.8028   -3.6904   -1.5169 H   0  0  0  0  0  0  0  0  0  0  0  0
    5.1722   -3.3462    1.1340 H   0  0  0  0  0  0  0  0  0  0  0  0
    4.5275   -5.8552   -0.1062 H   0  0  0  0  0  0  0  0  0  0  0  0
    6.7905   -4.9316    1.3324 H   0  0  0  0  0  0  0  0  0  0  0  0
    5.1784   -8.6484    1.9594 H   0  0  0  0  0  0  0  0  0  0  0  0
    6.3164   -7.7264    0.9974 H   0  0  0  0  0  0  0  0  0  0  0  0
    4.7531   -8.1179    0.3496 H   0  0  0  0  0  0  0  0  0  0  0  0
    2.9205   -7.7010    1.5319 H   0  0  0  0  0  0  0  0  0  0  0  0
    2.3133   -2.3535    1.0344 H   0  0  0  0  0  0  0  0  0  0  0  0
    5.2284   -2.2936    4.1209 H   0  0  0  0  0  0  0  0  0  0  0  0
    3.2900   -2.9923    5.2152 H   0  0  0  0  0  0  0  0  0  0  0  0
    1.8898   -4.7395    5.9654 H   0  0  0  0  0  0  0  0  0  0  0  0
    1.3788   -4.2915    4.4131 H   0  0  0  0  0  0  0  0  0  0  0  0
    2.1171   -6.8539    5.4898 H   0  0  0  0  0  0  0  0  0  0  0  0
    1.1005   -6.5041    4.1648 H   0  0  0  0  0  0  0  0  0  0  0  0
    1.7768   -8.8482    3.4811 H   0  0  0  0  0  0  0  0  0  0  0  0
    2.9150   -8.9058    4.8244 H   0  0  0  0  0  0  0  0  0  0  0  0
    3.4674   -9.2382    3.2050 H   0  0  0  0  0  0  0  0  0  0  0  0
    6.6220   -7.4758    2.9604 H   0  0  0  0  0  0  0  0  0  0  0  0
    6.1314   -4.2719    3.5364 H   0  0  0  0  0  0  0  0  0  0  0  0
    6.7162   -3.7825    6.2546 H   0  0  0  0  0  0  0  0  0  0  0  0
    5.2733   -3.0111    6.8930 H   0  0  0  0  0  0  0  0  0  0  0  0
    5.9580   -2.4878    5.3833 H   0  0  0  0  0  0  0  0  0  0  0  0
    5.8260   -6.1422    6.2623 H   0  0  0  0  0  0  0  0  0  0  0  0
    4.0862   -6.2696    6.2378 H   0  0  0  0  0  0  0  0  0  0  0  0
    4.8122   -5.1936    7.3559 H   0  0  0  0  0  0  0  0  0  0  0  0
    3.4769   -1.3093    0.1348 H   0  0  0  0  0  0  0  0  0  0  0  0
    5.1236   -1.5870   -0.3884 H   0  0  0  0  0  0  0  0  0  0  0  0
    3.8118   -0.2661   -1.9445 H   0  0  0  0  0  0  0  0  0  0  0  0
    2.6133   -1.5329   -2.1285 H   0  0  0  0  0  0  0  0  0  0  0  0
    2.9974   -3.6153   -0.7263 H   0  0  0  0  0  0  0  0  0  0  0  0
  1  2  1  0
  1 33  1  0
  1 34  1  0
  1 35  1  0
  2 32  1  0
  2  3  1  0
  3  4  1  0
  3 36  1  0
  3 37  1  0
  4  5  1  0
  4 38  1  0
  4 39  1  0
  5  6  1  0
  5 31  1  0
  5 69  1  0
  6 15  1  0
  6  7  1  0
  6 40  1  1
  7  8  1  0
  7  9  1  0
  7 41  1  6
  8 42  1  0
  9 25  1  0
  9 10  1  6
  9 11  1  0
 10 43  1  0
 10 44  1  0
 10 45  1  0
 11 22  1  0
 11 12  1  0
 11 46  1  6
 12 13  2  0
 12 14  1  0
 14 15  1  0
 15 16  1  6
 15 17  1  0
 16 47  1  0
 17 27  1  0
 17 18  1  1
 17 19  1  0
 18 48  1  0
 19 28  1  0
 19 20  1  0
 19 49  1  1
 20 21  1  0
 20 50  1  0
 20 51  1  0
 21 22  1  0
 21 52  1  0
 21 53  1  0
 22 23  1  6
 22 24  1  0
 23 54  1  0
 23 55  1  0
 23 56  1  0
 24 25  1  0
 25 26  1  6
 25 27  1  0
 26 57  1  0
 27 28  1  0
 27 58  1  1
 28 29  1  0
 28 30  1  0
 29 59  1  0
 29 60  1  0
 29 61  1  0
 30 62  1  0
 30 63  1  0
 30 64  1  0
 31 32  1  0
 31 65  1  0
 31 66  1  0
 32 67  1  0
 32 68  1  0
M  CHG  1   5   1
M  END
>  <i_m_ct_stereo_status>  (219) 
1

>  <s_m_source_file>  (219) 
/var/tmp/pbs.5076255.sched01/tmpy0mqr2dw/78t3ouse6d.sdf

>  <i_m_source_file_index>  (219) 
12

>  <i_lp_mmshare_version>  (219) 
48012

>  <i_f3d_flags>  (219) 
0

>  <s_epik_input>  (219) 
W0NIM11OMVtDSDJdW0NIMl1OKFtDSDJdW0NIMl0xKVtDQEhdKFtDQEhdMltPSF0pW0NAQF0oW09IXSkoT0MzPU8pW0NAXShbT0hdKShbQ0BIXShbQ0BdNChPNSlbT0hdKUM2KFtDSDNdKVtDSDNdKVtDQEhdNltDSDJdW0NIMl1bQ0BAXTUoW0NIM10pW0NAQEhdM1tDQEBdMjRbQ0gzXQ==

>  <s_epik_cmdline>  (219) 
J2VwaWtfcHl0aG9uJywgJy1waHQnLCAnMi4wJywgJy1waCcsICc3LjAnLCAnLXRuJywgJzgnLCAnLW1hJywgJzIwMCcsICctaW1hZScsICc8aW5maWxlLm1hZT4nLCAnLW9tYWUnLCAnPG91dGZpbGUubWFlPic=

>  <r_epik_Ionization_Penalty>  (219) 
0.00190624

>  <r_epik_Ionization_Penalty_Charging>  (219) 
0.00118666

>  <r_epik_Ionization_Penalty_Neutral>  (219) 
0.000719587

>  <r_epik_State_Penalty>  (219) 
0.00726129

>  <r_epik_Charging_Adjusted_Penalty>  (219) 
0.00844795

>  <i_epik_Tot_Q>  (219) 
1

>  <i_epik_Tot_abs_Q>  (219) 
1

>  <s_epik_Chemistry_Notes>  (219) 
This compound has an ester and may undergo hydrolysis at high or low pH.

>  <s_lp_Force_Field>  (219) 
OPLS3e

>  <r_lp_Energy>  (219) 
132.148

>  <b_lp_Chiralities_Consistent>  (219) 
1

>  <s_lp_Variant>  (219) 
67:0-1

>  <s_i_glide_gridfile>  (219) 
pfpi4k_grid

>  <i_i_glide_lignum>  (219) 
12

>  <i_i_glide_rotatable_bonds>  (219) 
5

>  <r_i_docking_score>  (219) 
-2.77447

>  <r_i_glide_ligand_efficiency>  (219) 
-0.0867023

>  <r_i_glide_ligand_efficiency_sa>  (219) 
-0.275263

>  <r_i_glide_ligand_efficiency_ln>  (219) 
-0.62128

>  <r_i_glide_gscore>  (219) 
-2.77447

>  <r_i_glide_lipo>  (219) 
-0.309638

>  <r_i_glide_hbond>  (219) 
-0.16

>  <r_i_glide_metal>  (219) 
-0

>  <r_i_glide_rewards>  (219) 
-0.318883

>  <r_i_glide_evdw>  (219) 
-22.7909

>  <r_i_glide_ecoul>  (219) 
-6.10484

>  <r_i_glide_erotb>  (219) 
0.0975856

>  <r_i_glide_esite>  (219) 
-0.0282676

>  <r_i_glide_emodel>  (219) 
-17.7956

>  <r_i_glide_energy>  (219) 
-28.8957

>  <r_i_glide_einternal>  (219) 
31.4148

>  <r_i_glide_intrahb_reward>  (219) 
-0

>  <i_i_glide_confnum>  (219) 
4

>  <i_i_glide_posenum>  (219) 
40

>  <r_i_glide_eff_state_penalty>  (219) 
0

>  <ligand_id>  (219) 
67

>  <original_smiles>  (219) 
CN1CCN(C2C(O)C3(C)C4C(=O)OC2(O)C2(O)C5CCC4(C)OC3(O)C2C5(C)C)CC1

>  <smiles>  (219) 
[H]OC1([H])C2(C([H])([H])[H])C3(O[H])OC4(C([H])([H])[H])C([H])([H])C([H])([H])C5([H])C(O[H])(C(O[H])(OC(=O)C42[H])C1([H])[N+]1([H])C([H])([H])C([H])([H])N(C([H])([H])[H])C([H])([H])C1([H])[H])C3([H])C5(C([H])([H])[H])C([H])([H])[H]

$$$$
67:0:1
     RDKit          3D

 69 74  0  0  1  0  0  0  0  0999 V2000
    4.4906   -1.6846   -3.2945 C   0  0  0  0  0  0  0  0  0  0  0  0
    4.3731   -2.1651   -1.9367 N   0  0  0  0  0  0  0  0  0  0  0  0
    4.4593   -3.6094   -1.9579 C   0  0  0  0  0  0  0  0  0  0  0  0
    4.3717   -4.1403   -0.5230 C   0  0  0  0  0  0  0  0  0  0  0  0
    3.1314   -3.6949    0.1476 N   0  0  0  0  0  0  0  0  0  0  0  0
    2.9090   -4.2093    1.5587 C   0  0  2  0  0  0  0  0  0  0  0  0
    3.7398   -3.4673    2.6300 C   0  0  1  0  0  0  0  0  0  0  0  0
    2.9621   -2.3961    3.1424 O   0  0  0  0  0  0  0  0  0  0  0  0
    4.4443   -4.2157    3.7921 C   0  0  2  0  0  0  0  0  0  0  0  0
    5.3767   -3.1561    4.4475 C   0  0  0  0  0  0  0  0  0  0  0  0
    5.3247   -5.4093    3.3843 C   0  0  2  0  0  0  0  0  0  0  0  0
    5.1668   -5.9618    1.9743 C   0  0  0  0  0  0  0  0  0  0  0  0
    6.1609   -6.0315    1.2389 O   0  0  0  0  0  0  0  0  0  0  0  0
    3.9791   -6.4991    1.6394 O   0  0  0  0  0  0  0  0  0  0  0  0
    2.7822   -5.7654    1.6827 C   0  0  2  0  0  0  0  0  0  0  0  0
    2.0362   -6.1743    0.5540 O   0  0  0  0  0  0  0  0  0  0  0  0
    1.9553   -6.1422    2.9828 C   0  0  1  0  0  0  0  0  0  0  0  0
    0.6052   -5.9884    2.5674 O   0  0  0  0  0  0  0  0  0  0  0  0
    2.1009   -7.4825    3.7520 C   0  0  1  0  0  0  0  0  0  0  0  0
    3.3777   -8.3596    3.6934 C   0  0  0  0  0  0  0  0  0  0  0  0
    4.7632   -7.8878    4.2453 C   0  0  0  0  0  0  0  0  0  0  0  0
    5.1707   -6.4132    4.5418 C   0  0  1  0  0  0  0  0  0  0  0  0
    6.4889   -6.4818    5.3365 C   0  0  0  0  0  0  0  0  0  0  0  0
    4.2764   -5.7984    5.4515 O   0  0  0  0  0  0  0  0  0  0  0  0
    3.4896   -4.8274    4.8553 C   0  0  1  0  0  0  0  0  0  0  0  0
    3.1263   -3.8615    5.8136 O   0  0  0  0  0  0  0  0  0  0  0  0
    2.1657   -5.4749    4.3662 C   0  0  2  0  0  0  0  0  0  0  0  0
    1.6296   -6.7730    5.0582 C   0  0  0  0  0  0  0  0  0  0  0  0
    0.1122   -6.8148    5.3597 C   0  0  0  0  0  0  0  0  0  0  0  0
    2.1891   -7.2614    6.4039 C   0  0  0  0  0  0  0  0  0  0  0  0
    2.9497   -2.2364    0.0284 C   0  0  0  0  0  0  0  0  0  0  0  0
    3.0488   -1.7949   -1.4432 C   0  0  0  0  0  0  0  0  0  0  0  0
    5.4160   -2.0702   -3.7224 H   0  0  0  0  0  0  0  0  0  0  0  0
    4.5236   -0.5968   -3.2874 H   0  0  0  0  0  0  0  0  0  0  0  0
    3.6404   -2.0082   -3.8968 H   0  0  0  0  0  0  0  0  0  0  0  0
    3.6801   -4.0203   -2.5968 H   0  0  0  0  0  0  0  0  0  0  0  0
    5.4261   -3.9129   -2.3631 H   0  0  0  0  0  0  0  0  0  0  0  0
    4.4093   -5.2243   -0.6143 H   0  0  0  0  0  0  0  0  0  0  0  0
    5.2483   -3.7954    0.0283 H   0  0  0  0  0  0  0  0  0  0  0  0
    1.8805   -3.9094    1.7854 H   0  0  0  0  0  0  0  0  0  0  0  0
    4.5873   -3.0347    2.1155 H   0  0  0  0  0  0  0  0  0  0  0  0
    2.7265   -1.8165    2.4346 H   0  0  0  0  0  0  0  0  0  0  0  0
    5.9033   -3.5403    5.3086 H   0  0  0  0  0  0  0  0  0  0  0  0
    4.8507   -2.2572    4.7505 H   0  0  0  0  0  0  0  0  0  0  0  0
    6.1008   -2.8147    3.7183 H   0  0  0  0  0  0  0  0  0  0  0  0
    6.3532   -5.0527    3.3926 H   0  0  0  0  0  0  0  0  0  0  0  0
    2.6164   -6.1934   -0.2069 H   0  0  0  0  0  0  0  0  0  0  0  0
    0.3406   -6.8532    2.2900 H   0  0  0  0  0  0  0  0  0  0  0  0
    1.2617   -8.1108    3.4434 H   0  0  0  0  0  0  0  0  0  0  0  0
    3.1448   -9.2965    4.2071 H   0  0  0  0  0  0  0  0  0  0  0  0
    3.5161   -8.7067    2.6664 H   0  0  0  0  0  0  0  0  0  0  0  0
    4.8864   -8.4364    5.1801 H   0  0  0  0  0  0  0  0  0  0  0  0
    5.5210   -8.3283    3.5975 H   0  0  0  0  0  0  0  0  0  0  0  0
    7.2868   -6.9626    4.7632 H   0  0  0  0  0  0  0  0  0  0  0  0
    6.3561   -7.0520    6.2634 H   0  0  0  0  0  0  0  0  0  0  0  0
    6.8501   -5.4958    5.6386 H   0  0  0  0  0  0  0  0  0  0  0  0
    3.9097   -3.3719    6.0288 H   0  0  0  0  0  0  0  0  0  0  0  0
    1.3796   -4.7245    4.4223 H   0  0  0  0  0  0  0  0  0  0  0  0
   -0.1214   -6.2406    6.2582 H   0  0  0  0  0  0  0  0  0  0  0  0
   -0.2275   -7.8406    5.5312 H   0  0  0  0  0  0  0  0  0  0  0  0
   -0.5313   -6.4057    4.5833 H   0  0  0  0  0  0  0  0  0  0  0  0
    2.2128   -6.4520    7.1289 H   0  0  0  0  0  0  0  0  0  0  0  0
    3.1880   -7.6564    6.3258 H   0  0  0  0  0  0  0  0  0  0  0  0
    1.6071   -8.0786    6.8289 H   0  0  0  0  0  0  0  0  0  0  0  0
    2.0007   -1.9729    0.4852 H   0  0  0  0  0  0  0  0  0  0  0  0
    3.7083   -1.6329    0.5356 H   0  0  0  0  0  0  0  0  0  0  0  0
    2.9944   -0.7142   -1.4479 H   0  0  0  0  0  0  0  0  0  0  0  0
    2.2370   -2.1801   -2.0730 H   0  0  0  0  0  0  0  0  0  0  0  0
    2.3885   -4.0798   -0.4011 H   0  0  0  0  0  0  0  0  0  0  0  0
  1  2  1  0
  1 33  1  0
  1 34  1  0
  1 35  1  0
  2 32  1  0
  2  3  1  0
  3  4  1  0
  3 36  1  0
  3 37  1  0
  4  5  1  0
  4 38  1  0
  4 39  1  0
  5  6  1  0
  5 31  1  0
  5 69  1  0
  6 15  1  0
  6  7  1  0
  6 40  1  1
  7  8  1  0
  7  9  1  0
  7 41  1  6
  8 42  1  0
  9 25  1  0
  9 10  1  1
  9 11  1  0
 10 43  1  0
 10 44  1  0
 10 45  1  0
 11 22  1  0
 11 12  1  0
 11 46  1  6
 12 13  2  0
 12 14  1  0
 14 15  1  0
 15 16  1  6
 15 17  1  0
 16 47  1  0
 17 27  1  0
 17 18  1  6
 17 19  1  0
 18 48  1  0
 19 28  1  0
 19 20  1  0
 19 49  1  6
 20 21  1  0
 20 50  1  0
 20 51  1  0
 21 22  1  0
 21 52  1  0
 21 53  1  0
 22 23  1  1
 22 24  1  0
 23 54  1  0
 23 55  1  0
 23 56  1  0
 24 25  1  0
 25 26  1  1
 25 27  1  0
 26 57  1  0
 27 28  1  0
 27 58  1  6
 28 29  1  0
 28 30  1  0
 29 59  1  0
 29 60  1  0
 29 61  1  0
 30 62  1  0
 30 63  1  0
 30 64  1  0
 31 32  1  0
 31 65  1  0
 31 66  1  0
 32 67  1  0
 32 68  1  0
M  CHG  1   5   1
M  END
>  <i_m_ct_stereo_status>  (220) 
1

>  <s_m_source_file>  (220) 
/var/tmp/pbs.5076255.sched01/tmpy0mqr2dw/78t3ouse6d.sdf

>  <i_m_source_file_index>  (220) 
12

>  <i_lp_mmshare_version>  (220) 
48012

>  <i_f3d_flags>  (220) 
0

>  <s_epik_input>  (220) 
W0NIM11OMVtDSDJdW0NIMl1OKFtDSDJdW0NIMl0xKVtDQEhdKFtDQEhdMltPSF0pW0NAQF0oW09IXSkoT0MzPU8pW0NAXShbT0hdKShbQ0BIXShbQ0BdNChPNSlbT0hdKUM2KFtDSDNdKVtDSDNdKVtDQEhdNltDSDJdW0NIMl1bQ0BAXTUoW0NIM10pW0NAQEhdM1tDQEBdMjRbQ0gzXQ==

>  <s_epik_cmdline>  (220) 
J2VwaWtfcHl0aG9uJywgJy1waHQnLCAnMi4wJywgJy1waCcsICc3LjAnLCAnLXRuJywgJzgnLCAnLW1hJywgJzIwMCcsICctaW1hZScsICc8aW5maWxlLm1hZT4nLCAnLW9tYWUnLCAnPG91dGZpbGUubWFlPic=

>  <r_epik_Ionization_Penalty>  (220) 
0.00190624

>  <r_epik_Ionization_Penalty_Charging>  (220) 
0.00118666

>  <r_epik_Ionization_Penalty_Neutral>  (220) 
0.000719587

>  <r_epik_State_Penalty>  (220) 
0.00726129

>  <r_epik_Charging_Adjusted_Penalty>  (220) 
0.00844795

>  <i_epik_Tot_Q>  (220) 
1

>  <i_epik_Tot_abs_Q>  (220) 
1

>  <s_epik_Chemistry_Notes>  (220) 
This compound has an ester and may undergo hydrolysis at high or low pH.

>  <s_lp_Force_Field>  (220) 
OPLS3e

>  <r_lp_Energy>  (220) 
132.148

>  <b_lp_Chiralities_Consistent>  (220) 
1

>  <s_lp_Variant>  (220) 
67:0-1

>  <s_i_glide_gridfile>  (220) 
pfpi4k_grid

>  <i_i_glide_lignum>  (220) 
12

>  <i_i_glide_rotatable_bonds>  (220) 
5

>  <r_i_docking_score>  (220) 
-2.35946

>  <r_i_glide_ligand_efficiency>  (220) 
-0.073733

>  <r_i_glide_ligand_efficiency_sa>  (220) 
-0.234088

>  <r_i_glide_ligand_efficiency_ln>  (220) 
-0.528346

>  <r_i_glide_gscore>  (220) 
-2.35946

>  <r_i_glide_lipo>  (220) 
-0.10799

>  <r_i_glide_hbond>  (220) 
0

>  <r_i_glide_metal>  (220) 
-0

>  <r_i_glide_rewards>  (220) 
-0.355986

>  <r_i_glide_evdw>  (220) 
-15.979

>  <r_i_glide_ecoul>  (220) 
-7.86173

>  <r_i_glide_erotb>  (220) 
0.0975856

>  <r_i_glide_esite>  (220) 
-0.0148552

>  <r_i_glide_emodel>  (220) 
-26.698

>  <r_i_glide_energy>  (220) 
-23.8407

>  <r_i_glide_einternal>  (220) 
1.7351

>  <r_i_glide_intrahb_reward>  (220) 
-0

>  <i_i_glide_confnum>  (220) 
3

>  <i_i_glide_posenum>  (220) 
2

>  <r_i_glide_eff_state_penalty>  (220) 
0

>  <ligand_id>  (220) 
67

>  <original_smiles>  (220) 
CN1CCN(C2C(O)C3(C)C4C(=O)OC2(O)C2(O)C5CCC4(C)OC3(O)C2C5(C)C)CC1

>  <smiles>  (220) 
[H]OC1([H])C2(C([H])([H])[H])C3(O[H])OC4(C([H])([H])[H])C([H])([H])C([H])([H])C5([H])C(O[H])(C(O[H])(OC(=O)C42[H])C1([H])[N+]1([H])C([H])([H])C([H])([H])N(C([H])([H])[H])C([H])([H])C1([H])[H])C3([H])C5(C([H])([H])[H])C([H])([H])[H]

$$$$
67:0:2
     RDKit          3D

 69 74  0  0  1  0  0  0  0  0999 V2000
    4.5821   -2.3862   -3.7579 C   0  0  0  0  0  0  0  0  0  0  0  0
    4.2847   -2.5751   -2.3581 N   0  0  0  0  0  0  0  0  0  0  0  0
    4.9715   -3.7760   -1.9019 C   0  0  0  0  0  0  0  0  0  0  0  0
    4.7064   -3.9801   -0.4114 C   0  0  0  0  0  0  0  0  0  0  0  0
    3.2536   -4.0703   -0.1257 N   0  0  0  0  0  0  0  0  0  0  0  0
    2.8904   -4.2982    1.3223 C   0  0  2  0  0  0  0  0  0  0  0  0
    3.1011   -3.0528    2.2303 C   0  0  1  0  0  0  0  0  0  0  0  0
    1.8956   -2.2954    2.2622 O   0  0  0  0  0  0  0  0  0  0  0  0
    3.6891   -3.1877    3.6678 C   0  0  2  0  0  0  0  0  0  0  0  0
    4.0241   -1.7357    4.1284 C   0  0  0  0  0  0  0  0  0  0  0  0
    4.9972   -3.9871    3.7916 C   0  0  2  0  0  0  0  0  0  0  0  0
    5.4157   -4.8509    2.6054 C   0  0  0  0  0  0  0  0  0  0  0  0
    6.5082   -4.6695    2.0611 O   0  0  0  0  0  0  0  0  0  0  0  0
    4.6251   -5.8789    2.3005 O   0  0  0  0  0  0  0  0  0  0  0  0
    3.2896   -5.7030    1.9189 C   0  0  2  0  0  0  0  0  0  0  0  0
    3.0867   -6.6469    0.8883 O   0  0  0  0  0  0  0  0  0  0  0  0
    2.3079   -6.0807    3.1018 C   0  0  1  0  0  0  0  0  0  0  0  0
    1.1318   -6.5392    2.4369 O   0  0  0  0  0  0  0  0  0  0  0  0
    2.6904   -7.0594    4.2519 C   0  0  1  0  0  0  0  0  0  0  0  0
    4.1569   -7.3438    4.6598 C   0  0  0  0  0  0  0  0  0  0  0  0
    5.1091   -6.2528    5.2573 C   0  0  0  0  0  0  0  0  0  0  0  0
    4.9034   -4.7062    5.1604 C   0  0  1  0  0  0  0  0  0  0  0  0
    5.9126   -4.0716    6.1362 C   0  0  0  0  0  0  0  0  0  0  0  0
    3.6512   -4.3125    5.6830 O   0  0  0  0  0  0  0  0  0  0  0  0
    2.7634   -3.8925    4.7036 C   0  0  1  0  0  0  0  0  0  0  0  0
    1.8558   -2.9682    5.2625 O   0  0  0  0  0  0  0  0  0  0  0  0
    1.9109   -5.1058    4.2402 C   0  0  2  0  0  0  0  0  0  0  0  0
    1.6847   -6.3291    5.1920 C   0  0  0  0  0  0  0  0  0  0  0  0
    0.2524   -6.9036    5.2446 C   0  0  0  0  0  0  0  0  0  0  0  0
    2.0150   -6.2477    6.6937 C   0  0  0  0  0  0  0  0  0  0  0  0
    2.5207   -2.9343   -0.7393 C   0  0  0  0  0  0  0  0  0  0  0  0
    2.8423   -2.7710   -2.2228 C   0  0  0  0  0  0  0  0  0  0  0  0
    5.6573   -2.3698   -3.8996 H   0  0  0  0  0  0  0  0  0  0  0  0
    4.1598   -1.4349   -4.0901 H   0  0  0  0  0  0  0  0  0  0  0  0
    4.1758   -3.2140   -4.3411 H   0  0  0  0  0  0  0  0  0  0  0  0
    4.6785   -4.6523   -2.4831 H   0  0  0  0  0  0  0  0  0  0  0  0
    6.0481   -3.6359   -2.0278 H   0  0  0  0  0  0  0  0  0  0  0  0
    5.2037   -4.9138   -0.1511 H   0  0  0  0  0  0  0  0  0  0  0  0
    5.1760   -3.1614    0.1388 H   0  0  0  0  0  0  0  0  0  0  0  0
    1.8169   -4.4061    1.2806 H   0  0  0  0  0  0  0  0  0  0  0  0
    3.8236   -2.4073    1.7298 H   0  0  0  0  0  0  0  0  0  0  0  0
    1.7965   -1.8274    1.4474 H   0  0  0  0  0  0  0  0  0  0  0  0
    4.3754   -1.6977    5.1515 H   0  0  0  0  0  0  0  0  0  0  0  0
    3.1710   -1.0701    4.0466 H   0  0  0  0  0  0  0  0  0  0  0  0
    4.8027   -1.3053    3.4995 H   0  0  0  0  0  0  0  0  0  0  0  0
    5.8096   -3.2587    3.8526 H   0  0  0  0  0  0  0  0  0  0  0  0
    3.7682   -6.5526    0.2334 H   0  0  0  0  0  0  0  0  0  0  0  0
    1.3445   -7.3898    2.0990 H   0  0  0  0  0  0  0  0  0  0  0  0
    2.2313   -8.0266    4.0037 H   0  0  0  0  0  0  0  0  0  0  0  0
    4.1365   -8.1614    5.3851 H   0  0  0  0  0  0  0  0  0  0  0  0
    4.6701   -7.8165    3.8183 H   0  0  0  0  0  0  0  0  0  0  0  0
    5.1676   -6.4872    6.3193 H   0  0  0  0  0  0  0  0  0  0  0  0
    6.1138   -6.4817    4.8987 H   0  0  0  0  0  0  0  0  0  0  0  0
    6.9419   -4.3111    5.8632 H   0  0  0  0  0  0  0  0  0  0  0  0
    5.7437   -4.4325    7.1530 H   0  0  0  0  0  0  0  0  0  0  0  0
    5.8272   -2.9846    6.1758 H   0  0  0  0  0  0  0  0  0  0  0  0
    2.3382   -2.1711    5.4379 H   0  0  0  0  0  0  0  0  0  0  0  0
    0.9255   -4.7249    3.9399 H   0  0  0  0  0  0  0  0  0  0  0  0
   -0.3902   -6.2904    5.8797 H   0  0  0  0  0  0  0  0  0  0  0  0
    0.2473   -7.9170    5.6569 H   0  0  0  0  0  0  0  0  0  0  0  0
   -0.2612   -6.9695    4.2843 H   0  0  0  0  0  0  0  0  0  0  0  0
    1.5661   -5.3605    7.1366 H   0  0  0  0  0  0  0  0  0  0  0  0
    3.0768   -6.2193    6.8994 H   0  0  0  0  0  0  0  0  0  0  0  0
    1.6543   -7.1174    7.2417 H   0  0  0  0  0  0  0  0  0  0  0  0
    1.4469   -3.0858   -0.6535 H   0  0  0  0  0  0  0  0  0  0  0  0
    2.7715   -1.9838   -0.2675 H   0  0  0  0  0  0  0  0  0  0  0  0
    2.3309   -1.8731   -2.5806 H   0  0  0  0  0  0  0  0  0  0  0  0
    2.4768   -3.6092   -2.8242 H   0  0  0  0  0  0  0  0  0  0  0  0
    2.9336   -4.8723   -0.6412 H   0  0  0  0  0  0  0  0  0  0  0  0
  1  2  1  0
  1 33  1  0
  1 34  1  0
  1 35  1  0
  2 32  1  0
  2  3  1  0
  3  4  1  0
  3 36  1  0
  3 37  1  0
  4  5  1  0
  4 38  1  0
  4 39  1  0
  5  6  1  0
  5 31  1  0
  5 69  1  0
  6 15  1  0
  6  7  1  0
  6 40  1  6
  7  8  1  0
  7  9  1  0
  7 41  1  6
  8 42  1  0
  9 25  1  0
  9 10  1  1
  9 11  1  0
 10 43  1  0
 10 44  1  0
 10 45  1  0
 11 22  1  0
 11 12  1  0
 11 46  1  1
 12 13  2  0
 12 14  1  0
 14 15  1  0
 15 16  1  6
 15 17  1  0
 16 47  1  0
 17 27  1  0
 17 18  1  6
 17 19  1  0
 18 48  1  0
 19 28  1  0
 19 20  1  0
 19 49  1  6
 20 21  1  0
 20 50  1  0
 20 51  1  0
 21 22  1  0
 21 52  1  0
 21 53  1  0
 22 23  1  1
 22 24  1  0
 23 54  1  0
 23 55  1  0
 23 56  1  0
 24 25  1  0
 25 26  1  1
 25 27  1  0
 26 57  1  0
 27 28  1  0
 27 58  1  6
 28 29  1  0
 28 30  1  0
 29 59  1  0
 29 60  1  0
 29 61  1  0
 30 62  1  0
 30 63  1  0
 30 64  1  0
 31 32  1  0
 31 65  1  0
 31 66  1  0
 32 67  1  0
 32 68  1  0
M  CHG  1   5   1
M  END
>  <i_m_ct_stereo_status>  (221) 
1

>  <s_m_source_file>  (221) 
/var/tmp/pbs.5076255.sched01/tmpy0mqr2dw/78t3ouse6d.sdf

>  <i_m_source_file_index>  (221) 
12

>  <i_lp_mmshare_version>  (221) 
48012

>  <i_f3d_flags>  (221) 
0

>  <s_epik_input>  (221) 
W0NIM11OMVtDSDJdW0NIMl1OKFtDSDJdW0NIMl0xKVtDQEhdKFtDQEhdMltPSF0pW0NAQF0oW09IXSkoT0MzPU8pW0NAXShbT0hdKShbQ0BIXShbQ0BdNChPNSlbT0hdKUM2KFtDSDNdKVtDSDNdKVtDQEhdNltDSDJdW0NIMl1bQ0BAXTUoW0NIM10pW0NAQEhdM1tDQEBdMjRbQ0gzXQ==

>  <s_epik_cmdline>  (221) 
J2VwaWtfcHl0aG9uJywgJy1waHQnLCAnMi4wJywgJy1waCcsICc3LjAnLCAnLXRuJywgJzgnLCAnLW1hJywgJzIwMCcsICctaW1hZScsICc8aW5maWxlLm1hZT4nLCAnLW9tYWUnLCAnPG91dGZpbGUubWFlPic=

>  <r_epik_Ionization_Penalty>  (221) 
0.00190624

>  <r_epik_Ionization_Penalty_Charging>  (221) 
0.00118666

>  <r_epik_Ionization_Penalty_Neutral>  (221) 
0.000719587

>  <r_epik_State_Penalty>  (221) 
0.00726129

>  <r_epik_Charging_Adjusted_Penalty>  (221) 
0.00844795

>  <i_epik_Tot_Q>  (221) 
1

>  <i_epik_Tot_abs_Q>  (221) 
1

>  <s_epik_Chemistry_Notes>  (221) 
This compound has an ester and may undergo hydrolysis at high or low pH.

>  <s_lp_Force_Field>  (221) 
OPLS3e

>  <r_lp_Energy>  (221) 
132.148

>  <b_lp_Chiralities_Consistent>  (221) 
1

>  <s_lp_Variant>  (221) 
67:0-1

>  <s_i_glide_gridfile>  (221) 
pfpi4k_grid

>  <i_i_glide_lignum>  (221) 
12

>  <i_i_glide_rotatable_bonds>  (221) 
5

>  <r_i_docking_score>  (221) 
-2.0148

>  <r_i_glide_ligand_efficiency>  (221) 
-0.0629625

>  <r_i_glide_ligand_efficiency_sa>  (221) 
-0.199894

>  <r_i_glide_ligand_efficiency_ln>  (221) 
-0.451169

>  <r_i_glide_gscore>  (221) 
-2.0148

>  <r_i_glide_lipo>  (221) 
-0.0828635

>  <r_i_glide_hbond>  (221) 
0

>  <r_i_glide_metal>  (221) 
-0

>  <r_i_glide_rewards>  (221) 
-0.352291

>  <r_i_glide_evdw>  (221) 
-17.8089

>  <r_i_glide_ecoul>  (221) 
-5.12218

>  <r_i_glide_erotb>  (221) 
0.0975856

>  <r_i_glide_esite>  (221) 
-0.0184619

>  <r_i_glide_emodel>  (221) 
-25.8374

>  <r_i_glide_energy>  (221) 
-22.931

>  <r_i_glide_einternal>  (221) 
1.15052

>  <r_i_glide_intrahb_reward>  (221) 
-0

>  <i_i_glide_confnum>  (221) 
1

>  <i_i_glide_posenum>  (221) 
7

>  <r_i_glide_eff_state_penalty>  (221) 
0

>  <ligand_id>  (221) 
67

>  <original_smiles>  (221) 
CN1CCN(C2C(O)C3(C)C4C(=O)OC2(O)C2(O)C5CCC4(C)OC3(O)C2C5(C)C)CC1

>  <smiles>  (221) 
[H]OC1([H])C2(C([H])([H])[H])C3(O[H])OC4(C([H])([H])[H])C([H])([H])C([H])([H])C5([H])C(O[H])(C(O[H])(OC(=O)C42[H])C1([H])[N+]1([H])C([H])([H])C([H])([H])N(C([H])([H])[H])C([H])([H])C1([H])[H])C3([H])C5(C([H])([H])[H])C([H])([H])[H]

$$$$
67:1:0
     RDKit          3D

 69 74  0  0  1  0  0  0  0  0999 V2000
    3.4520   -1.1638   -2.2625 C   0  0  0  0  0  0  0  0  0  0  0  0
    3.4596   -2.0787   -1.1057 N   0  0  0  0  0  0  0  0  0  0  0  0
    4.8220   -2.2986   -0.5493 C   0  0  0  0  0  0  0  0  0  0  0  0
    4.7626   -3.2146    0.6949 C   0  0  0  0  0  0  0  0  0  0  0  0
    4.0861   -4.5152    0.4172 N   0  0  0  0  0  0  0  0  0  0  0  0
    4.0334   -5.4061    1.5952 C   0  0  2  0  0  0  0  0  0  0  0  0
    4.2606   -6.9175    1.2795 C   0  0  1  0  0  0  0  0  0  0  0  0
    5.6103   -7.2191    1.5866 O   0  0  0  0  0  0  0  0  0  0  0  0
    3.3481   -8.0574    1.8973 C   0  0  2  0  0  0  0  0  0  0  0  0
    3.6773   -9.3980    1.1533 C   0  0  0  0  0  0  0  0  0  0  0  0
    1.8197   -7.8575    1.7330 C   0  0  2  0  0  0  0  0  0  0  0  0
    1.3587   -6.4644    1.3575 C   0  0  0  0  0  0  0  0  0  0  0  0
    0.6005   -6.2579    0.3889 O   0  0  0  0  0  0  0  0  0  0  0  0
    1.5813   -5.5030    2.2242 O   0  0  0  0  0  0  0  0  0  0  0  0
    2.8690   -5.1134    2.6124 C   0  0  2  0  0  0  0  0  0  0  0  0
    2.7434   -3.7106    2.7350 O   0  0  0  0  0  0  0  0  0  0  0  0
    3.2161   -5.6257    4.0500 C   0  0  1  0  0  0  0  0  0  0  0  0
    4.1781   -4.6929    4.5518 O   0  0  0  0  0  0  0  0  0  0  0  0
    2.1120   -5.8942    5.1046 C   0  0  1  0  0  0  0  0  0  0  0  0
    0.6405   -6.2038    4.7141 C   0  0  0  0  0  0  0  0  0  0  0  0
    0.2149   -7.4762    3.8938 C   0  0  0  0  0  0  0  0  0  0  0  0
    1.1650   -8.3957    3.0377 C   0  0  1  0  0  0  0  0  0  0  0  0
    0.3644   -9.6638    2.7001 C   0  0  0  0  0  0  0  0  0  0  0  0
    2.2584   -8.8668    3.7957 O   0  0  0  0  0  0  0  0  0  0  0  0
    3.4645   -8.2810    3.4501 C   0  0  1  0  0  0  0  0  0  0  0  0
    4.5058   -9.1919    3.7221 O   0  0  0  0  0  0  0  0  0  0  0  0
    3.7120   -7.0587    4.3750 C   0  0  2  0  0  0  0  0  0  0  0  0
    3.0280   -6.9497    5.7865 C   0  0  0  0  0  0  0  0  0  0  0  0
    3.9209   -6.4140    6.9248 C   0  0  0  0  0  0  0  0  0  0  0  0
    2.3600   -8.1588    6.4472 C   0  0  0  0  0  0  0  0  0  0  0  0
    2.7871   -4.3363   -0.2541 C   0  0  0  0  0  0  0  0  0  0  0  0
    2.8424   -3.3867   -1.4616 C   0  0  0  0  0  0  0  0  0  0  0  0
    4.0268   -1.6135   -3.0723 H   0  0  0  0  0  0  0  0  0  0  0  0
    3.9031   -0.2173   -1.9976 H   0  0  0  0  0  0  0  0  0  0  0  0
    2.4304   -0.9997   -2.6107 H   0  0  0  0  0  0  0  0  0  0  0  0
    5.4630   -2.7389   -1.3266 H   0  0  0  0  0  0  0  0  0  0  0  0
    5.2737   -1.3497   -0.2766 H   0  0  0  0  0  0  0  0  0  0  0  0
    5.8060   -3.4130    1.0064 H   0  0  0  0  0  0  0  0  0  0  0  0
    4.2846   -2.6758    1.5098 H   0  0  0  0  0  0  0  0  0  0  0  0
    4.9101   -5.1516    2.1785 H   0  0  0  0  0  0  0  0  0  0  0  0
    4.1900   -7.0082    0.1926 H   0  0  0  0  0  0  0  0  0  0  0  0
    5.7876   -8.1105    1.3266 H   0  0  0  0  0  0  0  0  0  0  0  0
    3.1194  -10.2308    1.5709 H   0  0  0  0  0  0  0  0  0  0  0  0
    4.7296   -9.6600    1.2086 H   0  0  0  0  0  0  0  0  0  0  0  0
    3.4253   -9.3526    0.0951 H   0  0  0  0  0  0  0  0  0  0  0  0
    1.5002   -8.4963    0.9010 H   0  0  0  0  0  0  0  0  0  0  0  0
    2.7424   -3.3388    1.8656 H   0  0  0  0  0  0  0  0  0  0  0  0
    4.9782   -4.8282    4.0713 H   0  0  0  0  0  0  0  0  0  0  0  0
    2.0889   -4.9999    5.7440 H   0  0  0  0  0  0  0  0  0  0  0  0
    0.0519   -6.2145    5.6318 H   0  0  0  0  0  0  0  0  0  0  0  0
    0.2247   -5.3232    4.2125 H   0  0  0  0  0  0  0  0  0  0  0  0
   -0.2634   -8.1269    4.6232 H   0  0  0  0  0  0  0  0  0  0  0  0
   -0.6167   -7.1788    3.2525 H   0  0  0  0  0  0  0  0  0  0  0  0
   -0.5109   -9.4292    2.0954 H   0  0  0  0  0  0  0  0  0  0  0  0
    0.0223  -10.1655    3.6061 H   0  0  0  0  0  0  0  0  0  0  0  0
    0.9600  -10.3869    2.1405 H   0  0  0  0  0  0  0  0  0  0  0  0
    4.3272   -9.9888    3.2393 H   0  0  0  0  0  0  0  0  0  0  0  0
    4.8024   -6.9671    4.5033 H   0  0  0  0  0  0  0  0  0  0  0  0
    4.5717   -7.1990    7.3065 H   0  0  0  0  0  0  0  0  0  0  0  0
    3.3152   -6.0426    7.7555 H   0  0  0  0  0  0  0  0  0  0  0  0
    4.5878   -5.5911    6.6604 H   0  0  0  0  0  0  0  0  0  0  0  0
    3.0396   -9.0067    6.4550 H   0  0  0  0  0  0  0  0  0  0  0  0
    1.4457   -8.4676    5.9536 H   0  0  0  0  0  0  0  0  0  0  0  0
    2.0624   -7.9401    7.4715 H   0  0  0  0  0  0  0  0  0  0  0  0
    2.3787   -5.2877   -0.5969 H   0  0  0  0  0  0  0  0  0  0  0  0
    2.0961   -3.8844    0.4613 H   0  0  0  0  0  0  0  0  0  0  0  0
    1.8137   -3.2094   -1.7794 H   0  0  0  0  0  0  0  0  0  0  0  0
    3.3754   -3.8343   -2.3092 H   0  0  0  0  0  0  0  0  0  0  0  0
    2.8736   -1.6697   -0.3852 H   0  0  0  0  0  0  0  0  0  0  0  0
  1  2  1  0
  1 33  1  0
  1 34  1  0
  1 35  1  0
  2 32  1  0
  2  3  1  0
  2 69  1  0
  3  4  1  0
  3 36  1  0
  3 37  1  0
  4  5  1  0
  4 38  1  0
  4 39  1  0
  5  6  1  0
  5 31  1  0
  6 15  1  0
  6  7  1  0
  6 40  1  1
  7  8  1  0
  7  9  1  0
  7 41  1  6
  8 42  1  0
  9 25  1  0
  9 10  1  6
  9 11  1  0
 10 43  1  0
 10 44  1  0
 10 45  1  0
 11 22  1  0
 11 12  1  0
 11 46  1  6
 12 13  2  0
 12 14  1  0
 14 15  1  0
 15 16  1  1
 15 17  1  0
 16 47  1  0
 17 27  1  0
 17 18  1  1
 17 19  1  0
 18 48  1  0
 19 28  1  0
 19 20  1  0
 19 49  1  1
 20 21  1  0
 20 50  1  0
 20 51  1  0
 21 22  1  0
 21 52  1  0
 21 53  1  0
 22 23  1  6
 22 24  1  0
 23 54  1  0
 23 55  1  0
 23 56  1  0
 24 25  1  0
 25 26  1  6
 25 27  1  0
 26 57  1  0
 27 28  1  0
 27 58  1  1
 28 29  1  0
 28 30  1  0
 29 59  1  0
 29 60  1  0
 29 61  1  0
 30 62  1  0
 30 63  1  0
 30 64  1  0
 31 32  1  0
 31 65  1  0
 31 66  1  0
 32 67  1  0
 32 68  1  0
M  CHG  1   2   1
M  END
>  <i_m_ct_stereo_status>  (222) 
1

>  <s_m_source_file>  (222) 
/var/tmp/pbs.5076255.sched01/tmpy0mqr2dw/78t3ouse6d.sdf

>  <i_m_source_file_index>  (222) 
13

>  <i_lp_mmshare_version>  (222) 
48012

>  <i_f3d_flags>  (222) 
0

>  <s_epik_input>  (222) 
W0NIM11OMVtDSDJdW0NIMl1OKFtDSDJdW0NIMl0xKVtDQEhdKFtDQEhdMltPSF0pW0NAQF0oW09IXSkoT0MzPU8pW0NAXShbT0hdKShbQ0BIXShbQ0BdNChPNSlbT0hdKUM2KFtDSDNdKVtDSDNdKVtDQEhdNltDSDJdW0NIMl1bQ0BAXTUoW0NIM10pW0NAQEhdM1tDQEBdMjRbQ0gzXQ==

>  <s_epik_cmdline>  (222) 
J2VwaWtfcHl0aG9uJywgJy1waHQnLCAnMi4wJywgJy1waCcsICc3LjAnLCAnLXRuJywgJzgnLCAnLW1hJywgJzIwMCcsICctaW1hZScsICc8aW5maWxlLm1hZT4nLCAnLW9tYWUnLCAnPG91dGZpbGUubWFlPic=

>  <r_epik_Ionization_Penalty>  (222) 
0.142104

>  <r_epik_Ionization_Penalty_Charging>  (222) 
0.0689056

>  <r_epik_Ionization_Penalty_Neutral>  (222) 
0.0731986

>  <r_epik_State_Penalty>  (222) 
2.61161

>  <r_epik_Charging_Adjusted_Penalty>  (222) 
2.68052

>  <i_epik_Tot_Q>  (222) 
1

>  <i_epik_Tot_abs_Q>  (222) 
1

>  <s_epik_Chemistry_Notes>  (222) 
This compound has an ester and may undergo hydrolysis at high or low pH.

>  <s_lp_Force_Field>  (222) 
OPLS3e

>  <r_lp_Energy>  (222) 
139.303

>  <b_lp_Chiralities_Consistent>  (222) 
1

>  <s_lp_Variant>  (222) 
67:0-2

>  <s_i_glide_gridfile>  (222) 
pfpi4k_grid

>  <i_i_glide_lignum>  (222) 
13

>  <i_i_glide_rotatable_bonds>  (222) 
5

>  <r_i_docking_score>  (222) 
-3.26342

>  <r_i_glide_ligand_efficiency>  (222) 
-0.101982

>  <r_i_glide_ligand_efficiency_sa>  (222) 
-0.323773

>  <r_i_glide_ligand_efficiency_ln>  (222) 
-0.73077

>  <r_i_glide_gscore>  (222) 
-3.26342

>  <r_i_glide_lipo>  (222) 
-0.246532

>  <r_i_glide_hbond>  (222) 
-0.325153

>  <r_i_glide_metal>  (222) 
-0

>  <r_i_glide_rewards>  (222) 
-0.316711

>  <r_i_glide_evdw>  (222) 
-23.6478

>  <r_i_glide_ecoul>  (222) 
-7.66413

>  <r_i_glide_erotb>  (222) 
0.0975856

>  <r_i_glide_esite>  (222) 
-0.140606

>  <r_i_glide_emodel>  (222) 
-29.4746

>  <r_i_glide_energy>  (222) 
-31.3119

>  <r_i_glide_einternal>  (222) 
15.3568

>  <r_i_glide_intrahb_reward>  (222) 
-0

>  <i_i_glide_confnum>  (222) 
2

>  <i_i_glide_posenum>  (222) 
39

>  <r_i_glide_eff_state_penalty>  (222) 
0

>  <ligand_id>  (222) 
67

>  <original_smiles>  (222) 
CN1CCN(C2C(O)C3(C)C4C(=O)OC2(O)C2(O)C5CCC4(C)OC3(O)C2C5(C)C)CC1

>  <smiles>  (222) 
[H]OC1([H])C([H])(N2C([H])([H])C([H])([H])[N+]([H])(C([H])([H])[H])C([H])([H])C2([H])[H])C2(O[H])OC(=O)C3([H])C4(C([H])([H])[H])OC(O[H])(C5([H])C2(O[H])C([H])(C([H])([H])C4([H])[H])C5(C([H])([H])[H])C([H])([H])[H])C13C([H])([H])[H]

$$$$
67:1:1
     RDKit          3D

 69 74  0  0  1  0  0  0  0  0999 V2000
    2.7394   -0.5092   -4.5270 C   0  0  0  0  0  0  0  0  0  0  0  0
    3.0361   -0.9685   -3.1623 N   0  0  0  0  0  0  0  0  0  0  0  0
    4.3925   -0.5645   -2.7510 C   0  0  0  0  0  0  0  0  0  0  0  0
    4.6952   -1.0114   -1.3143 C   0  0  0  0  0  0  0  0  0  0  0  0
    4.4990   -2.4668   -1.1116 N   0  0  0  0  0  0  0  0  0  0  0  0
    4.7707   -2.8898    0.2804 C   0  0  2  0  0  0  0  0  0  0  0  0
    5.4693   -4.2817    0.4085 C   0  0  1  0  0  0  0  0  0  0  0  0
    6.8666   -4.0741    0.5633 O   0  0  0  0  0  0  0  0  0  0  0  0
    4.9884   -5.3813    1.4432 C   0  0  2  0  0  0  0  0  0  0  0  0
    5.6970   -6.7213    1.0819 C   0  0  0  0  0  0  0  0  0  0  0  0
    3.4880   -5.7230    1.4344 C   0  0  2  0  0  0  0  0  0  0  0  0
    2.6101   -4.7452    0.7138 C   0  0  0  0  0  0  0  0  0  0  0  0
    1.8195   -5.1491   -0.1498 O   0  0  0  0  0  0  0  0  0  0  0  0
    2.5138   -3.5173    1.2141 O   0  0  0  0  0  0  0  0  0  0  0  0
    3.5949   -2.6414    1.2990 C   0  0  2  0  0  0  0  0  0  0  0  0
    3.0330   -1.3673    1.0435 O   0  0  0  0  0  0  0  0  0  0  0  0
    4.1350   -2.5471    2.7691 C   0  0  1  0  0  0  0  0  0  0  0  0
    4.7466   -1.2644    2.8251 O   0  0  0  0  0  0  0  0  0  0  0  0
    3.2083   -2.7673    3.9906 C   0  0  1  0  0  0  0  0  0  0  0  0
    1.9085   -3.6119    3.9075 C   0  0  0  0  0  0  0  0  0  0  0  0
    1.8953   -5.1453    3.5642 C   0  0  0  0  0  0  0  0  0  0  0  0
    3.0652   -5.9700    2.9028 C   0  0  1  0  0  0  0  0  0  0  0  0
    2.7030   -7.4560    3.0648 C   0  0  0  0  0  0  0  0  0  0  0  0
    4.2732   -5.8291    3.6190 O   0  0  0  0  0  0  0  0  0  0  0  0
    5.2112   -5.0511    2.9583 C   0  0  1  0  0  0  0  0  0  0  0  0
    6.5001   -5.4788    3.3417 O   0  0  0  0  0  0  0  0  0  0  0  0
    5.0721   -3.5837    3.4278 C   0  0  2  0  0  0  0  0  0  0  0  0
    4.4389   -3.2263    4.8216 C   0  0  0  0  0  0  0  0  0  0  0  0
    5.1540   -2.1159    5.6222 C   0  0  0  0  0  0  0  0  0  0  0  0
    4.2231   -4.3000    5.8952 C   0  0  0  0  0  0  0  0  0  0  0  0
    3.1948   -2.9112   -1.6270 C   0  0  0  0  0  0  0  0  0  0  0  0
    2.8853   -2.4420   -3.0453 C   0  0  0  0  0  0  0  0  0  0  0  0
    3.4240   -0.9845   -5.2386 H   0  0  0  0  0  0  0  0  0  0  0  0
    2.8114    0.5769   -4.6255 H   0  0  0  0  0  0  0  0  0  0  0  0
    1.7342   -0.8205   -4.7912 H   0  0  0  0  0  0  0  0  0  0  0  0
    5.0487   -1.0553   -3.4678 H   0  0  0  0  0  0  0  0  0  0  0  0
    4.5234    0.5141   -2.8474 H   0  0  0  0  0  0  0  0  0  0  0  0
    5.7425   -0.7542   -1.0911 H   0  0  0  0  0  0  0  0  0  0  0  0
    4.0851   -0.4133   -0.6366 H   0  0  0  0  0  0  0  0  0  0  0  0
    5.5317   -2.2029    0.6357 H   0  0  0  0  0  0  0  0  0  0  0  0
    5.3822   -4.7334   -0.5815 H   0  0  0  0  0  0  0  0  0  0  0  0
    7.0343   -3.7418    1.4313 H   0  0  0  0  0  0  0  0  0  0  0  0
    5.4570   -7.5136    1.7871 H   0  0  0  0  0  0  0  0  0  0  0  0
    6.7801   -6.6311    1.0509 H   0  0  0  0  0  0  0  0  0  0  0  0
    5.3759   -7.0601    0.0985 H   0  0  0  0  0  0  0  0  0  0  0  0
    3.3600   -6.6559    0.8728 H   0  0  0  0  0  0  0  0  0  0  0  0
    2.4721   -1.4195    0.2730 H   0  0  0  0  0  0  0  0  0  0  0  0
    4.0814   -0.6662    2.5115 H   0  0  0  0  0  0  0  0  0  0  0  0
    2.9213   -1.7693    4.3405 H   0  0  0  0  0  0  0  0  0  0  0  0
    1.3862   -3.4989    4.8583 H   0  0  0  0  0  0  0  0  0  0  0  0
    1.2158   -3.1072    3.2267 H   0  0  0  0  0  0  0  0  0  0  0  0
    1.6738   -5.6341    4.5107 H   0  0  0  0  0  0  0  0  0  0  0  0
    0.9915   -5.3274    2.9805 H   0  0  0  0  0  0  0  0  0  0  0  0
    1.7777   -7.6996    2.5418 H   0  0  0  0  0  0  0  0  0  0  0  0
    2.5724   -7.7124    4.1164 H   0  0  0  0  0  0  0  0  0  0  0  0
    3.4821   -8.1122    2.6733 H   0  0  0  0  0  0  0  0  0  0  0  0
    6.6119   -6.3581    3.0416 H   0  0  0  0  0  0  0  0  0  0  0  0
    6.0574   -3.1181    3.3539 H   0  0  0  0  0  0  0  0  0  0  0  0
    6.0369   -2.5078    6.1283 H   0  0  0  0  0  0  0  0  0  0  0  0
    4.4921   -1.6939    6.3825 H   0  0  0  0  0  0  0  0  0  0  0  0
    5.5074   -1.2678    5.0362 H   0  0  0  0  0  0  0  0  0  0  0  0
    5.1418   -4.8604    6.0637 H   0  0  0  0  0  0  0  0  0  0  0  0
    3.4452   -5.0098    5.6441 H   0  0  0  0  0  0  0  0  0  0  0  0
    3.9040   -3.8651    6.8433 H   0  0  0  0  0  0  0  0  0  0  0  0
    3.1221   -4.0090   -1.6213 H   0  0  0  0  0  0  0  0  0  0  0  0
    2.4027   -2.5095   -0.9963 H   0  0  0  0  0  0  0  0  0  0  0  0
    1.8493   -2.7129   -3.2615 H   0  0  0  0  0  0  0  0  0  0  0  0
    3.5127   -2.9694   -3.7706 H   0  0  0  0  0  0  0  0  0  0  0  0
    2.3831   -0.5507   -2.5114 H   0  0  0  0  0  0  0  0  0  0  0  0
  1  2  1  0
  1 33  1  0
  1 34  1  0
  1 35  1  0
  2 32  1  0
  2  3  1  0
  2 69  1  0
  3  4  1  0
  3 36  1  0
  3 37  1  0
  4  5  1  0
  4 38  1  0
  4 39  1  0
  5  6  1  0
  5 31  1  0
  6 15  1  0
  6  7  1  0
  6 40  1  1
  7  8  1  0
  7  9  1  0
  7 41  1  6
  8 42  1  0
  9 25  1  0
  9 10  1  6
  9 11  1  0
 10 43  1  0
 10 44  1  0
 10 45  1  0
 11 22  1  0
 11 12  1  0
 11 46  1  6
 12 13  2  0
 12 14  1  0
 14 15  1  0
 15 16  1  6
 15 17  1  0
 16 47  1  0
 17 27  1  0
 17 18  1  1
 17 19  1  0
 18 48  1  0
 19 28  1  0
 19 20  1  0
 19 49  1  1
 20 21  1  0
 20 50  1  0
 20 51  1  0
 21 22  1  0
 21 52  1  0
 21 53  1  0
 22 23  1  6
 22 24  1  0
 23 54  1  0
 23 55  1  0
 23 56  1  0
 24 25  1  0
 25 26  1  1
 25 27  1  0
 26 57  1  0
 27 28  1  0
 27 58  1  1
 28 29  1  0
 28 30  1  0
 29 59  1  0
 29 60  1  0
 29 61  1  0
 30 62  1  0
 30 63  1  0
 30 64  1  0
 31 32  1  0
 31 65  1  0
 31 66  1  0
 32 67  1  0
 32 68  1  0
M  CHG  1   2   1
M  END
>  <i_m_ct_stereo_status>  (223) 
1

>  <s_m_source_file>  (223) 
/var/tmp/pbs.5076255.sched01/tmpy0mqr2dw/78t3ouse6d.sdf

>  <i_m_source_file_index>  (223) 
13

>  <i_lp_mmshare_version>  (223) 
48012

>  <i_f3d_flags>  (223) 
0

>  <s_epik_input>  (223) 
W0NIM11OMVtDSDJdW0NIMl1OKFtDSDJdW0NIMl0xKVtDQEhdKFtDQEhdMltPSF0pW0NAQF0oW09IXSkoT0MzPU8pW0NAXShbT0hdKShbQ0BIXShbQ0BdNChPNSlbT0hdKUM2KFtDSDNdKVtDSDNdKVtDQEhdNltDSDJdW0NIMl1bQ0BAXTUoW0NIM10pW0NAQEhdM1tDQEBdMjRbQ0gzXQ==

>  <s_epik_cmdline>  (223) 
J2VwaWtfcHl0aG9uJywgJy1waHQnLCAnMi4wJywgJy1waCcsICc3LjAnLCAnLXRuJywgJzgnLCAnLW1hJywgJzIwMCcsICctaW1hZScsICc8aW5maWxlLm1hZT4nLCAnLW9tYWUnLCAnPG91dGZpbGUubWFlPic=

>  <r_epik_Ionization_Penalty>  (223) 
0.142104

>  <r_epik_Ionization_Penalty_Charging>  (223) 
0.0689056

>  <r_epik_Ionization_Penalty_Neutral>  (223) 
0.0731986

>  <r_epik_State_Penalty>  (223) 
2.61161

>  <r_epik_Charging_Adjusted_Penalty>  (223) 
2.68052

>  <i_epik_Tot_Q>  (223) 
1

>  <i_epik_Tot_abs_Q>  (223) 
1

>  <s_epik_Chemistry_Notes>  (223) 
This compound has an ester and may undergo hydrolysis at high or low pH.

>  <s_lp_Force_Field>  (223) 
OPLS3e

>  <r_lp_Energy>  (223) 
139.303

>  <b_lp_Chiralities_Consistent>  (223) 
1

>  <s_lp_Variant>  (223) 
67:0-2

>  <s_i_glide_gridfile>  (223) 
pfpi4k_grid

>  <i_i_glide_lignum>  (223) 
13

>  <i_i_glide_rotatable_bonds>  (223) 
5

>  <r_i_docking_score>  (223) 
-3.05905

>  <r_i_glide_ligand_efficiency>  (223) 
-0.0955953

>  <r_i_glide_ligand_efficiency_sa>  (223) 
-0.303496

>  <r_i_glide_ligand_efficiency_ln>  (223) 
-0.685004

>  <r_i_glide_gscore>  (223) 
-3.05905

>  <r_i_glide_lipo>  (223) 
-0.60243

>  <r_i_glide_hbond>  (223) 
-0.0813386

>  <r_i_glide_metal>  (223) 
-0

>  <r_i_glide_rewards>  (223) 
-0.325805

>  <r_i_glide_evdw>  (223) 
-21.3514

>  <r_i_glide_ecoul>  (223) 
-6.93176

>  <r_i_glide_erotb>  (223) 
0.0975856

>  <r_i_glide_esite>  (223) 
-0.0397257

>  <r_i_glide_emodel>  (223) 
-25.503

>  <r_i_glide_energy>  (223) 
-28.2832

>  <r_i_glide_einternal>  (223) 
15.5426

>  <r_i_glide_intrahb_reward>  (223) 
-0

>  <i_i_glide_confnum>  (223) 
2

>  <i_i_glide_posenum>  (223) 
6

>  <r_i_glide_eff_state_penalty>  (223) 
0

>  <ligand_id>  (223) 
67

>  <original_smiles>  (223) 
CN1CCN(C2C(O)C3(C)C4C(=O)OC2(O)C2(O)C5CCC4(C)OC3(O)C2C5(C)C)CC1

>  <smiles>  (223) 
[H]OC1([H])C([H])(N2C([H])([H])C([H])([H])[N+]([H])(C([H])([H])[H])C([H])([H])C2([H])[H])C2(O[H])OC(=O)C3([H])C4(C([H])([H])[H])OC(O[H])(C5([H])C2(O[H])C([H])(C([H])([H])C4([H])[H])C5(C([H])([H])[H])C([H])([H])[H])C13C([H])([H])[H]

$$$$
67:1:2
     RDKit          3D

 69 74  0  0  1  0  0  0  0  0999 V2000
    2.7963   -1.0583   -4.1433 C   0  0  0  0  0  0  0  0  0  0  0  0
    3.0712   -1.4673   -2.7505 N   0  0  0  0  0  0  0  0  0  0  0  0
    4.3812   -0.9646   -2.2574 C   0  0  0  0  0  0  0  0  0  0  0  0
    4.5821   -1.3538   -0.7783 C   0  0  0  0  0  0  0  0  0  0  0  0
    4.4510   -2.8217   -0.5539 N   0  0  0  0  0  0  0  0  0  0  0  0
    4.6590   -3.2143    0.8578 C   0  0  2  0  0  0  0  0  0  0  0  0
    5.4324   -4.5553    1.0455 C   0  0  1  0  0  0  0  0  0  0  0  0
    6.7898   -4.2392    1.3094 O   0  0  0  0  0  0  0  0  0  0  0  0
    4.9673   -5.6624    2.0763 C   0  0  2  0  0  0  0  0  0  0  0  0
    5.7879   -6.9628    1.7963 C   0  0  0  0  0  0  0  0  0  0  0  0
    3.4881   -6.1025    1.9746 C   0  0  2  0  0  0  0  0  0  0  0  0
    2.5679   -5.1996    1.1703 C   0  0  0  0  0  0  0  0  0  0  0  0
    1.8478   -5.6350    0.2711 O   0  0  0  0  0  0  0  0  0  0  0  0
    2.3768   -3.9712    1.6388 O   0  0  0  0  0  0  0  0  0  0  0  0
    3.4051   -3.0370    1.7931 C   0  0  2  0  0  0  0  0  0  0  0  0
    2.7973   -1.7985    1.4713 O   0  0  0  0  0  0  0  0  0  0  0  0
    3.8416   -2.8790    3.2961 C   0  0  1  0  0  0  0  0  0  0  0  0
    4.3490   -1.5572    3.3700 O   0  0  0  0  0  0  0  0  0  0  0  0
    2.8501   -3.1405    4.4545 C   0  0  1  0  0  0  0  0  0  0  0  0
    1.6131   -4.0686    4.2989 C   0  0  0  0  0  0  0  0  0  0  0  0
    1.7236   -5.6026    3.9849 C   0  0  0  0  0  0  0  0  0  0  0  0
    2.9900   -6.3568    3.4218 C   0  0  1  0  0  0  0  0  0  0  0  0
    2.7184   -7.8617    3.5871 C   0  0  0  0  0  0  0  0  0  0  0  0
    4.1350   -6.1219    4.2131 O   0  0  0  0  0  0  0  0  0  0  0  0
    5.0637   -5.2926    3.6011 C   0  0  1  0  0  0  0  0  0  0  0  0
    6.3481   -5.6246    4.0851 O   0  0  0  0  0  0  0  0  0  0  0  0
    4.8039   -3.8304    4.0393 C   0  0  2  0  0  0  0  0  0  0  0  0
    4.0450   -3.5001    5.3814 C   0  0  0  0  0  0  0  0  0  0  0  0
    4.6247   -2.3308    6.2033 C   0  0  0  0  0  0  0  0  0  0  0  0
    3.8254   -4.5708    6.4569 C   0  0  0  0  0  0  0  0  0  0  0  0
    3.2215   -3.3722   -1.1482 C   0  0  0  0  0  0  0  0  0  0  0  0
    3.0069   -2.9502   -2.6026 C   0  0  0  0  0  0  0  0  0  0  0  0
    3.5565   -1.4958   -4.7921 H   0  0  0  0  0  0  0  0  0  0  0  0
    2.8089    0.0276   -4.2545 H   0  0  0  0  0  0  0  0  0  0  0  0
    1.8269   -1.4505   -4.4567 H   0  0  0  0  0  0  0  0  0  0  0  0
    5.1798   -1.3790   -2.8889 H   0  0  0  0  0  0  0  0  0  0  0  0
    4.4322    0.1214   -2.3639 H   0  0  0  0  0  0  0  0  0  0  0  0
    5.6012   -1.0349   -0.4909 H   0  0  0  0  0  0  0  0  0  0  0  0
    3.8749   -0.7896   -0.1583 H   0  0  0  0  0  0  0  0  0  0  0  0
    5.3478   -2.4788    1.2567 H   0  0  0  0  0  0  0  0  0  0  0  0
    5.4455   -5.0283    0.0584 H   0  0  0  0  0  0  0  0  0  0  0  0
    7.2736   -5.0468    1.3868 H   0  0  0  0  0  0  0  0  0  0  0  0
    5.5457   -7.7519    2.5051 H   0  0  0  0  0  0  0  0  0  0  0  0
    6.8633   -6.8020    1.8496 H   0  0  0  0  0  0  0  0  0  0  0  0
    5.5716   -7.3543    0.8014 H   0  0  0  0  0  0  0  0  0  0  0  0
    3.4656   -7.0571    1.4276 H   0  0  0  0  0  0  0  0  0  0  0  0
    2.4908   -1.8136    0.5699 H   0  0  0  0  0  0  0  0  0  0  0  0
    3.6805   -1.0211    2.9624 H   0  0  0  0  0  0  0  0  0  0  0  0
    2.4750   -2.1556    4.7641 H   0  0  0  0  0  0  0  0  0  0  0  0
    1.0153   -3.9795    5.2075 H   0  0  0  0  0  0  0  0  0  0  0  0
    0.9376   -3.6222    3.5647 H   0  0  0  0  0  0  0  0  0  0  0  0
    1.4721   -6.0967    4.9207 H   0  0  0  0  0  0  0  0  0  0  0  0
    0.8785   -5.8588    3.3404 H   0  0  0  0  0  0  0  0  0  0  0  0
    1.8489   -8.1712    3.0049 H   0  0  0  0  0  0  0  0  0  0  0  0
    2.5310   -8.1097    4.6309 H   0  0  0  0  0  0  0  0  0  0  0  0
    3.5649   -8.4676    3.2609 H   0  0  0  0  0  0  0  0  0  0  0  0
    6.5275   -6.5165    3.8449 H   0  0  0  0  0  0  0  0  0  0  0  0
    5.7725   -3.3080    4.0428 H   0  0  0  0  0  0  0  0  0  0  0  0
    5.4907   -2.6568    6.7753 H   0  0  0  0  0  0  0  0  0  0  0  0
    3.8817   -1.9449    6.9034 H   0  0  0  0  0  0  0  0  0  0  0  0
    4.9643   -1.4734    5.6236 H   0  0  0  0  0  0  0  0  0  0  0  0
    4.7665   -5.0598    6.6948 H   0  0  0  0  0  0  0  0  0  0  0  0
    3.1133   -5.3272    6.1613 H   0  0  0  0  0  0  0  0  0  0  0  0
    3.4153   -4.1349    7.3669 H   0  0  0  0  0  0  0  0  0  0  0  0
    3.2163   -4.4837   -1.1131 H   0  0  0  0  0  0  0  0  0  0  0  0
    2.3658   -2.9974   -0.5860 H   0  0  0  0  0  0  0  0  0  0  0  0
    2.0045   -3.2802   -2.8864 H   0  0  0  0  0  0  0  0  0  0  0  0
    3.7101   -3.4434   -3.2810 H   0  0  0  0  0  0  0  0  0  0  0  0
    2.3573   -1.0892   -2.1322 H   0  0  0  0  0  0  0  0  0  0  0  0
  1  2  1  0
  1 33  1  0
  1 34  1  0
  1 35  1  0
  2 32  1  0
  2  3  1  0
  2 69  1  0
  3  4  1  0
  3 36  1  0
  3 37  1  0
  4  5  1  0
  4 38  1  0
  4 39  1  0
  5  6  1  0
  5 31  1  0
  6 15  1  0
  6  7  1  0
  6 40  1  1
  7  8  1  0
  7  9  1  0
  7 41  1  6
  8 42  1  0
  9 25  1  0
  9 10  1  1
  9 11  1  0
 10 43  1  0
 10 44  1  0
 10 45  1  0
 11 22  1  0
 11 12  1  0
 11 46  1  6
 12 13  2  0
 12 14  1  0
 14 15  1  0
 15 16  1  6
 15 17  1  0
 16 47  1  0
 17 27  1  0
 17 18  1  6
 17 19  1  0
 18 48  1  0
 19 28  1  0
 19 20  1  0
 19 49  1  1
 20 21  1  0
 20 50  1  0
 20 51  1  0
 21 22  1  0
 21 52  1  0
 21 53  1  0
 22 23  1  6
 22 24  1  0
 23 54  1  0
 23 55  1  0
 23 56  1  0
 24 25  1  0
 25 26  1  1
 25 27  1  0
 26 57  1  0
 27 28  1  0
 27 58  1  1
 28 29  1  0
 28 30  1  0
 29 59  1  0
 29 60  1  0
 29 61  1  0
 30 62  1  0
 30 63  1  0
 30 64  1  0
 31 32  1  0
 31 65  1  0
 31 66  1  0
 32 67  1  0
 32 68  1  0
M  CHG  1   2   1
M  END
>  <i_m_ct_stereo_status>  (224) 
1

>  <s_m_source_file>  (224) 
/var/tmp/pbs.5076255.sched01/tmpy0mqr2dw/78t3ouse6d.sdf

>  <i_m_source_file_index>  (224) 
13

>  <i_lp_mmshare_version>  (224) 
48012

>  <i_f3d_flags>  (224) 
0

>  <s_epik_input>  (224) 
W0NIM11OMVtDSDJdW0NIMl1OKFtDSDJdW0NIMl0xKVtDQEhdKFtDQEhdMltPSF0pW0NAQF0oW09IXSkoT0MzPU8pW0NAXShbT0hdKShbQ0BIXShbQ0BdNChPNSlbT0hdKUM2KFtDSDNdKVtDSDNdKVtDQEhdNltDSDJdW0NIMl1bQ0BAXTUoW0NIM10pW0NAQEhdM1tDQEBdMjRbQ0gzXQ==

>  <s_epik_cmdline>  (224) 
J2VwaWtfcHl0aG9uJywgJy1waHQnLCAnMi4wJywgJy1waCcsICc3LjAnLCAnLXRuJywgJzgnLCAnLW1hJywgJzIwMCcsICctaW1hZScsICc8aW5maWxlLm1hZT4nLCAnLW9tYWUnLCAnPG91dGZpbGUubWFlPic=

>  <r_epik_Ionization_Penalty>  (224) 
0.142104

>  <r_epik_Ionization_Penalty_Charging>  (224) 
0.0689056

>  <r_epik_Ionization_Penalty_Neutral>  (224) 
0.0731986

>  <r_epik_State_Penalty>  (224) 
2.61161

>  <r_epik_Charging_Adjusted_Penalty>  (224) 
2.68052

>  <i_epik_Tot_Q>  (224) 
1

>  <i_epik_Tot_abs_Q>  (224) 
1

>  <s_epik_Chemistry_Notes>  (224) 
This compound has an ester and may undergo hydrolysis at high or low pH.

>  <s_lp_Force_Field>  (224) 
OPLS3e

>  <r_lp_Energy>  (224) 
139.303

>  <b_lp_Chiralities_Consistent>  (224) 
1

>  <s_lp_Variant>  (224) 
67:0-2

>  <s_i_glide_gridfile>  (224) 
pfpi4k_grid

>  <i_i_glide_lignum>  (224) 
13

>  <i_i_glide_rotatable_bonds>  (224) 
5

>  <r_i_docking_score>  (224) 
-3.045

>  <r_i_glide_ligand_efficiency>  (224) 
-0.0951563

>  <r_i_glide_ligand_efficiency_sa>  (224) 
-0.302102

>  <r_i_glide_ligand_efficiency_ln>  (224) 
-0.681859

>  <r_i_glide_gscore>  (224) 
-3.045

>  <r_i_glide_lipo>  (224) 
-0.363885

>  <r_i_glide_hbond>  (224) 
-0.247319

>  <r_i_glide_metal>  (224) 
-0

>  <r_i_glide_rewards>  (224) 
-0.317514

>  <r_i_glide_evdw>  (224) 
-21.5624

>  <r_i_glide_ecoul>  (224) 
-7.03775

>  <r_i_glide_erotb>  (224) 
0.0975856

>  <r_i_glide_esite>  (224) 
-0.0800892

>  <r_i_glide_emodel>  (224) 
-26.1954

>  <r_i_glide_energy>  (224) 
-28.6001

>  <r_i_glide_einternal>  (224) 
15.408

>  <r_i_glide_intrahb_reward>  (224) 
-0

>  <i_i_glide_confnum>  (224) 
4

>  <i_i_glide_posenum>  (224) 
35

>  <r_i_glide_eff_state_penalty>  (224) 
0

>  <ligand_id>  (224) 
67

>  <original_smiles>  (224) 
CN1CCN(C2C(O)C3(C)C4C(=O)OC2(O)C2(O)C5CCC4(C)OC3(O)C2C5(C)C)CC1

>  <smiles>  (224) 
[H]OC1([H])C([H])(N2C([H])([H])C([H])([H])[N+]([H])(C([H])([H])[H])C([H])([H])C2([H])[H])C2(O[H])OC(=O)C3([H])C4(C([H])([H])[H])OC(O[H])(C5([H])C2(O[H])C([H])(C([H])([H])C4([H])[H])C5(C([H])([H])[H])C([H])([H])[H])C13C([H])([H])[H]

$$$$
68:0:0
     RDKit          3D

 46 48  0  0  1  0  0  0  0  0999 V2000
    3.0172    0.3326    1.9556 C   0  0  0  0  0  0  0  0  0  0  0  0
    3.6276   -1.0523    2.2115 C   0  0  2  0  0  0  0  0  0  0  0  0
    4.9958   -1.0078    2.8919 C   0  0  0  0  0  0  0  0  0  0  0  0
    5.2899   -0.2342    3.8007 O   0  0  0  0  0  0  0  0  0  0  0  0
    5.8149   -1.9239    2.3579 N   0  0  0  0  0  0  0  0  0  0  0  0
    5.1697   -2.7272    1.3416 C   0  0  1  0  0  0  0  0  0  0  0  0
    4.6405   -4.0462    1.9815 C   0  0  0  0  0  0  0  0  0  0  0  0
    3.8311   -4.8826    0.9513 C   0  0  0  0  0  0  0  0  0  0  0  0
    4.5907   -6.1749    0.5629 C   0  0  0  0  0  0  0  0  0  0  0  0
    2.4864   -5.3285    1.5683 C   0  0  0  0  0  0  0  0  0  0  0  0
    3.6046   -3.9736   -0.2941 C   0  0  1  0  0  0  0  0  0  0  0  0
    2.9533   -2.6303    0.1612 C   0  0  0  0  0  0  0  0  0  0  0  0
    4.0073   -1.8103    0.9262 C   0  0  1  0  0  0  0  0  0  0  0  0
    4.9721   -3.6598   -1.0093 C   0  0  1  0  0  0  0  0  0  0  0  0
    4.8212   -2.8116   -2.3081 C   0  0  0  0  0  0  0  0  0  0  0  0
    3.7282   -3.2884   -3.2873 C   0  0  0  0  0  0  0  0  0  0  0  0
    3.5532   -2.3456   -4.3172 O   0  0  0  0  0  0  0  0  0  0  0  0
    5.9875   -3.0820    0.0604 C   0  0  1  0  0  0  0  0  0  0  0  0
    6.9322   -1.9638   -0.4420 C   0  0  0  0  0  0  0  0  0  0  0  0
    2.8248    0.8695    2.8850 H   0  0  0  0  0  0  0  0  0  0  0  0
    2.0709    0.2563    1.4222 H   0  0  0  0  0  0  0  0  0  0  0  0
    3.6803    0.9480    1.3546 H   0  0  0  0  0  0  0  0  0  0  0  0
    2.9552   -1.6451    2.8306 H   0  0  0  0  0  0  0  0  0  0  0  0
    6.7458   -2.1028    2.6973 H   0  0  0  0  0  0  0  0  0  0  0  0
    5.4817   -4.6221    2.3660 H   0  0  0  0  0  0  0  0  0  0  0  0
    4.0163   -3.8197    2.8529 H   0  0  0  0  0  0  0  0  0  0  0  0
    4.1238   -6.6529   -0.3007 H   0  0  0  0  0  0  0  0  0  0  0  0
    4.5929   -6.8983    1.3798 H   0  0  0  0  0  0  0  0  0  0  0  0
    5.6374   -5.9938    0.3094 H   0  0  0  0  0  0  0  0  0  0  0  0
    1.8448   -5.7847    0.8125 H   0  0  0  0  0  0  0  0  0  0  0  0
    1.9459   -4.4994    2.0258 H   0  0  0  0  0  0  0  0  0  0  0  0
    2.6531   -6.0648    2.3561 H   0  0  0  0  0  0  0  0  0  0  0  0
    2.9324   -4.4983   -0.9634 H   0  0  0  0  0  0  0  0  0  0  0  0
    2.6359   -2.0623   -0.7131 H   0  0  0  0  0  0  0  0  0  0  0  0
    2.0559   -2.7625    0.7631 H   0  0  0  0  0  0  0  0  0  0  0  0
    4.3804   -1.0510    0.2304 H   0  0  0  0  0  0  0  0  0  0  0  0
    5.3918   -4.5945   -1.3738 H   0  0  0  0  0  0  0  0  0  0  0  0
    4.6207   -1.7685   -2.0667 H   0  0  0  0  0  0  0  0  0  0  0  0
    5.7669   -2.8143   -2.8552 H   0  0  0  0  0  0  0  0  0  0  0  0
    3.9824   -4.2531   -3.7311 H   0  0  0  0  0  0  0  0  0  0  0  0
    2.7533   -3.3874   -2.8086 H   0  0  0  0  0  0  0  0  0  0  0  0
    2.6553   -2.4237   -4.6320 H   0  0  0  0  0  0  0  0  0  0  0  0
    6.6617   -3.8933    0.3437 H   0  0  0  0  0  0  0  0  0  0  0  0
    6.3829   -1.0708   -0.7400 H   0  0  0  0  0  0  0  0  0  0  0  0
    7.5166   -2.3130   -1.2971 H   0  0  0  0  0  0  0  0  0  0  0  0
    7.6445   -1.6609    0.3301 H   0  0  0  0  0  0  0  0  0  0  0  0
  1  2  1  0
  1 20  1  0
  1 21  1  0
  1 22  1  0
  2 13  1  0
  2  3  1  0
  2 23  1  1
  3  4  2  0
  3  5  1  0
  6  5  1  1
  5 24  1  0
  6 13  1  0
  6 18  1  0
  6  7  1  0
  7  8  1  0
  7 25  1  0
  7 26  1  0
  8  9  1  0
  8 10  1  0
  8 11  1  0
  9 27  1  0
  9 28  1  0
  9 29  1  0
 10 30  1  0
 10 31  1  0
 10 32  1  0
 11 12  1  0
 11 14  1  0
 11 33  1  6
 12 13  1  0
 12 34  1  0
 12 35  1  0
 13 36  1  6
 14 15  1  0
 14 18  1  0
 14 37  1  6
 15 16  1  0
 15 38  1  0
 15 39  1  0
 16 17  1  0
 16 40  1  0
 16 41  1  0
 17 42  1  0
 18 19  1  0
 18 43  1  1
 19 44  1  0
 19 45  1  0
 19 46  1  0
M  END
>  <i_m_ct_stereo_status>  (225) 
1

>  <s_m_source_file>  (225) 
/var/tmp/pbs.5076255.sched01/tmpy0mqr2dw/78t3ouse6d.sdf

>  <i_m_source_file_index>  (225) 
14

>  <i_lp_mmshare_version>  (225) 
48012

>  <i_f3d_flags>  (225) 
0

>  <s_epik_input>  (225) 
Tz1DKFtOSF0xKVtDQEBIXShbQ0gzXSlbQ0BASF0oW0NAQF0xMjMpW0NIMl1bQ0BIXShDKFtDSDJdMikoW0NIM10pW0NIM10pW0NASF0oW0NASF0zW0NIM10pW0NIMl1bQ0gyXVtPSF0=

>  <s_epik_cmdline>  (225) 
J2VwaWtfcHl0aG9uJywgJy1waHQnLCAnMi4wJywgJy1waCcsICc3LjAnLCAnLXRuJywgJzgnLCAnLW1hJywgJzIwMCcsICctaW1hZScsICc8aW5maWxlLm1hZT4nLCAnLW9tYWUnLCAnPG91dGZpbGUubWFlPic=

>  <r_lp_tautomer_probability>  (225) 
1

>  <r_epik_Ionization_Penalty>  (225) 
1.17517e-06

>  <r_epik_Ionization_Penalty_Charging>  (225) 
0

>  <r_epik_Ionization_Penalty_Neutral>  (225) 
1.17517e-06

>  <r_epik_State_Penalty>  (225) 
-0

>  <r_epik_Charging_Adjusted_Penalty>  (225) 
0

>  <i_epik_Tot_Q>  (225) 
0

>  <i_epik_Tot_abs_Q>  (225) 
0

>  <s_lp_Force_Field>  (225) 
OPLS3e

>  <r_lp_Energy>  (225) 
38.02

>  <b_lp_Chiralities_Consistent>  (225) 
1

>  <s_lp_Variant>  (225) 
68:0-1

>  <s_i_glide_gridfile>  (225) 
pfpi4k_grid

>  <i_i_glide_lignum>  (225) 
14

>  <i_i_glide_rotatable_bonds>  (225) 
3

>  <r_i_docking_score>  (225) 
-4.02765

>  <r_i_glide_ligand_efficiency>  (225) 
-0.211982

>  <r_i_glide_ligand_efficiency_sa>  (225) 
-0.565652

>  <r_i_glide_ligand_efficiency_ln>  (225) 
-1.0211

>  <r_i_glide_gscore>  (225) 
-4.02765

>  <r_i_glide_lipo>  (225) 
-0.548876

>  <r_i_glide_hbond>  (225) 
-0.447277

>  <r_i_glide_metal>  (225) 
-0

>  <r_i_glide_rewards>  (225) 
-1.74067

>  <r_i_glide_evdw>  (225) 
-19.4424

>  <r_i_glide_ecoul>  (225) 
-5.49338

>  <r_i_glide_erotb>  (225) 
0.505303

>  <r_i_glide_esite>  (225) 
0

>  <r_i_glide_emodel>  (225) 
-29.7136

>  <r_i_glide_energy>  (225) 
-24.9358

>  <r_i_glide_einternal>  (225) 
1.71754

>  <r_i_glide_intrahb_reward>  (225) 
-0

>  <i_i_glide_confnum>  (225) 
3

>  <i_i_glide_posenum>  (225) 
6

>  <r_i_glide_eff_state_penalty>  (225) 
0

>  <ligand_id>  (225) 
68

>  <original_smiles>  (225) 
CC1C(=O)NC23CC(C)(C)C(CC12)C(CCO)C3C

>  <smiles>  (225) 
[H]OC([H])([H])C([H])([H])C1([H])C([H])(C([H])([H])[H])C23N([H])C(=O)C([H])(C([H])([H])[H])C2([H])C([H])([H])C1([H])C(C([H])([H])[H])(C([H])([H])[H])C3([H])[H]

$$$$
68:0:1
     RDKit          3D

 46 48  0  0  1  0  0  0  0  0999 V2000
    2.6634   -0.1148    2.5820 C   0  0  0  0  0  0  0  0  0  0  0  0
    3.5676   -1.3585    2.6138 C   0  0  2  0  0  0  0  0  0  0  0  0
    5.0516   -1.0267    2.8236 C   0  0  0  0  0  0  0  0  0  0  0  0
    5.4642   -0.1708    3.5906 O   0  0  0  0  0  0  0  0  0  0  0  0
    5.8102   -1.8155    2.0561 N   0  0  0  0  0  0  0  0  0  0  0  0
    5.0488   -2.7735    1.2928 C   0  0  1  0  0  0  0  0  0  0  0  0
    4.9904   -4.1313    2.0606 C   0  0  0  0  0  0  0  0  0  0  0  0
    4.0666   -5.1532    1.3399 C   0  0  0  0  0  0  0  0  0  0  0  0
    4.8947   -6.3123    0.7323 C   0  0  0  0  0  0  0  0  0  0  0  0
    3.1035   -5.7929    2.3658 C   0  0  0  0  0  0  0  0  0  0  0  0
    3.3010   -4.3565    0.2269 C   0  0  1  0  0  0  0  0  0  0  0  0
    2.5889   -3.1357    0.8894 C   0  0  0  0  0  0  0  0  0  0  0  0
    3.6606   -2.1058    1.2780 C   0  0  1  0  0  0  0  0  0  0  0  0
    4.3064   -3.8376   -0.8803 C   0  0  1  0  0  0  0  0  0  0  0  0
    3.5862   -3.1250   -2.0586 C   0  0  0  0  0  0  0  0  0  0  0  0
    4.3183   -3.2257   -3.4214 C   0  0  0  0  0  0  0  0  0  0  0  0
    3.7792   -2.2847   -4.3234 O   0  0  0  0  0  0  0  0  0  0  0  0
    5.4755   -3.0305   -0.1813 C   0  0  1  0  0  0  0  0  0  0  0  0
    6.0160   -1.7715   -0.9038 C   0  0  0  0  0  0  0  0  0  0  0  0
    2.6792    0.4278    3.5281 H   0  0  0  0  0  0  0  0  0  0  0  0
    1.6292   -0.3933    2.3823 H   0  0  0  0  0  0  0  0  0  0  0  0
    2.9683    0.5824    1.8027 H   0  0  0  0  0  0  0  0  0  0  0  0
    3.2595   -2.0174    3.4276 H   0  0  0  0  0  0  0  0  0  0  0  0
    6.8248   -1.7921    2.0693 H   0  0  0  0  0  0  0  0  0  0  0  0
    6.0001   -4.5245    2.1564 H   0  0  0  0  0  0  0  0  0  0  0  0
    4.6514   -3.9704    3.0904 H   0  0  0  0  0  0  0  0  0  0  0  0
    4.2797   -6.9244    0.0709 H   0  0  0  0  0  0  0  0  0  0  0  0
    5.2949   -6.9674    1.5078 H   0  0  0  0  0  0  0  0  0  0  0  0
    5.7527   -5.9630    0.1568 H   0  0  0  0  0  0  0  0  0  0  0  0
    2.3473   -6.4029    1.8728 H   0  0  0  0  0  0  0  0  0  0  0  0
    2.5970   -5.0518    2.9815 H   0  0  0  0  0  0  0  0  0  0  0  0
    3.6506   -6.4357    3.0560 H   0  0  0  0  0  0  0  0  0  0  0  0
    2.5640   -5.0055   -0.2401 H   0  0  0  0  0  0  0  0  0  0  0  0
    1.9077   -2.6756    0.1785 H   0  0  0  0  0  0  0  0  0  0  0  0
    1.9712   -3.4119    1.7463 H   0  0  0  0  0  0  0  0  0  0  0  0
    3.6396   -1.3351    0.4999 H   0  0  0  0  0  0  0  0  0  0  0  0
    4.7384   -4.7207   -1.3494 H   0  0  0  0  0  0  0  0  0  0  0  0
    2.6105   -3.5819   -2.1963 H   0  0  0  0  0  0  0  0  0  0  0  0
    3.3452   -2.0975   -1.7920 H   0  0  0  0  0  0  0  0  0  0  0  0
    5.3926   -3.0123   -3.3678 H   0  0  0  0  0  0  0  0  0  0  0  0
    4.2177   -4.2346   -3.8335 H   0  0  0  0  0  0  0  0  0  0  0  0
    2.8362   -2.3815   -4.3651 H   0  0  0  0  0  0  0  0  0  0  0  0
    6.3313   -3.7047   -0.1312 H   0  0  0  0  0  0  0  0  0  0  0  0
    5.2419   -1.0259   -1.0861 H   0  0  0  0  0  0  0  0  0  0  0  0
    6.4729   -2.0281   -1.8622 H   0  0  0  0  0  0  0  0  0  0  0  0
    6.7853   -1.2886   -0.2980 H   0  0  0  0  0  0  0  0  0  0  0  0
  1  2  1  0
  1 20  1  0
  1 21  1  0
  1 22  1  0
  2 13  1  0
  2  3  1  0
  2 23  1  1
  3  4  2  0
  3  5  1  0
  6  5  1  1
  5 24  1  0
  6 13  1  0
  6 18  1  0
  6  7  1  0
  7  8  1  0
  7 25  1  0
  7 26  1  0
  8  9  1  0
  8 10  1  0
  8 11  1  0
  9 27  1  0
  9 28  1  0
  9 29  1  0
 10 30  1  0
 10 31  1  0
 10 32  1  0
 11 12  1  0
 11 14  1  0
 11 33  1  6
 12 13  1  0
 12 34  1  0
 12 35  1  0
 13 36  1  6
 14 15  1  0
 14 18  1  0
 14 37  1  6
 15 16  1  0
 15 38  1  0
 15 39  1  0
 16 17  1  0
 16 40  1  0
 16 41  1  0
 17 42  1  0
 18 19  1  0
 18 43  1  1
 19 44  1  0
 19 45  1  0
 19 46  1  0
M  END
>  <i_m_ct_stereo_status>  (226) 
1

>  <s_m_source_file>  (226) 
/var/tmp/pbs.5076255.sched01/tmpy0mqr2dw/78t3ouse6d.sdf

>  <i_m_source_file_index>  (226) 
14

>  <i_lp_mmshare_version>  (226) 
48012

>  <i_f3d_flags>  (226) 
0

>  <s_epik_input>  (226) 
Tz1DKFtOSF0xKVtDQEBIXShbQ0gzXSlbQ0BASF0oW0NAQF0xMjMpW0NIMl1bQ0BIXShDKFtDSDJdMikoW0NIM10pW0NIM10pW0NASF0oW0NASF0zW0NIM10pW0NIMl1bQ0gyXVtPSF0=

>  <s_epik_cmdline>  (226) 
J2VwaWtfcHl0aG9uJywgJy1waHQnLCAnMi4wJywgJy1waCcsICc3LjAnLCAnLXRuJywgJzgnLCAnLW1hJywgJzIwMCcsICctaW1hZScsICc8aW5maWxlLm1hZT4nLCAnLW9tYWUnLCAnPG91dGZpbGUubWFlPic=

>  <r_lp_tautomer_probability>  (226) 
1

>  <r_epik_Ionization_Penalty>  (226) 
1.17517e-06

>  <r_epik_Ionization_Penalty_Charging>  (226) 
0

>  <r_epik_Ionization_Penalty_Neutral>  (226) 
1.17517e-06

>  <r_epik_State_Penalty>  (226) 
-0

>  <r_epik_Charging_Adjusted_Penalty>  (226) 
0

>  <i_epik_Tot_Q>  (226) 
0

>  <i_epik_Tot_abs_Q>  (226) 
0

>  <s_lp_Force_Field>  (226) 
OPLS3e

>  <r_lp_Energy>  (226) 
38.02

>  <b_lp_Chiralities_Consistent>  (226) 
1

>  <s_lp_Variant>  (226) 
68:0-1

>  <s_i_glide_gridfile>  (226) 
pfpi4k_grid

>  <i_i_glide_lignum>  (226) 
14

>  <i_i_glide_rotatable_bonds>  (226) 
3

>  <r_i_docking_score>  (226) 
-3.72282

>  <r_i_glide_ligand_efficiency>  (226) 
-0.195938

>  <r_i_glide_ligand_efficiency_sa>  (226) 
-0.522842

>  <r_i_glide_ligand_efficiency_ln>  (226) 
-0.943816

>  <r_i_glide_gscore>  (226) 
-3.72282

>  <r_i_glide_lipo>  (226) 
-0.425904

>  <r_i_glide_hbond>  (226) 
-0.32

>  <r_i_glide_metal>  (226) 
-0

>  <r_i_glide_rewards>  (226) 
-1.74738

>  <r_i_glide_evdw>  (226) 
-19.2623

>  <r_i_glide_ecoul>  (226) 
-5.14487

>  <r_i_glide_erotb>  (226) 
0.505303

>  <r_i_glide_esite>  (226) 
0

>  <r_i_glide_emodel>  (226) 
-28.958

>  <r_i_glide_energy>  (226) 
-24.4072

>  <r_i_glide_einternal>  (226) 
1.57545

>  <r_i_glide_intrahb_reward>  (226) 
-0

>  <i_i_glide_confnum>  (226) 
3

>  <i_i_glide_posenum>  (226) 
1

>  <r_i_glide_eff_state_penalty>  (226) 
0

>  <ligand_id>  (226) 
68

>  <original_smiles>  (226) 
CC1C(=O)NC23CC(C)(C)C(CC12)C(CCO)C3C

>  <smiles>  (226) 
[H]OC([H])([H])C([H])([H])C1([H])C([H])(C([H])([H])[H])C23N([H])C(=O)C([H])(C([H])([H])[H])C2([H])C([H])([H])C1([H])C(C([H])([H])[H])(C([H])([H])[H])C3([H])[H]

$$$$
68:0:2
     RDKit          3D

 46 48  0  0  1  0  0  0  0  0999 V2000
    2.0019   -0.5870    3.0891 C   0  0  0  0  0  0  0  0  0  0  0  0
    3.1655   -1.5664    2.8724 C   0  0  2  0  0  0  0  0  0  0  0  0
    4.5499   -0.9726    3.1577 C   0  0  0  0  0  0  0  0  0  0  0  0
    4.7894   -0.2275    4.1038 O   0  0  0  0  0  0  0  0  0  0  0  0
    5.4433   -1.3823    2.2481 N   0  0  0  0  0  0  0  0  0  0  0  0
    4.8610   -2.3061    1.2911 C   0  0  1  0  0  0  0  0  0  0  0  0
    5.1343   -3.7737    1.7444 C   0  0  0  0  0  0  0  0  0  0  0  0
    4.4267   -4.7967    0.8082 C   0  0  0  0  0  0  0  0  0  0  0  0
    5.4610   -5.5860   -0.0226 C   0  0  0  0  0  0  0  0  0  0  0  0
    3.6623   -5.8457    1.6527 C   0  0  0  0  0  0  0  0  0  0  0  0
    3.4667   -3.9818   -0.1153 C   0  0  1  0  0  0  0  0  0  0  0  0
    2.5425   -3.1215    0.7917 C   0  0  0  0  0  0  0  0  0  0  0  0
    3.3630   -1.9796    1.4089 C   0  0  1  0  0  0  0  0  0  0  0  0
    4.2859   -3.0355   -1.0698 C   0  0  1  0  0  0  0  0  0  0  0  0
    3.3988   -2.2668   -2.0972 C   0  0  0  0  0  0  0  0  0  0  0  0
    2.7051   -3.1471   -3.1547 C   0  0  0  0  0  0  0  0  0  0  0  0
    3.6583   -3.8513   -3.9203 O   0  0  0  0  0  0  0  0  0  0  0  0
    5.2669   -2.1578   -0.2036 C   0  0  1  0  0  0  0  0  0  0  0  0
    5.4593   -0.7051   -0.6890 C   0  0  0  0  0  0  0  0  0  0  0  0
    1.9311   -0.2725    4.1292 H   0  0  0  0  0  0  0  0  0  0  0  0
    1.0500   -1.0426    2.8198 H   0  0  0  0  0  0  0  0  0  0  0  0
    2.1164    0.3105    2.4820 H   0  0  0  0  0  0  0  0  0  0  0  0
    3.0347   -2.4412    3.5089 H   0  0  0  0  0  0  0  0  0  0  0  0
    6.4242   -1.1483    2.2842 H   0  0  0  0  0  0  0  0  0  0  0  0
    6.2097   -3.9568    1.7665 H   0  0  0  0  0  0  0  0  0  0  0  0
    4.7994   -3.9170    2.7739 H   0  0  0  0  0  0  0  0  0  0  0  0
    4.9737   -6.1562   -0.8155 H   0  0  0  0  0  0  0  0  0  0  0  0
    6.0275   -6.2880    0.5894 H   0  0  0  0  0  0  0  0  0  0  0  0
    6.1976   -4.9292   -0.4847 H   0  0  0  0  0  0  0  0  0  0  0  0
    3.0381   -6.4851    1.0257 H   0  0  0  0  0  0  0  0  0  0  0  0
    3.0243   -5.3869    2.4089 H   0  0  0  0  0  0  0  0  0  0  0  0
    4.3585   -6.4888    2.1945 H   0  0  0  0  0  0  0  0  0  0  0  0
    2.8619   -4.6657   -0.7077 H   0  0  0  0  0  0  0  0  0  0  0  0
    1.7705   -2.6678    0.1816 H   0  0  0  0  0  0  0  0  0  0  0  0
    2.0196   -3.6974    1.5551 H   0  0  0  0  0  0  0  0  0  0  0  0
    3.1513   -1.0906    0.8098 H   0  0  0  0  0  0  0  0  0  0  0  0
    4.9267   -3.6504   -1.6949 H   0  0  0  0  0  0  0  0  0  0  0  0
    2.6426   -1.6704   -1.5918 H   0  0  0  0  0  0  0  0  0  0  0  0
    3.9851   -1.5503   -2.6683 H   0  0  0  0  0  0  0  0  0  0  0  0
    2.0046   -3.8522   -2.7064 H   0  0  0  0  0  0  0  0  0  0  0  0
    2.1203   -2.5169   -3.8312 H   0  0  0  0  0  0  0  0  0  0  0  0
    3.7642   -4.7141   -3.5174 H   0  0  0  0  0  0  0  0  0  0  0  0
    6.2578   -2.6060   -0.2937 H   0  0  0  0  0  0  0  0  0  0  0  0
    4.5329   -0.1336   -0.6513 H   0  0  0  0  0  0  0  0  0  0  0  0
    5.8123   -0.6929   -1.7193 H   0  0  0  0  0  0  0  0  0  0  0  0
    6.1998   -0.1829   -0.0838 H   0  0  0  0  0  0  0  0  0  0  0  0
  1  2  1  0
  1 20  1  0
  1 21  1  0
  1 22  1  0
  2 13  1  0
  2  3  1  0
  2 23  1  1
  3  4  2  0
  3  5  1  0
  6  5  1  1
  5 24  1  0
  6 13  1  0
  6 18  1  0
  6  7  1  0
  7  8  1  0
  7 25  1  0
  7 26  1  0
  8  9  1  0
  8 10  1  0
  8 11  1  0
  9 27  1  0
  9 28  1  0
  9 29  1  0
 10 30  1  0
 10 31  1  0
 10 32  1  0
 11 12  1  0
 11 14  1  0
 11 33  1  6
 12 13  1  0
 12 34  1  0
 12 35  1  0
 13 36  1  6
 14 15  1  0
 14 18  1  0
 14 37  1  6
 15 16  1  0
 15 38  1  0
 15 39  1  0
 16 17  1  0
 16 40  1  0
 16 41  1  0
 17 42  1  0
 18 19  1  0
 18 43  1  1
 19 44  1  0
 19 45  1  0
 19 46  1  0
M  END
>  <i_m_ct_stereo_status>  (227) 
1

>  <s_m_source_file>  (227) 
/var/tmp/pbs.5076255.sched01/tmpy0mqr2dw/78t3ouse6d.sdf

>  <i_m_source_file_index>  (227) 
14

>  <i_lp_mmshare_version>  (227) 
48012

>  <i_f3d_flags>  (227) 
0

>  <s_epik_input>  (227) 
Tz1DKFtOSF0xKVtDQEBIXShbQ0gzXSlbQ0BASF0oW0NAQF0xMjMpW0NIMl1bQ0BIXShDKFtDSDJdMikoW0NIM10pW0NIM10pW0NASF0oW0NASF0zW0NIM10pW0NIMl1bQ0gyXVtPSF0=

>  <s_epik_cmdline>  (227) 
J2VwaWtfcHl0aG9uJywgJy1waHQnLCAnMi4wJywgJy1waCcsICc3LjAnLCAnLXRuJywgJzgnLCAnLW1hJywgJzIwMCcsICctaW1hZScsICc8aW5maWxlLm1hZT4nLCAnLW9tYWUnLCAnPG91dGZpbGUubWFlPic=

>  <r_lp_tautomer_probability>  (227) 
1

>  <r_epik_Ionization_Penalty>  (227) 
1.17517e-06

>  <r_epik_Ionization_Penalty_Charging>  (227) 
0

>  <r_epik_Ionization_Penalty_Neutral>  (227) 
1.17517e-06

>  <r_epik_State_Penalty>  (227) 
-0

>  <r_epik_Charging_Adjusted_Penalty>  (227) 
0

>  <i_epik_Tot_Q>  (227) 
0

>  <i_epik_Tot_abs_Q>  (227) 
0

>  <s_lp_Force_Field>  (227) 
OPLS3e

>  <r_lp_Energy>  (227) 
38.02

>  <b_lp_Chiralities_Consistent>  (227) 
1

>  <s_lp_Variant>  (227) 
68:0-1

>  <s_i_glide_gridfile>  (227) 
pfpi4k_grid

>  <i_i_glide_lignum>  (227) 
14

>  <i_i_glide_rotatable_bonds>  (227) 
3

>  <r_i_docking_score>  (227) 
-3.64189

>  <r_i_glide_ligand_efficiency>  (227) 
-0.191678

>  <r_i_glide_ligand_efficiency_sa>  (227) 
-0.511474

>  <r_i_glide_ligand_efficiency_ln>  (227) 
-0.923296

>  <r_i_glide_gscore>  (227) 
-3.64189

>  <r_i_glide_lipo>  (227) 
-0.306527

>  <r_i_glide_hbond>  (227) 
-0.302618

>  <r_i_glide_metal>  (227) 
-0

>  <r_i_glide_rewards>  (227) 
-1.67957

>  <r_i_glide_evdw>  (227) 
-17.4745

>  <r_i_glide_ecoul>  (227) 
-6.56497

>  <r_i_glide_erotb>  (227) 
0.505303

>  <r_i_glide_esite>  (227) 
0

>  <r_i_glide_emodel>  (227) 
-27.8242

>  <r_i_glide_energy>  (227) 
-24.0395

>  <r_i_glide_einternal>  (227) 
2.24725

>  <r_i_glide_intrahb_reward>  (227) 
-0

>  <i_i_glide_confnum>  (227) 
2

>  <i_i_glide_posenum>  (227) 
8

>  <r_i_glide_eff_state_penalty>  (227) 
0

>  <ligand_id>  (227) 
68

>  <original_smiles>  (227) 
CC1C(=O)NC23CC(C)(C)C(CC12)C(CCO)C3C

>  <smiles>  (227) 
[H]OC([H])([H])C([H])([H])C1([H])C([H])(C([H])([H])[H])C23N([H])C(=O)C([H])(C([H])([H])[H])C2([H])C([H])([H])C1([H])C(C([H])([H])[H])(C([H])([H])[H])C3([H])[H]

$$$$
69:0:0
     RDKit          3D

 66 73  0  0  1  0  0  0  0  0999 V2000
    7.2234   -5.8699    1.2298 C   0  0  0  0  0  0  0  0  0  0  0  0
    6.5555   -6.6972    2.2761 N   0  0  2  0  0  0  0  0  0  0  0  0
    7.4494   -7.8107    2.7030 C   0  0  0  0  0  0  0  0  0  0  0  0
    6.8523   -8.6367    3.8585 C   0  0  0  0  0  0  0  0  0  0  0  0
    5.3706   -9.0107    3.7231 C   0  0  2  0  0  0  0  0  0  0  0  0
    4.9036   -9.9568    4.8063 C   0  0  0  0  0  0  0  0  0  0  0  0
    5.0723  -10.4882    3.3945 C   0  0  1  0  0  0  0  0  0  0  0  0
    3.8245  -10.7955    2.6225 N   0  0  1  0  0  0  0  0  0  0  0  0
    2.8522  -11.7132    3.2885 C   0  0  0  0  0  0  0  0  0  0  0  0
    1.7995  -10.9810    4.1184 C   0  0  0  0  0  0  0  0  0  0  0  0
    0.5638  -11.6633    4.6236 C   0  0  0  0  0  0  0  0  0  0  0  0
    0.4459  -10.6359    3.5235 C   0  0  0  0  0  0  0  0  0  0  0  0
    3.2213   -9.6732    1.8670 C   0  0  0  0  0  0  0  0  0  0  0  0
    3.0960   -8.4260    2.7538 C   0  0  0  0  0  0  0  0  0  0  0  0
    4.4605   -7.8376    3.2051 C   0  0  1  0  0  0  0  0  0  0  0  0
    4.1101   -6.8407    4.3927 C   0  0  1  0  0  0  0  0  0  0  0  0
    5.2354   -5.9406    4.9540 C   0  0  0  0  0  0  0  0  0  0  0  0
    5.0255   -4.5419    4.3641 C   0  0  0  0  0  0  0  0  0  0  0  0
    3.6907   -4.5839    3.6409 C   0  0  1  0  0  0  0  0  0  0  0  0
    2.9811   -5.8072    4.1601 C   0  0  0  0  0  0  0  0  0  0  0  0
    2.9890   -3.2548    3.7096 O   0  0  0  0  0  0  0  0  0  0  0  0
    3.0934   -3.1609    2.3480 C   0  0  0  0  0  0  0  0  0  0  0  0
    2.7827   -2.3809    1.2119 C   0  0  0  0  0  0  0  0  0  0  0  0
    2.1998   -1.1606    1.2864 O   0  0  0  0  0  0  0  0  0  0  0  0
    3.0945   -2.9483   -0.0497 C   0  0  0  0  0  0  0  0  0  0  0  0
    3.6689   -4.2384   -0.1920 C   0  0  0  0  0  0  0  0  0  0  0  0
    3.9879   -5.0471    0.9250 C   0  0  0  0  0  0  0  0  0  0  0  0
    3.7119   -4.4284    2.1431 C   0  0  0  0  0  0  0  0  0  0  0  0
    4.4023   -6.4985    0.8345 C   0  0  0  0  0  0  0  0  0  0  0  0
    5.1966   -7.2368    1.9463 C   0  0  1  0  0  0  0  0  0  0  0  0
    7.3718   -6.4505    0.3176 H   0  0  0  0  0  0  0  0  0  0  0  0
    8.2021   -5.5484    1.5884 H   0  0  0  0  0  0  0  0  0  0  0  0
    6.6503   -4.9726    1.0039 H   0  0  0  0  0  0  0  0  0  0  0  0
    7.6495   -8.4591    1.8436 H   0  0  0  0  0  0  0  0  0  0  0  0
    8.4136   -7.4044    3.0162 H   0  0  0  0  0  0  0  0  0  0  0  0
    7.4409   -9.5551    3.9153 H   0  0  0  0  0  0  0  0  0  0  0  0
    7.0207   -8.1595    4.8242 H   0  0  0  0  0  0  0  0  0  0  0  0
    5.6648  -10.2675    5.5207 H   0  0  0  0  0  0  0  0  0  0  0  0
    3.9629   -9.6994    5.2496 H   0  0  0  0  0  0  0  0  0  0  0  0
    5.8661  -11.2167    3.2219 H   0  0  0  0  0  0  0  0  0  0  0  0
    2.3614  -12.2906    2.5063 H   0  0  0  0  0  0  0  0  0  0  0  0
    3.3860  -12.4376    3.9019 H   0  0  0  0  0  0  0  0  0  0  0  0
    2.1845  -10.2981    4.8650 H   0  0  0  0  0  0  0  0  0  0  0  0
    0.4221  -12.7200    4.3949 H   0  0  0  0  0  0  0  0  0  0  0  0
    0.2554  -11.3577    5.6211 H   0  0  0  0  0  0  0  0  0  0  0  0
    0.0727   -9.6438    3.7749 H   0  0  0  0  0  0  0  0  0  0  0  0
    0.2226  -10.9718    2.5056 H   0  0  0  0  0  0  0  0  0  0  0  0
    3.8043   -9.4906    0.9666 H   0  0  0  0  0  0  0  0  0  0  0  0
    2.2445   -9.9772    1.4964 H   0  0  0  0  0  0  0  0  0  0  0  0
    2.4914   -7.7012    2.2071 H   0  0  0  0  0  0  0  0  0  0  0  0
    2.5129   -8.6496    3.6485 H   0  0  0  0  0  0  0  0  0  0  0  0
    3.7708   -7.4667    5.2194 H   0  0  0  0  0  0  0  0  0  0  0  0
    5.1284   -5.8870    6.0391 H   0  0  0  0  0  0  0  0  0  0  0  0
    6.2508   -6.2667    4.7931 H   0  0  0  0  0  0  0  0  0  0  0  0
    4.9851   -3.8274    5.1884 H   0  0  0  0  0  0  0  0  0  0  0  0
    5.8341   -4.2213    3.7103 H   0  0  0  0  0  0  0  0  0  0  0  0
    2.1106   -6.1082    3.5797 H   0  0  0  0  0  0  0  0  0  0  0  0
    2.5799   -5.5561    5.1420 H   0  0  0  0  0  0  0  0  0  0  0  0
    1.6718   -0.9638    0.5131 H   0  0  0  0  0  0  0  0  0  0  0  0
    2.8628   -2.3863   -0.9411 H   0  0  0  0  0  0  0  0  0  0  0  0
    3.8214   -4.6335   -1.1841 H   0  0  0  0  0  0  0  0  0  0  0  0
    3.5315   -7.0737    0.5350 H   0  0  0  0  0  0  0  0  0  0  0  0
    5.0133   -6.5451   -0.0648 H   0  0  0  0  0  0  0  0  0  0  0  0
    5.4585   -8.1262    1.3707 H   0  0  0  0  0  0  0  0  0  0  0  0
    6.4243   -6.0878    3.0818 H   0  0  0  0  0  0  0  0  0  0  0  0
    4.1655  -11.3860    1.8549 H   0  0  0  0  0  0  0  0  0  0  0  0
  1  2  1  0
  1 31  1  0
  1 32  1  0
  1 33  1  0
  2 30  1  0
  2  3  1  0
  2 65  1  1
  3  4  1  0
  3 34  1  0
  3 35  1  0
  5  4  1  1
  4 36  1  0
  4 37  1  0
  5  7  1  0
  5 15  1  0
  5  6  1  0
  6  7  1  0
  6 38  1  0
  6 39  1  0
  7  8  1  0
  7 40  1  1
  8  9  1  0
  8 13  1  0
  8 66  1  6
  9 10  1  0
  9 41  1  0
  9 42  1  0
 10 12  1  0
 10 11  1  0
 10 43  1  0
 11 12  1  0
 11 44  1  0
 11 45  1  0
 12 46  1  0
 12 47  1  0
 13 14  1  0
 13 48  1  0
 13 49  1  0
 15 14  1  6
 14 50  1  0
 14 51  1  0
 15 30  1  0
 15 16  1  0
 16 20  1  0
 16 17  1  0
 16 52  1  1
 17 18  1  0
 17 53  1  0
 17 54  1  0
 18 19  1  0
 18 55  1  0
 18 56  1  0
 19 28  1  0
 19 20  1  0
 19 21  1  1
 20 57  1  0
 20 58  1  0
 21 22  1  0
 22 28  2  0
 22 23  1  0
 23 24  1  0
 23 25  2  0
 24 59  1  0
 25 26  1  0
 25 60  1  0
 26 27  2  0
 26 61  1  0
 27 28  1  0
 27 29  1  0
 29 30  1  0
 29 62  1  0
 29 63  1  0
 30 64  1  6
M  CHG  2   2   1   8   1
M  END
>  <i_m_ct_stereo_status>  (228) 
1

>  <s_m_source_file>  (228) 
/var/tmp/pbs.5076255.sched01/tmpy0mqr2dw/78t3ouse6d.sdf

>  <i_m_source_file_index>  (228) 
15

>  <i_lp_mmshare_version>  (228) 
48012

>  <i_f3d_flags>  (228) 
0

>  <s_epik_input>  (228) 
W0NIMl0xW0NIMl1OKFtDSDNdKVtDQEBIXTJbQ0gyXWMzW2NIXVtjSF1jKFtPSF0pYyhPNCljM1tDQEBdNChbQ0gyXTUpW0NIMl1bQ0gyXVtDQEBIXTVbQ0BAXTIoW0NAQF0xNjcpW0NIMl1bQ0gyXU4oW0NAQEhdN1tDSDJdNilbQ0gyXVtDSF04W0NIMl1bQ0gyXTg=

>  <s_epik_cmdline>  (228) 
J2VwaWtfcHl0aG9uJywgJy1waHQnLCAnMi4wJywgJy1waCcsICc3LjAnLCAnLXRuJywgJzgnLCAnLW1hJywgJzIwMCcsICctaW1hZScsICc8aW5maWxlLm1hZT4nLCAnLW9tYWUnLCAnPG91dGZpbGUubWFlPic=

>  <r_lp_tautomer_probability>  (228) 
1

>  <r_epik_Ionization_Penalty>  (228) 
0.430499

>  <r_epik_Ionization_Penalty_Charging>  (228) 
0.429078

>  <r_epik_Ionization_Penalty_Neutral>  (228) 
0.0014204

>  <r_epik_State_Penalty>  (228) 
0.392396

>  <r_epik_Charging_Adjusted_Penalty>  (228) 
0.821474

>  <i_epik_Tot_Q>  (228) 
2

>  <i_epik_Tot_abs_Q>  (228) 
2

>  <s_lp_Force_Field>  (228) 
OPLS3e

>  <r_lp_Energy>  (228) 
97.4924

>  <b_lp_Chiralities_Consistent>  (228) 
1

>  <s_lp_Variant>  (228) 
69:0-1

>  <s_i_glide_gridfile>  (228) 
pfpi4k_grid

>  <i_i_glide_lignum>  (228) 
15

>  <i_i_glide_rotatable_bonds>  (228) 
3

>  <r_i_docking_score>  (228) 
-3.69839

>  <r_i_glide_ligand_efficiency>  (228) 
-0.12328

>  <r_i_glide_ligand_efficiency_sa>  (228) 
-0.383058

>  <r_i_glide_ligand_efficiency_ln>  (228) 
-0.840314

>  <r_i_glide_gscore>  (228) 
-3.69839

>  <r_i_glide_lipo>  (228) 
-0.279161

>  <r_i_glide_hbond>  (228) 
-0.2

>  <r_i_glide_metal>  (228) 
-0

>  <r_i_glide_rewards>  (228) 
-0.623344

>  <r_i_glide_evdw>  (228) 
-18.7102

>  <r_i_glide_ecoul>  (228) 
-12.0105

>  <r_i_glide_erotb>  (228) 
0.235813

>  <r_i_glide_esite>  (228) 
-0.0946058

>  <r_i_glide_emodel>  (228) 
-37.3728

>  <r_i_glide_energy>  (228) 
-30.7208

>  <r_i_glide_einternal>  (228) 
5.43023

>  <r_i_glide_intrahb_reward>  (228) 
-0

>  <i_i_glide_confnum>  (228) 
6

>  <i_i_glide_posenum>  (228) 
29

>  <r_i_glide_eff_state_penalty>  (228) 
0

>  <ligand_id>  (228) 
69

>  <original_smiles>  (228) 
CN1CCC23CC2N(CC2CC2)CCC32C3CCC4(C3)Oc3c(O)ccc(c34)CC12

>  <smiles>  (228) 
[H]Oc1c([H])c([H])c2c3c1OC31C([H])([H])C([H])([H])C([H])(C1([H])[H])C13C([H])([H])C([H])([H])[N+]([H])(C([H])([H])C4([H])C([H])([H])C4([H])[H])C4([H])C([H])([H])C14C([H])([H])C([H])([H])[N+]([H])(C([H])([H])[H])C3([H])C2([H])[H]

$$$$
69:0:1
     RDKit          3D

 66 73  0  0  1  0  0  0  0  0999 V2000
    7.1753   -6.2955    1.5049 C   0  0  0  0  0  0  0  0  0  0  0  0
    6.3318   -7.0482    2.4881 N   0  0  2  0  0  0  0  0  0  0  0  0
    6.6221   -8.5150    2.4226 C   0  0  0  0  0  0  0  0  0  0  0  0
    5.8593   -9.3204    3.4797 C   0  0  0  0  0  0  0  0  0  0  0  0
    4.3907   -8.9728    3.6751 C   0  0  2  0  0  0  0  0  0  0  0  0
    3.6153   -9.9016    4.6125 C   0  0  0  0  0  0  0  0  0  0  0  0
    3.3861  -10.0064    3.1287 C   0  0  1  0  0  0  0  0  0  0  0  0
    2.0587   -9.4816    2.5946 N   0  0  1  0  0  0  0  0  0  0  0  0
    0.8327  -10.0000    3.3017 C   0  0  0  0  0  0  0  0  0  0  0  0
   -0.4333   -9.8771    2.4514 C   0  0  0  0  0  0  0  0  0  0  0  0
   -1.0419   -8.5293    2.0882 C   0  0  0  0  0  0  0  0  0  0  0  0
   -1.7202   -9.4281    3.0830 C   0  0  0  0  0  0  0  0  0  0  0  0
    2.0272   -8.0110    2.3091 C   0  0  0  0  0  0  0  0  0  0  0  0
    2.5745   -7.2336    3.5013 C   0  0  0  0  0  0  0  0  0  0  0  0
    4.1053   -7.4223    3.7013 C   0  0  1  0  0  0  0  0  0  0  0  0
    4.4377   -6.7926    5.1227 C   0  0  1  0  0  0  0  0  0  0  0  0
    5.9181   -6.6847    5.5313 C   0  0  0  0  0  0  0  0  0  0  0  0
    6.3339   -5.2221    5.3407 C   0  0  0  0  0  0  0  0  0  0  0  0
    5.0631   -4.4559    4.9948 C   0  0  1  0  0  0  0  0  0  0  0  0
    3.9303   -5.3580    5.4254 C   0  0  0  0  0  0  0  0  0  0  0  0
    5.1004   -3.0469    5.5202 O   0  0  0  0  0  0  0  0  0  0  0  0
    5.0145   -2.5871    4.2336 C   0  0  0  0  0  0  0  0  0  0  0  0
    4.9908   -1.4354    3.4216 C   0  0  0  0  0  0  0  0  0  0  0  0
    5.1042   -0.1788    3.9294 O   0  0  0  0  0  0  0  0  0  0  0  0
    4.8343   -1.6573    2.0185 C   0  0  0  0  0  0  0  0  0  0  0  0
    4.6838   -2.9529    1.4586 C   0  0  0  0  0  0  0  0  0  0  0  0
    4.7306   -4.1235    2.2602 C   0  0  0  0  0  0  0  0  0  0  0  0
    4.9320   -3.8618    3.6191 C   0  0  0  0  0  0  0  0  0  0  0  0
    4.3731   -5.4973    1.7469 C   0  0  0  0  0  0  0  0  0  0  0  0
    4.8457   -6.8167    2.4353 C   0  0  1  0  0  0  0  0  0  0  0  0
    6.8949   -6.5611    0.4969 H   0  0  0  0  0  0  0  0  0  0  0  0
    8.2174   -6.5517    1.6471 H   0  0  0  0  0  0  0  0  0  0  0  0
    7.0867   -5.2262    1.6379 H   0  0  0  0  0  0  0  0  0  0  0  0
    6.3833   -8.8570    1.4163 H   0  0  0  0  0  0  0  0  0  0  0  0
    7.6961   -8.6597    2.5370 H   0  0  0  0  0  0  0  0  0  0  0  0
    5.9364  -10.3571    3.1858 H   0  0  0  0  0  0  0  0  0  0  0  0
    6.3703   -9.2984    4.4268 H   0  0  0  0  0  0  0  0  0  0  0  0
    4.2234  -10.6635    5.0675 H   0  0  0  0  0  0  0  0  0  0  0  0
    2.8708   -9.4583    5.2737 H   0  0  0  0  0  0  0  0  0  0  0  0
    3.7097  -10.9237    2.6060 H   0  0  0  0  0  0  0  0  0  0  0  0
    0.9801  -11.0444    3.5991 H   0  0  0  0  0  0  0  0  0  0  0  0
    0.6922   -9.4369    4.2278 H   0  0  0  0  0  0  0  0  0  0  0  0
   -0.5529  -10.6878    1.7288 H   0  0  0  0  0  0  0  0  0  0  0  0
   -0.7325   -7.6065    2.5686 H   0  0  0  0  0  0  0  0  0  0  0  0
   -1.4070   -8.4554    1.0724 H   0  0  0  0  0  0  0  0  0  0  0  0
   -2.6900   -9.7979    2.7506 H   0  0  0  0  0  0  0  0  0  0  0  0
   -1.6802   -9.0644    4.1127 H   0  0  0  0  0  0  0  0  0  0  0  0
    2.5742   -7.8275    1.3648 H   0  0  0  0  0  0  0  0  0  0  0  0
    1.0807   -7.6429    2.0738 H   0  0  0  0  0  0  0  0  0  0  0  0
    2.2797   -6.2108    3.3631 H   0  0  0  0  0  0  0  0  0  0  0  0
    2.0257   -7.5246    4.3970 H   0  0  0  0  0  0  0  0  0  0  0  0
    3.9402   -7.4423    5.8397 H   0  0  0  0  0  0  0  0  0  0  0  0
    5.9978   -6.9593    6.5822 H   0  0  0  0  0  0  0  0  0  0  0  0
    6.6032   -7.3441    5.0260 H   0  0  0  0  0  0  0  0  0  0  0  0
    6.7630   -4.8675    6.2796 H   0  0  0  0  0  0  0  0  0  0  0  0
    7.1039   -5.1113    4.5879 H   0  0  0  0  0  0  0  0  0  0  0  0
    2.9539   -5.0607    5.0421 H   0  0  0  0  0  0  0  0  0  0  0  0
    3.8314   -5.2845    6.5137 H   0  0  0  0  0  0  0  0  0  0  0  0
    4.8939    0.4836    3.2834 H   0  0  0  0  0  0  0  0  0  0  0  0
    4.8054   -0.8099    1.3437 H   0  0  0  0  0  0  0  0  0  0  0  0
    4.4944   -3.0510    0.3920 H   0  0  0  0  0  0  0  0  0  0  0  0
    3.3037   -5.5105    1.5551 H   0  0  0  0  0  0  0  0  0  0  0  0
    4.7806   -5.4951    0.7274 H   0  0  0  0  0  0  0  0  0  0  0  0
    4.5850   -7.4914    1.6178 H   0  0  0  0  0  0  0  0  0  0  0  0
    6.6220   -6.7177    3.4107 H   0  0  0  0  0  0  0  0  0  0  0  0
    1.9769   -9.9244    1.6760 H   0  0  0  0  0  0  0  0  0  0  0  0
  1  2  1  0
  1 31  1  0
  1 32  1  0
  1 33  1  0
  2 30  1  0
  2  3  1  0
  2 65  1  1
  3  4  1  0
  3 34  1  0
  3 35  1  0
  5  4  1  6
  4 36  1  0
  4 37  1  0
  5  7  1  0
  5 15  1  0
  5  6  1  0
  6  7  1  0
  6 38  1  0
  6 39  1  0
  7  8  1  0
  7 40  1  6
  8  9  1  0
  8 13  1  0
  8 66  1  6
  9 10  1  0
  9 41  1  0
  9 42  1  0
 10 12  1  0
 10 11  1  0
 10 43  1  0
 11 12  1  0
 11 44  1  0
 11 45  1  0
 12 46  1  0
 12 47  1  0
 13 14  1  0
 13 48  1  0
 13 49  1  0
 15 14  1  6
 14 50  1  0
 14 51  1  0
 15 30  1  0
 15 16  1  0
 16 20  1  0
 16 17  1  0
 16 52  1  1
 17 18  1  0
 17 53  1  0
 17 54  1  0
 18 19  1  0
 18 55  1  0
 18 56  1  0
 19 28  1  0
 19 20  1  0
 19 21  1  1
 20 57  1  0
 20 58  1  0
 21 22  1  0
 22 28  2  0
 22 23  1  0
 23 24  1  0
 23 25  2  0
 24 59  1  0
 25 26  1  0
 25 60  1  0
 26 27  2  0
 26 61  1  0
 27 28  1  0
 27 29  1  0
 29 30  1  0
 29 62  1  0
 29 63  1  0
 30 64  1  6
M  CHG  2   2   1   8   1
M  END
>  <i_m_ct_stereo_status>  (229) 
1

>  <s_m_source_file>  (229) 
/var/tmp/pbs.5076255.sched01/tmpy0mqr2dw/78t3ouse6d.sdf

>  <i_m_source_file_index>  (229) 
15

>  <i_lp_mmshare_version>  (229) 
48012

>  <i_f3d_flags>  (229) 
0

>  <s_epik_input>  (229) 
W0NIMl0xW0NIMl1OKFtDSDNdKVtDQEBIXTJbQ0gyXWMzW2NIXVtjSF1jKFtPSF0pYyhPNCljM1tDQEBdNChbQ0gyXTUpW0NIMl1bQ0gyXVtDQEBIXTVbQ0BAXTIoW0NAQF0xNjcpW0NIMl1bQ0gyXU4oW0NAQEhdN1tDSDJdNilbQ0gyXVtDSF04W0NIMl1bQ0gyXTg=

>  <s_epik_cmdline>  (229) 
J2VwaWtfcHl0aG9uJywgJy1waHQnLCAnMi4wJywgJy1waCcsICc3LjAnLCAnLXRuJywgJzgnLCAnLW1hJywgJzIwMCcsICctaW1hZScsICc8aW5maWxlLm1hZT4nLCAnLW9tYWUnLCAnPG91dGZpbGUubWFlPic=

>  <r_lp_tautomer_probability>  (229) 
1

>  <r_epik_Ionization_Penalty>  (229) 
0.430499

>  <r_epik_Ionization_Penalty_Charging>  (229) 
0.429078

>  <r_epik_Ionization_Penalty_Neutral>  (229) 
0.0014204

>  <r_epik_State_Penalty>  (229) 
0.392396

>  <r_epik_Charging_Adjusted_Penalty>  (229) 
0.821474

>  <i_epik_Tot_Q>  (229) 
2

>  <i_epik_Tot_abs_Q>  (229) 
2

>  <s_lp_Force_Field>  (229) 
OPLS3e

>  <r_lp_Energy>  (229) 
97.4924

>  <b_lp_Chiralities_Consistent>  (229) 
1

>  <s_lp_Variant>  (229) 
69:0-1

>  <s_i_glide_gridfile>  (229) 
pfpi4k_grid

>  <i_i_glide_lignum>  (229) 
15

>  <i_i_glide_rotatable_bonds>  (229) 
3

>  <r_i_docking_score>  (229) 
-2.43835

>  <r_i_glide_ligand_efficiency>  (229) 
-0.0812784

>  <r_i_glide_ligand_efficiency_sa>  (229) 
-0.252551

>  <r_i_glide_ligand_efficiency_ln>  (229) 
-0.55402

>  <r_i_glide_gscore>  (229) 
-2.43835

>  <r_i_glide_lipo>  (229) 
-0.51269

>  <r_i_glide_hbond>  (229) 
0

>  <r_i_glide_metal>  (229) 
-0

>  <r_i_glide_rewards>  (229) 
-0.623344

>  <r_i_glide_evdw>  (229) 
-18.3266

>  <r_i_glide_ecoul>  (229) 
-4.14534

>  <r_i_glide_erotb>  (229) 
0.235813

>  <r_i_glide_esite>  (229) 
0

>  <r_i_glide_emodel>  (229) 
-25.3435

>  <r_i_glide_energy>  (229) 
-22.4719

>  <r_i_glide_einternal>  (229) 
3.27487

>  <r_i_glide_intrahb_reward>  (229) 
-0

>  <i_i_glide_confnum>  (229) 
6

>  <i_i_glide_posenum>  (229) 
40

>  <r_i_glide_eff_state_penalty>  (229) 
0

>  <ligand_id>  (229) 
69

>  <original_smiles>  (229) 
CN1CCC23CC2N(CC2CC2)CCC32C3CCC4(C3)Oc3c(O)ccc(c34)CC12

>  <smiles>  (229) 
[H]Oc1c([H])c([H])c2c3c1OC31C([H])([H])C([H])([H])C([H])(C1([H])[H])C13C([H])([H])C([H])([H])[N+]([H])(C([H])([H])C4([H])C([H])([H])C4([H])[H])C4([H])C([H])([H])C14C([H])([H])C([H])([H])[N+]([H])(C([H])([H])[H])C3([H])C2([H])[H]

$$$$
69:0:2
     RDKit          3D

 66 73  0  0  1  0  0  0  0  0999 V2000
    4.2987   -4.1512    7.2366 C   0  0  0  0  0  0  0  0  0  0  0  0
    3.2705   -5.1887    7.4866 N   0  0  2  0  0  0  0  0  0  0  0  0
    3.8352   -6.3150    8.2727 C   0  0  0  0  0  0  0  0  0  0  0  0
    2.7789   -7.3733    8.6517 C   0  0  0  0  0  0  0  0  0  0  0  0
    1.8276   -7.8026    7.5304 C   0  0  2  0  0  0  0  0  0  0  0  0
    0.9126   -8.9741    7.8493 C   0  0  0  0  0  0  0  0  0  0  0  0
    2.0913   -9.2021    6.9236 C   0  0  1  0  0  0  0  0  0  0  0  0
    1.7323   -9.4234    5.4971 N   0  0  1  0  0  0  0  0  0  0  0  0
    0.7168  -10.4566    5.2066 C   0  0  0  0  0  0  0  0  0  0  0  0
    1.1756  -11.3705    4.0782 C   0  0  0  0  0  0  0  0  0  0  0  0
    1.9241  -10.9253    2.8208 C   0  0  0  0  0  0  0  0  0  0  0  0
    0.4653  -11.3003    2.7404 C   0  0  0  0  0  0  0  0  0  0  0  0
    1.5408   -8.1946    4.7033 C   0  0  0  0  0  0  0  0  0  0  0  0
    0.6653   -7.1913    5.4185 C   0  0  0  0  0  0  0  0  0  0  0  0
    1.3032   -6.6033    6.6926 C   0  0  1  0  0  0  0  0  0  0  0  0
    0.1075   -5.8719    7.4239 C   0  0  1  0  0  0  0  0  0  0  0  0
    0.4413   -5.0180    8.6661 C   0  0  0  0  0  0  0  0  0  0  0  0
    0.4393   -3.5503    8.2203 C   0  0  0  0  0  0  0  0  0  0  0  0
   -0.0856   -3.5400    6.7940 C   0  0  1  0  0  0  0  0  0  0  0  0
   -0.7305   -4.8824    6.5815 C   0  0  0  0  0  0  0  0  0  0  0  0
   -0.9011   -2.3027    6.5156 O   0  0  0  0  0  0  0  0  0  0  0  0
    0.0427   -1.9438    5.5881 C   0  0  0  0  0  0  0  0  0  0  0  0
    0.3906   -0.9692    4.6259 C   0  0  0  0  0  0  0  0  0  0  0  0
   -0.3136    0.1629    4.4328 O   0  0  0  0  0  0  0  0  0  0  0  0
    1.5592   -1.2673    3.8501 C   0  0  0  0  0  0  0  0  0  0  0  0
    2.3035   -2.4647    3.9938 C   0  0  0  0  0  0  0  0  0  0  0  0
    1.9716   -3.4629    4.9491 C   0  0  0  0  0  0  0  0  0  0  0  0
    0.8683   -3.0951    5.7222 C   0  0  0  0  0  0  0  0  0  0  0  0
    2.5492   -4.8598    5.0215 C   0  0  0  0  0  0  0  0  0  0  0  0
    2.5580   -5.7339    6.3008 C   0  0  1  0  0  0  0  0  0  0  0  0
    5.1039   -4.5184    6.5966 H   0  0  0  0  0  0  0  0  0  0  0  0
    4.7469   -3.8369    8.1820 H   0  0  0  0  0  0  0  0  0  0  0  0
    3.8731   -3.2499    6.7879 H   0  0  0  0  0  0  0  0  0  0  0  0
    4.6533   -6.7810    7.7172 H   0  0  0  0  0  0  0  0  0  0  0  0
    4.2770   -5.9206    9.1892 H   0  0  0  0  0  0  0  0  0  0  0  0
    3.3437   -8.2477    8.9762 H   0  0  0  0  0  0  0  0  0  0  0  0
    2.1999   -7.0778    9.5249 H   0  0  0  0  0  0  0  0  0  0  0  0
    1.0118   -9.3641    8.8558 H   0  0  0  0  0  0  0  0  0  0  0  0
   -0.0925   -8.9656    7.4433 H   0  0  0  0  0  0  0  0  0  0  0  0
    2.8940   -9.8440    7.2793 H   0  0  0  0  0  0  0  0  0  0  0  0
    0.5104  -11.0763    6.0774 H   0  0  0  0  0  0  0  0  0  0  0  0
   -0.2338   -9.9874    4.9623 H   0  0  0  0  0  0  0  0  0  0  0  0
    1.4235  -12.3690    4.4414 H   0  0  0  0  0  0  0  0  0  0  0  0
    2.1697   -9.8811    2.6472 H   0  0  0  0  0  0  0  0  0  0  0  0
    2.6408  -11.6491    2.4227 H   0  0  0  0  0  0  0  0  0  0  0  0
    0.2283  -12.2273    2.2220 H   0  0  0  0  0  0  0  0  0  0  0  0
   -0.2868  -10.5246    2.6335 H   0  0  0  0  0  0  0  0  0  0  0  0
    2.5123   -7.7856    4.4129 H   0  0  0  0  0  0  0  0  0  0  0  0
    0.9870   -8.3804    3.7894 H   0  0  0  0  0  0  0  0  0  0  0  0
    0.4287   -6.4274    4.6892 H   0  0  0  0  0  0  0  0  0  0  0  0
   -0.2836   -7.6726    5.6504 H   0  0  0  0  0  0  0  0  0  0  0  0
   -0.5830   -6.6547    7.7454 H   0  0  0  0  0  0  0  0  0  0  0  0
   -0.3580   -5.1667    9.3951 H   0  0  0  0  0  0  0  0  0  0  0  0
    1.3491   -5.2529    9.1986 H   0  0  0  0  0  0  0  0  0  0  0  0
   -0.2476   -3.0191    8.8796 H   0  0  0  0  0  0  0  0  0  0  0  0
    1.4082   -3.0602    8.3168 H   0  0  0  0  0  0  0  0  0  0  0  0
   -0.9578   -5.1356    5.5485 H   0  0  0  0  0  0  0  0  0  0  0  0
   -1.7070   -4.8472    7.0616 H   0  0  0  0  0  0  0  0  0  0  0  0
    0.0638    0.7216    3.7628 H   0  0  0  0  0  0  0  0  0  0  0  0
    1.8744   -0.5646    3.0975 H   0  0  0  0  0  0  0  0  0  0  0  0
    3.1262   -2.6541    3.3133 H   0  0  0  0  0  0  0  0  0  0  0  0
    2.1927   -5.4317    4.1692 H   0  0  0  0  0  0  0  0  0  0  0  0
    3.5986   -4.7155    4.7622 H   0  0  0  0  0  0  0  0  0  0  0  0
    3.2683   -6.4878    5.9518 H   0  0  0  0  0  0  0  0  0  0  0  0
    2.5600   -4.7550    8.0589 H   0  0  0  0  0  0  0  0  0  0  0  0
    2.5682   -9.8544    5.1282 H   0  0  0  0  0  0  0  0  0  0  0  0
  1  2  1  0
  1 31  1  0
  1 32  1  0
  1 33  1  0
  2 30  1  0
  2  3  1  0
  2 65  1  1
  3  4  1  0
  3 34  1  0
  3 35  1  0
  5  4  1  1
  4 36  1  0
  4 37  1  0
  5  7  1  0
  5 15  1  0
  5  6  1  0
  6  7  1  0
  6 38  1  0
  6 39  1  0
  7  8  1  0
  7 40  1  1
  8  9  1  0
  8 13  1  0
  8 66  1  6
  9 10  1  0
  9 41  1  0
  9 42  1  0
 10 12  1  0
 10 11  1  0
 10 43  1  0
 11 12  1  0
 11 44  1  0
 11 45  1  0
 12 46  1  0
 12 47  1  0
 13 14  1  0
 13 48  1  0
 13 49  1  0
 15 14  1  6
 14 50  1  0
 14 51  1  0
 15 30  1  0
 15 16  1  0
 16 20  1  0
 16 17  1  0
 16 52  1  1
 17 18  1  0
 17 53  1  0
 17 54  1  0
 18 19  1  0
 18 55  1  0
 18 56  1  0
 19 28  1  0
 19 20  1  0
 19 21  1  1
 20 57  1  0
 20 58  1  0
 21 22  1  0
 22 28  2  0
 22 23  1  0
 23 24  1  0
 23 25  2  0
 24 59  1  0
 25 26  1  0
 25 60  1  0
 26 27  2  0
 26 61  1  0
 27 28  1  0
 27 29  1  0
 29 30  1  0
 29 62  1  0
 29 63  1  0
 30 64  1  6
M  CHG  2   2   1   8   1
M  END
>  <i_m_ct_stereo_status>  (230) 
1

>  <s_m_source_file>  (230) 
/var/tmp/pbs.5076255.sched01/tmpy0mqr2dw/78t3ouse6d.sdf

>  <i_m_source_file_index>  (230) 
15

>  <i_lp_mmshare_version>  (230) 
48012

>  <i_f3d_flags>  (230) 
0

>  <s_epik_input>  (230) 
W0NIMl0xW0NIMl1OKFtDSDNdKVtDQEBIXTJbQ0gyXWMzW2NIXVtjSF1jKFtPSF0pYyhPNCljM1tDQEBdNChbQ0gyXTUpW0NIMl1bQ0gyXVtDQEBIXTVbQ0BAXTIoW0NAQF0xNjcpW0NIMl1bQ0gyXU4oW0NAQEhdN1tDSDJdNilbQ0gyXVtDSF04W0NIMl1bQ0gyXTg=

>  <s_epik_cmdline>  (230) 
J2VwaWtfcHl0aG9uJywgJy1waHQnLCAnMi4wJywgJy1waCcsICc3LjAnLCAnLXRuJywgJzgnLCAnLW1hJywgJzIwMCcsICctaW1hZScsICc8aW5maWxlLm1hZT4nLCAnLW9tYWUnLCAnPG91dGZpbGUubWFlPic=

>  <r_lp_tautomer_probability>  (230) 
1

>  <r_epik_Ionization_Penalty>  (230) 
0.430499

>  <r_epik_Ionization_Penalty_Charging>  (230) 
0.429078

>  <r_epik_Ionization_Penalty_Neutral>  (230) 
0.0014204

>  <r_epik_State_Penalty>  (230) 
0.392396

>  <r_epik_Charging_Adjusted_Penalty>  (230) 
0.821474

>  <i_epik_Tot_Q>  (230) 
2

>  <i_epik_Tot_abs_Q>  (230) 
2

>  <s_lp_Force_Field>  (230) 
OPLS3e

>  <r_lp_Energy>  (230) 
97.4924

>  <b_lp_Chiralities_Consistent>  (230) 
1

>  <s_lp_Variant>  (230) 
69:0-1

>  <s_i_glide_gridfile>  (230) 
pfpi4k_grid

>  <i_i_glide_lignum>  (230) 
15

>  <i_i_glide_rotatable_bonds>  (230) 
3

>  <r_i_docking_score>  (230) 
-2.24798

>  <r_i_glide_ligand_efficiency>  (230) 
-0.0749327

>  <r_i_glide_ligand_efficiency_sa>  (230) 
-0.232833

>  <r_i_glide_ligand_efficiency_ln>  (230) 
-0.510766

>  <r_i_glide_gscore>  (230) 
-2.24798

>  <r_i_glide_lipo>  (230) 
-0.317948

>  <r_i_glide_hbond>  (230) 
0

>  <r_i_glide_metal>  (230) 
-0

>  <r_i_glide_rewards>  (230) 
-0.623344

>  <r_i_glide_evdw>  (230) 
-15.6132

>  <r_i_glide_ecoul>  (230) 
-4.83844

>  <r_i_glide_erotb>  (230) 
0.235813

>  <r_i_glide_esite>  (230) 
-0.0360776

>  <r_i_glide_emodel>  (230) 
-23.788

>  <r_i_glide_energy>  (230) 
-20.4516

>  <r_i_glide_einternal>  (230) 
5.59134

>  <r_i_glide_intrahb_reward>  (230) 
-0

>  <i_i_glide_confnum>  (230) 
6

>  <i_i_glide_posenum>  (230) 
2

>  <r_i_glide_eff_state_penalty>  (230) 
0

>  <ligand_id>  (230) 
69

>  <original_smiles>  (230) 
CN1CCC23CC2N(CC2CC2)CCC32C3CCC4(C3)Oc3c(O)ccc(c34)CC12

>  <smiles>  (230) 
[H]Oc1c([H])c([H])c2c3c1OC31C([H])([H])C([H])([H])C([H])(C1([H])[H])C13C([H])([H])C([H])([H])[N+]([H])(C([H])([H])C4([H])C([H])([H])C4([H])[H])C4([H])C([H])([H])C14C([H])([H])C([H])([H])[N+]([H])(C([H])([H])[H])C3([H])C2([H])[H]

$$$$
69:1:0
     RDKit          3D

 65 72  0  0  1  0  0  0  0  0999 V2000
    4.6823   -5.9409   -0.0887 C   0  0  0  0  0  0  0  0  0  0  0  0
    4.7381   -4.9901    1.0516 N   0  0  2  0  0  0  0  0  0  0  0  0
    5.0405   -5.7058    2.3099 C   0  0  0  0  0  0  0  0  0  0  0  0
    5.1965   -4.7468    3.4935 C   0  0  0  0  0  0  0  0  0  0  0  0
    4.1298   -3.6516    3.6343 C   0  0  2  0  0  0  0  0  0  0  0  0
    4.1600   -2.9169    4.9471 C   0  0  0  0  0  0  0  0  0  0  0  0
    3.0218   -3.8663    4.6789 C   0  0  1  0  0  0  0  0  0  0  0  0
    1.7251   -3.1866    4.5861 N   0  0  0  0  0  0  0  0  0  0  0  0
    0.6682   -3.9079    5.2979 C   0  0  0  0  0  0  0  0  0  0  0  0
   -0.4894   -2.9681    5.6164 C   0  0  0  0  0  0  0  0  0  0  0  0
   -0.5509   -2.2100    6.9188 C   0  0  0  0  0  0  0  0  0  0  0  0
   -1.5230   -3.3332    6.6469 C   0  0  0  0  0  0  0  0  0  0  0  0
    1.3578   -2.9857    3.1974 C   0  0  0  0  0  0  0  0  0  0  0  0
    2.4530   -2.1944    2.4987 C   0  0  0  0  0  0  0  0  0  0  0  0
    3.7814   -2.9658    2.2828 C   0  0  1  0  0  0  0  0  0  0  0  0
    4.8412   -1.8595    1.9060 C   0  0  1  0  0  0  0  0  0  0  0  0
    6.2435   -2.3347    1.4631 C   0  0  0  0  0  0  0  0  0  0  0  0
    6.3190   -2.2184   -0.0559 C   0  0  0  0  0  0  0  0  0  0  0  0
    5.0522   -1.5225   -0.4853 C   0  0  1  0  0  0  0  0  0  0  0  0
    4.4775   -0.8785    0.7590 C   0  0  0  0  0  0  0  0  0  0  0  0
    5.3492   -0.6896   -1.6964 O   0  0  0  0  0  0  0  0  0  0  0  0
    4.4414   -1.4441   -2.3965 C   0  0  0  0  0  0  0  0  0  0  0  0
    3.7929   -1.6203   -3.6206 C   0  0  0  0  0  0  0  0  0  0  0  0
    4.0485   -0.8272   -4.7108 O   0  0  0  0  0  0  0  0  0  0  0  0
    2.8249   -2.6562   -3.6798 C   0  0  0  0  0  0  0  0  0  0  0  0
    2.4719   -3.4402   -2.5434 C   0  0  0  0  0  0  0  0  0  0  0  0
    3.1158   -3.2973   -1.2971 C   0  0  0  0  0  0  0  0  0  0  0  0
    4.0755   -2.3022   -1.3068 C   0  0  0  0  0  0  0  0  0  0  0  0
    2.6759   -3.9354   -0.0010 C   0  0  0  0  0  0  0  0  0  0  0  0
    3.5492   -4.1291    1.2447 C   0  0  1  0  0  0  0  0  0  0  0  0
    3.8688   -6.6518   -0.0001 H   0  0  0  0  0  0  0  0  0  0  0  0
    5.5978   -6.5088   -0.0893 H   0  0  0  0  0  0  0  0  0  0  0  0
    4.6216   -5.4516   -1.0568 H   0  0  0  0  0  0  0  0  0  0  0  0
    4.2613   -6.4364    2.5127 H   0  0  0  0  0  0  0  0  0  0  0  0
    5.9564   -6.2745    2.1839 H   0  0  0  0  0  0  0  0  0  0  0  0
    5.1697   -5.3745    4.3772 H   0  0  0  0  0  0  0  0  0  0  0  0
    6.1871   -4.3090    3.5183 H   0  0  0  0  0  0  0  0  0  0  0  0
    4.9419   -3.2337    5.6356 H   0  0  0  0  0  0  0  0  0  0  0  0
    3.9574   -1.8491    4.9202 H   0  0  0  0  0  0  0  0  0  0  0  0
    3.0910   -4.8056    5.2155 H   0  0  0  0  0  0  0  0  0  0  0  0
    0.3166   -4.7826    4.7388 H   0  0  0  0  0  0  0  0  0  0  0  0
    1.0469   -4.2856    6.2433 H   0  0  0  0  0  0  0  0  0  0  0  0
   -0.9191   -2.4503    4.7709 H   0  0  0  0  0  0  0  0  0  0  0  0
    0.2558   -2.3795    7.6278 H   0  0  0  0  0  0  0  0  0  0  0  0
   -0.9114   -1.1843    6.8520 H   0  0  0  0  0  0  0  0  0  0  0  0
   -2.5530   -3.0591    6.4253 H   0  0  0  0  0  0  0  0  0  0  0  0
   -1.3894   -4.2724    7.1746 H   0  0  0  0  0  0  0  0  0  0  0  0
    1.1232   -3.9222    2.6937 H   0  0  0  0  0  0  0  0  0  0  0  0
    0.4652   -2.3712    3.1370 H   0  0  0  0  0  0  0  0  0  0  0  0
    2.0294   -1.8249    1.5736 H   0  0  0  0  0  0  0  0  0  0  0  0
    2.6278   -1.2899    3.0783 H   0  0  0  0  0  0  0  0  0  0  0  0
    4.9720   -1.2583    2.8102 H   0  0  0  0  0  0  0  0  0  0  0  0
    6.9693   -1.6444    1.8908 H   0  0  0  0  0  0  0  0  0  0  0  0
    6.5559   -3.3168    1.7768 H   0  0  0  0  0  0  0  0  0  0  0  0
    7.1795   -1.5884   -0.2788 H   0  0  0  0  0  0  0  0  0  0  0  0
    6.4796   -3.1611   -0.5746 H   0  0  0  0  0  0  0  0  0  0  0  0
    3.4486   -0.5161    0.6751 H   0  0  0  0  0  0  0  0  0  0  0  0
    5.0572    0.0222    0.9474 H   0  0  0  0  0  0  0  0  0  0  0  0
    3.3111   -0.8476   -5.3074 H   0  0  0  0  0  0  0  0  0  0  0  0
    2.3211   -2.8987   -4.6075 H   0  0  0  0  0  0  0  0  0  0  0  0
    1.6946   -4.1846   -2.6463 H   0  0  0  0  0  0  0  0  0  0  0  0
    1.8065   -3.3880    0.2698 H   0  0  0  0  0  0  0  0  0  0  0  0
    2.3020   -4.9112   -0.3038 H   0  0  0  0  0  0  0  0  0  0  0  0
    2.8738   -4.7927    1.7814 H   0  0  0  0  0  0  0  0  0  0  0  0
    5.4988   -4.3671    0.8540 H   0  0  0  0  0  0  0  0  0  0  0  0
  1  2  1  0
  1 31  1  0
  1 32  1  0
  1 33  1  0
  2 30  1  0
  2  3  1  0
  2 65  1  6
  3  4  1  0
  3 34  1  0
  3 35  1  0
  5  4  1  6
  4 36  1  0
  4 37  1  0
  5  7  1  0
  5 15  1  0
  5  6  1  0
  6  7  1  0
  6 38  1  0
  6 39  1  0
  7  8  1  0
  7 40  1  1
  8  9  1  0
  8 13  1  0
  9 10  1  0
  9 41  1  0
  9 42  1  0
 10 12  1  0
 10 11  1  0
 10 43  1  0
 11 12  1  0
 11 44  1  0
 11 45  1  0
 12 46  1  0
 12 47  1  0
 13 14  1  0
 13 48  1  0
 13 49  1  0
 15 14  1  1
 14 50  1  0
 14 51  1  0
 15 30  1  0
 15 16  1  0
 16 20  1  0
 16 17  1  0
 16 52  1  1
 17 18  1  0
 17 53  1  0
 17 54  1  0
 18 19  1  0
 18 55  1  0
 18 56  1  0
 19 28  1  0
 19 20  1  0
 19 21  1  6
 20 57  1  0
 20 58  1  0
 21 22  1  0
 22 28  2  0
 22 23  1  0
 23 24  1  0
 23 25  2  0
 24 59  1  0
 25 26  1  0
 25 60  1  0
 26 27  2  0
 26 61  1  0
 27 28  1  0
 27 29  1  0
 29 30  1  0
 29 62  1  0
 29 63  1  0
 30 64  1  1
M  CHG  1   2   1
M  END
>  <i_m_ct_stereo_status>  (231) 
1

>  <s_m_source_file>  (231) 
/var/tmp/pbs.5076255.sched01/tmpy0mqr2dw/78t3ouse6d.sdf

>  <i_m_source_file_index>  (231) 
16

>  <i_lp_mmshare_version>  (231) 
48012

>  <i_f3d_flags>  (231) 
0

>  <s_epik_input>  (231) 
W0NIMl0xW0NIMl1OKFtDSDNdKVtDQEBIXTJbQ0gyXWMzW2NIXVtjSF1jKFtPSF0pYyhPNCljM1tDQEBdNChbQ0gyXTUpW0NIMl1bQ0gyXVtDQEBIXTVbQ0BAXTIoW0NAQF0xNjcpW0NIMl1bQ0gyXU4oW0NAQEhdN1tDSDJdNilbQ0gyXVtDSF04W0NIMl1bQ0gyXTg=

>  <s_epik_cmdline>  (231) 
J2VwaWtfcHl0aG9uJywgJy1waHQnLCAnMi4wJywgJy1waCcsICc3LjAnLCAnLXRuJywgJzgnLCAnLW1hJywgJzIwMCcsICctaW1hZScsICc8aW5maWxlLm1hZT4nLCAnLW9tYWUnLCAnPG91dGZpbGUubWFlPic=

>  <r_lp_tautomer_probability>  (231) 
1

>  <r_epik_Ionization_Penalty>  (231) 
0.465228

>  <r_epik_Ionization_Penalty_Charging>  (231) 
0.00243002

>  <r_epik_Ionization_Penalty_Neutral>  (231) 
0.462798

>  <r_epik_State_Penalty>  (231) 
0.496933

>  <r_epik_Charging_Adjusted_Penalty>  (231) 
0.499363

>  <i_epik_Tot_Q>  (231) 
1

>  <i_epik_Tot_abs_Q>  (231) 
1

>  <s_lp_Force_Field>  (231) 
OPLS3e

>  <r_lp_Energy>  (231) 
90.4844

>  <b_lp_Chiralities_Consistent>  (231) 
1

>  <s_lp_Variant>  (231) 
69:0-2

>  <s_i_glide_gridfile>  (231) 
pfpi4k_grid

>  <i_i_glide_lignum>  (231) 
16

>  <i_i_glide_rotatable_bonds>  (231) 
3

>  <r_i_docking_score>  (231) 
-3.43675

>  <r_i_glide_ligand_efficiency>  (231) 
-0.114558

>  <r_i_glide_ligand_efficiency_sa>  (231) 
-0.355959

>  <r_i_glide_ligand_efficiency_ln>  (231) 
-0.780867

>  <r_i_glide_gscore>  (231) 
-3.43675

>  <r_i_glide_lipo>  (231) 
-0.990703

>  <r_i_glide_hbond>  (231) 
-0.00338813

>  <r_i_glide_metal>  (231) 
-0

>  <r_i_glide_rewards>  (231) 
-0.630216

>  <r_i_glide_evdw>  (231) 
-25.148

>  <r_i_glide_ecoul>  (231) 
-5.27938

>  <r_i_glide_erotb>  (231) 
0.236865

>  <r_i_glide_esite>  (231) 
0

>  <r_i_glide_emodel>  (231) 
-35.8082

>  <r_i_glide_energy>  (231) 
-30.4274

>  <r_i_glide_einternal>  (231) 
2.17942

>  <r_i_glide_intrahb_reward>  (231) 
-0

>  <i_i_glide_confnum>  (231) 
6

>  <i_i_glide_posenum>  (231) 
5

>  <r_i_glide_eff_state_penalty>  (231) 
0

>  <ligand_id>  (231) 
69

>  <original_smiles>  (231) 
CN1CCC23CC2N(CC2CC2)CCC32C3CCC4(C3)Oc3c(O)ccc(c34)CC12

>  <smiles>  (231) 
[H]Oc1c([H])c([H])c2c3c1OC31C([H])([H])C([H])([H])C([H])(C1([H])[H])C13C([H])([H])C([H])([H])N(C([H])([H])C4([H])C([H])([H])C4([H])[H])C4([H])C([H])([H])C41C([H])([H])C([H])([H])[N+]([H])(C([H])([H])[H])C3([H])C2([H])[H]

$$$$
69:1:1
     RDKit          3D

 65 72  0  0  1  0  0  0  0  0999 V2000
    3.3427    5.4989    2.9348 C   0  0  0  0  0  0  0  0  0  0  0  0
    3.4170    5.5528    4.4183 N   0  0  2  0  0  0  0  0  0  0  0  0
    4.6183    6.3081    4.8542 C   0  0  0  0  0  0  0  0  0  0  0  0
    4.6802    6.5007    6.3793 C   0  0  0  0  0  0  0  0  0  0  0  0
    4.3708    5.2564    7.2273 C   0  0  2  0  0  0  0  0  0  0  0  0
    4.6807    5.4167    8.6948 C   0  0  0  0  0  0  0  0  0  0  0  0
    5.5686    4.5300    7.8528 C   0  0  1  0  0  0  0  0  0  0  0  0
    5.5047    3.1131    8.1955 N   0  0  0  0  0  0  0  0  0  0  0  0
    6.8111    2.4705    8.3117 C   0  0  0  0  0  0  0  0  0  0  0  0
    7.6340    2.4669    7.0285 C   0  0  0  0  0  0  0  0  0  0  0  0
    7.7848    1.2143    6.1930 C   0  0  0  0  0  0  0  0  0  0  0  0
    8.9436    1.7146    7.0168 C   0  0  0  0  0  0  0  0  0  0  0  0
    4.5859    2.3539    7.3670 C   0  0  0  0  0  0  0  0  0  0  0  0
    3.2122    3.0309    7.4100 C   0  0  0  0  0  0  0  0  0  0  0  0
    3.1538    4.4260    6.7107 C   0  0  1  0  0  0  0  0  0  0  0  0
    1.7976    5.0844    7.2000 C   0  0  1  0  0  0  0  0  0  0  0  0
    1.3744    6.4319    6.5587 C   0  0  0  0  0  0  0  0  0  0  0  0
    0.2828    6.1191    5.5312 C   0  0  0  0  0  0  0  0  0  0  0  0
   -0.0465    4.6450    5.6962 C   0  0  1  0  0  0  0  0  0  0  0  0
    0.5026    4.2486    7.0427 C   0  0  0  0  0  0  0  0  0  0  0  0
   -1.4973    4.3939    5.4081 O   0  0  0  0  0  0  0  0  0  0  0  0
   -1.1169    3.6021    4.3594 C   0  0  0  0  0  0  0  0  0  0  0  0
   -1.5814    2.7842    3.3187 C   0  0  0  0  0  0  0  0  0  0  0  0
   -2.9060    2.6527    3.0467 O   0  0  0  0  0  0  0  0  0  0  0  0
   -0.5899    2.1003    2.5628 C   0  0  0  0  0  0  0  0  0  0  0  0
    0.8061    2.2140    2.8547 C   0  0  0  0  0  0  0  0  0  0  0  0
    1.3038    3.0404    3.8875 C   0  0  0  0  0  0  0  0  0  0  0  0
    0.2909    3.7224    4.5590 C   0  0  0  0  0  0  0  0  0  0  0  0
    2.7282    3.0616    4.4023 C   0  0  0  0  0  0  0  0  0  0  0  0
    3.3578    4.2552    5.1540 C   0  0  1  0  0  0  0  0  0  0  0  0
    4.1515    4.9312    2.4781 H   0  0  0  0  0  0  0  0  0  0  0  0
    3.4240    6.5087    2.5345 H   0  0  0  0  0  0  0  0  0  0  0  0
    2.3955    5.0902    2.5781 H   0  0  0  0  0  0  0  0  0  0  0  0
    5.5224    5.7975    4.5162 H   0  0  0  0  0  0  0  0  0  0  0  0
    4.6285    7.2901    4.3787 H   0  0  0  0  0  0  0  0  0  0  0  0
    5.6996    6.8253    6.6054 H   0  0  0  0  0  0  0  0  0  0  0  0
    4.0626    7.3328    6.7138 H   0  0  0  0  0  0  0  0  0  0  0  0
    5.1005    6.3714    9.0030 H   0  0  0  0  0  0  0  0  0  0  0  0
    4.0227    4.9419    9.4186 H   0  0  0  0  0  0  0  0  0  0  0  0
    6.5404    4.9554    7.6128 H   0  0  0  0  0  0  0  0  0  0  0  0
    7.3770    2.9626    9.1027 H   0  0  0  0  0  0  0  0  0  0  0  0
    6.6664    1.4403    8.6383 H   0  0  0  0  0  0  0  0  0  0  0  0
    7.6651    3.4122    6.4902 H   0  0  0  0  0  0  0  0  0  0  0  0
    7.2678    0.3166    6.5273 H   0  0  0  0  0  0  0  0  0  0  0  0
    7.8455    1.3420    5.1132 H   0  0  0  0  0  0  0  0  0  0  0  0
    9.7727    2.1818    6.4903 H   0  0  0  0  0  0  0  0  0  0  0  0
    9.2191    1.1452    7.9028 H   0  0  0  0  0  0  0  0  0  0  0  0
    4.9528    2.2345    6.3508 H   0  0  0  0  0  0  0  0  0  0  0  0
    4.4911    1.3532    7.7868 H   0  0  0  0  0  0  0  0  0  0  0  0
    2.4887    2.3462    6.9763 H   0  0  0  0  0  0  0  0  0  0  0  0
    2.9050    3.1255    8.4533 H   0  0  0  0  0  0  0  0  0  0  0  0
    1.9195    5.2727    8.2702 H   0  0  0  0  0  0  0  0  0  0  0  0
    0.9521    7.0704    7.3404 H   0  0  0  0  0  0  0  0  0  0  0  0
    2.1454    7.0316    6.1011 H   0  0  0  0  0  0  0  0  0  0  0  0
   -0.5792    6.7294    5.8038 H   0  0  0  0  0  0  0  0  0  0  0  0
    0.5439    6.3834    4.5056 H   0  0  0  0  0  0  0  0  0  0  0  0
    0.5542    3.1761    7.2216 H   0  0  0  0  0  0  0  0  0  0  0  0
   -0.1890    4.6179    7.8016 H   0  0  0  0  0  0  0  0  0  0  0  0
   -3.1043    1.8911    2.5135 H   0  0  0  0  0  0  0  0  0  0  0  0
   -0.8781    1.4757    1.7327 H   0  0  0  0  0  0  0  0  0  0  0  0
    1.5053    1.6391    2.2683 H   0  0  0  0  0  0  0  0  0  0  0  0
    2.9018    2.1288    4.9280 H   0  0  0  0  0  0  0  0  0  0  0  0
    3.3190    2.9306    3.4979 H   0  0  0  0  0  0  0  0  0  0  0  0
    4.3933    3.9194    5.1017 H   0  0  0  0  0  0  0  0  0  0  0  0
    2.6093    6.0810    4.7172 H   0  0  0  0  0  0  0  0  0  0  0  0
  1  2  1  0
  1 31  1  0
  1 32  1  0
  1 33  1  0
  2 30  1  0
  2  3  1  0
  2 65  1  1
  3  4  1  0
  3 34  1  0
  3 35  1  0
  5  4  1  6
  4 36  1  0
  4 37  1  0
  5  7  1  0
  5 15  1  0
  5  6  1  0
  6  7  1  0
  6 38  1  0
  6 39  1  0
  7  8  1  0
  7 40  1  6
  8  9  1  0
  8 13  1  0
  9 10  1  0
  9 41  1  0
  9 42  1  0
 10 12  1  0
 10 11  1  0
 10 43  1  0
 11 12  1  0
 11 44  1  0
 11 45  1  0
 12 46  1  0
 12 47  1  0
 13 14  1  0
 13 48  1  0
 13 49  1  0
 15 14  1  1
 14 50  1  0
 14 51  1  0
 15 30  1  0
 15 16  1  0
 16 20  1  0
 16 17  1  0
 16 52  1  1
 17 18  1  0
 17 53  1  0
 17 54  1  0
 18 19  1  0
 18 55  1  0
 18 56  1  0
 19 28  1  0
 19 20  1  0
 19 21  1  1
 20 57  1  0
 20 58  1  0
 21 22  1  0
 22 28  2  0
 22 23  1  0
 23 24  1  0
 23 25  2  0
 24 59  1  0
 25 26  1  0
 25 60  1  0
 26 27  2  0
 26 61  1  0
 27 28  1  0
 27 29  1  0
 29 30  1  0
 29 62  1  0
 29 63  1  0
 30 64  1  1
M  CHG  1   2   1
M  END
>  <i_m_ct_stereo_status>  (232) 
1

>  <s_m_source_file>  (232) 
/var/tmp/pbs.5076255.sched01/tmpy0mqr2dw/78t3ouse6d.sdf

>  <i_m_source_file_index>  (232) 
16

>  <i_lp_mmshare_version>  (232) 
48012

>  <i_f3d_flags>  (232) 
0

>  <s_epik_input>  (232) 
W0NIMl0xW0NIMl1OKFtDSDNdKVtDQEBIXTJbQ0gyXWMzW2NIXVtjSF1jKFtPSF0pYyhPNCljM1tDQEBdNChbQ0gyXTUpW0NIMl1bQ0gyXVtDQEBIXTVbQ0BAXTIoW0NAQF0xNjcpW0NIMl1bQ0gyXU4oW0NAQEhdN1tDSDJdNilbQ0gyXVtDSF04W0NIMl1bQ0gyXTg=

>  <s_epik_cmdline>  (232) 
J2VwaWtfcHl0aG9uJywgJy1waHQnLCAnMi4wJywgJy1waCcsICc3LjAnLCAnLXRuJywgJzgnLCAnLW1hJywgJzIwMCcsICctaW1hZScsICc8aW5maWxlLm1hZT4nLCAnLW9tYWUnLCAnPG91dGZpbGUubWFlPic=

>  <r_lp_tautomer_probability>  (232) 
1

>  <r_epik_Ionization_Penalty>  (232) 
0.465228

>  <r_epik_Ionization_Penalty_Charging>  (232) 
0.00243002

>  <r_epik_Ionization_Penalty_Neutral>  (232) 
0.462798

>  <r_epik_State_Penalty>  (232) 
0.496933

>  <r_epik_Charging_Adjusted_Penalty>  (232) 
0.499363

>  <i_epik_Tot_Q>  (232) 
1

>  <i_epik_Tot_abs_Q>  (232) 
1

>  <s_lp_Force_Field>  (232) 
OPLS3e

>  <r_lp_Energy>  (232) 
90.4844

>  <b_lp_Chiralities_Consistent>  (232) 
1

>  <s_lp_Variant>  (232) 
69:0-2

>  <s_i_glide_gridfile>  (232) 
pfpi4k_grid

>  <i_i_glide_lignum>  (232) 
16

>  <i_i_glide_rotatable_bonds>  (232) 
3

>  <r_i_docking_score>  (232) 
-2.26323

>  <r_i_glide_ligand_efficiency>  (232) 
-0.0754411

>  <r_i_glide_ligand_efficiency_sa>  (232) 
-0.234413

>  <r_i_glide_ligand_efficiency_ln>  (232) 
-0.514232

>  <r_i_glide_gscore>  (232) 
-2.26323

>  <r_i_glide_lipo>  (232) 
-0.177701

>  <r_i_glide_hbond>  (232) 
0

>  <r_i_glide_metal>  (232) 
-0

>  <r_i_glide_rewards>  (232) 
-0.630216

>  <r_i_glide_evdw>  (232) 
-15.7358

>  <r_i_glide_ecoul>  (232) 
-6.00423

>  <r_i_glide_erotb>  (232) 
0.236865

>  <r_i_glide_esite>  (232) 
-0.00476014

>  <r_i_glide_emodel>  (232) 
-25.4192

>  <r_i_glide_energy>  (232) 
-21.74

>  <r_i_glide_einternal>  (232) 
1.0375

>  <r_i_glide_intrahb_reward>  (232) 
-0

>  <i_i_glide_confnum>  (232) 
3

>  <i_i_glide_posenum>  (232) 
6

>  <r_i_glide_eff_state_penalty>  (232) 
0

>  <ligand_id>  (232) 
69

>  <original_smiles>  (232) 
CN1CCC23CC2N(CC2CC2)CCC32C3CCC4(C3)Oc3c(O)ccc(c34)CC12

>  <smiles>  (232) 
[H]Oc1c([H])c([H])c2c3c1OC31C([H])([H])C([H])([H])C([H])(C1([H])[H])C13C([H])([H])C([H])([H])N(C([H])([H])C4([H])C([H])([H])C4([H])[H])C4([H])C([H])([H])C41C([H])([H])C([H])([H])[N+]([H])(C([H])([H])[H])C3([H])C2([H])[H]

$$$$
69:1:2
     RDKit          3D

 65 72  0  0  1  0  0  0  0  0999 V2000
    4.2366   -2.6240    5.9694 C   0  0  0  0  0  0  0  0  0  0  0  0
    3.7951   -4.0436    5.9587 N   0  0  2  0  0  0  0  0  0  0  0  0
    4.9459   -4.9391    6.2333 C   0  0  0  0  0  0  0  0  0  0  0  0
    4.5293   -6.4142    6.3450 C   0  0  0  0  0  0  0  0  0  0  0  0
    3.5675   -6.9254    5.2586 C   0  0  2  0  0  0  0  0  0  0  0  0
    3.3913   -8.4220    5.2564 C   0  0  0  0  0  0  0  0  0  0  0  0
    4.1703   -7.7795    4.1318 C   0  0  1  0  0  0  0  0  0  0  0  0
    3.5198   -7.9040    2.8260 N   0  0  0  0  0  0  0  0  0  0  0  0
    4.4271   -8.2805    1.7453 C   0  0  0  0  0  0  0  0  0  0  0  0
    4.9998   -9.6690    1.9393 C   0  0  0  0  0  0  0  0  0  0  0  0
    6.3335   -9.8827    2.6183 C   0  0  0  0  0  0  0  0  0  0  0  0
    6.2077  -10.1014    1.1349 C   0  0  0  0  0  0  0  0  0  0  0  0
    2.7866   -6.7067    2.4672 C   0  0  0  0  0  0  0  0  0  0  0  0
    1.7752   -6.4032    3.5778 C   0  0  0  0  0  0  0  0  0  0  0  0
    2.4064   -5.9365    4.9259 C   0  0  1  0  0  0  0  0  0  0  0  0
    1.2475   -6.0610    6.0016 C   0  0  1  0  0  0  0  0  0  0  0  0
    1.5193   -5.5258    7.4319 C   0  0  0  0  0  0  0  0  0  0  0  0
    0.8039   -4.1737    7.5550 C   0  0  0  0  0  0  0  0  0  0  0  0
   -0.0156   -4.0073    6.2858 C   0  0  1  0  0  0  0  0  0  0  0  0
   -0.1094   -5.3845    5.6757 C   0  0  0  0  0  0  0  0  0  0  0  0
   -1.2776   -3.2347    6.5672 O   0  0  0  0  0  0  0  0  0  0  0  0
   -0.8157   -2.2580    5.7232 C   0  0  0  0  0  0  0  0  0  0  0  0
   -1.0994   -1.0073    5.1524 C   0  0  0  0  0  0  0  0  0  0  0  0
   -2.1986   -0.2898    5.4855 O   0  0  0  0  0  0  0  0  0  0  0  0
   -0.1713   -0.5111    4.1993 C   0  0  0  0  0  0  0  0  0  0  0  0
    0.9917   -1.2424    3.8118 C   0  0  0  0  0  0  0  0  0  0  0  0
    1.3155   -2.5005    4.3765 C   0  0  0  0  0  0  0  0  0  0  0  0
    0.3949   -2.9121    5.3381 C   0  0  0  0  0  0  0  0  0  0  0  0
    2.3954   -3.4384    3.8698 C   0  0  0  0  0  0  0  0  0  0  0  0
    3.0739   -4.5194    4.7398 C   0  0  1  0  0  0  0  0  0  0  0  0
    4.9230   -2.4127    5.1485 H   0  0  0  0  0  0  0  0  0  0  0  0
    4.7582   -2.4023    6.9018 H   0  0  0  0  0  0  0  0  0  0  0  0
    3.3966   -1.9327    5.9180 H   0  0  0  0  0  0  0  0  0  0  0  0
    5.6974   -4.8236    5.4488 H   0  0  0  0  0  0  0  0  0  0  0  0
    5.4285   -4.6391    7.1645 H   0  0  0  0  0  0  0  0  0  0  0  0
    5.4531   -6.9957    6.2913 H   0  0  0  0  0  0  0  0  0  0  0  0
    4.1316   -6.6531    7.3302 H   0  0  0  0  0  0  0  0  0  0  0  0
    3.9599   -8.9807    5.9982 H   0  0  0  0  0  0  0  0  0  0  0  0
    2.4081   -8.8250    5.0277 H   0  0  0  0  0  0  0  0  0  0  0  0
    5.2515   -7.8849    4.1842 H   0  0  0  0  0  0  0  0  0  0  0  0
    3.8727   -8.2939    0.8062 H   0  0  0  0  0  0  0  0  0  0  0  0
    5.2273   -7.5520    1.6329 H   0  0  0  0  0  0  0  0  0  0  0  0
    4.2425  -10.4384    2.0884 H   0  0  0  0  0  0  0  0  0  0  0  0
    6.8654   -8.9974    2.9622 H   0  0  0  0  0  0  0  0  0  0  0  0
    6.4194  -10.7597    3.2559 H   0  0  0  0  0  0  0  0  0  0  0  0
    6.2327  -11.1288    0.7783 H   0  0  0  0  0  0  0  0  0  0  0  0
    6.6771   -9.3692    0.4816 H   0  0  0  0  0  0  0  0  0  0  0  0
    3.4453   -5.8663    2.2615 H   0  0  0  0  0  0  0  0  0  0  0  0
    2.2378   -6.9108    1.5483 H   0  0  0  0  0  0  0  0  0  0  0  0
    1.0730   -5.6675    3.1974 H   0  0  0  0  0  0  0  0  0  0  0  0
    1.1720   -7.2994    3.7413 H   0  0  0  0  0  0  0  0  0  0  0  0
    1.0463   -7.1312    6.1014 H   0  0  0  0  0  0  0  0  0  0  0  0
    1.0832   -6.2242    8.1516 H   0  0  0  0  0  0  0  0  0  0  0  0
    2.5498   -5.4285    7.7353 H   0  0  0  0  0  0  0  0  0  0  0  0
    0.1403   -4.2321    8.4206 H   0  0  0  0  0  0  0  0  0  0  0  0
    1.4788   -3.3369    7.7347 H   0  0  0  0  0  0  0  0  0  0  0  0
   -0.4587   -5.4124    4.6460 H   0  0  0  0  0  0  0  0  0  0  0  0
   -0.8660   -5.9352    6.2363 H   0  0  0  0  0  0  0  0  0  0  0  0
   -2.3538    0.4245    4.8786 H   0  0  0  0  0  0  0  0  0  0  0  0
   -0.3505    0.4386    3.7187 H   0  0  0  0  0  0  0  0  0  0  0  0
    1.6173   -0.8417    3.0318 H   0  0  0  0  0  0  0  0  0  0  0  0
    2.0716   -3.8413    2.9169 H   0  0  0  0  0  0  0  0  0  0  0  0
    3.1861   -2.7572    3.5646 H   0  0  0  0  0  0  0  0  0  0  0  0
    3.8999   -4.7436    4.0671 H   0  0  0  0  0  0  0  0  0  0  0  0
    3.1461   -4.1482    6.7274 H   0  0  0  0  0  0  0  0  0  0  0  0
  1  2  1  0
  1 31  1  0
  1 32  1  0
  1 33  1  0
  2 30  1  0
  2  3  1  0
  2 65  1  1
  3  4  1  0
  3 34  1  0
  3 35  1  0
  5  4  1  1
  4 36  1  0
  4 37  1  0
  5  7  1  0
  5 15  1  0
  5  6  1  0
  6  7  1  0
  6 38  1  0
  6 39  1  0
  7  8  1  0
  7 40  1  6
  8  9  1  0
  8 13  1  0
  9 10  1  0
  9 41  1  0
  9 42  1  0
 10 12  1  0
 10 11  1  0
 10 43  1  0
 11 12  1  0
 11 44  1  0
 11 45  1  0
 12 46  1  0
 12 47  1  0
 13 14  1  0
 13 48  1  0
 13 49  1  0
 15 14  1  6
 14 50  1  0
 14 51  1  0
 15 30  1  0
 15 16  1  0
 16 20  1  0
 16 17  1  0
 16 52  1  1
 17 18  1  0
 17 53  1  0
 17 54  1  0
 18 19  1  0
 18 55  1  0
 18 56  1  0
 19 28  1  0
 19 20  1  0
 19 21  1  1
 20 57  1  0
 20 58  1  0
 21 22  1  0
 22 28  2  0
 22 23  1  0
 23 24  1  0
 23 25  2  0
 24 59  1  0
 25 26  1  0
 25 60  1  0
 26 27  2  0
 26 61  1  0
 27 28  1  0
 27 29  1  0
 29 30  1  0
 29 62  1  0
 29 63  1  0
 30 64  1  6
M  CHG  1   2   1
M  END
>  <i_m_ct_stereo_status>  (233) 
1

>  <s_m_source_file>  (233) 
/var/tmp/pbs.5076255.sched01/tmpy0mqr2dw/78t3ouse6d.sdf

>  <i_m_source_file_index>  (233) 
16

>  <i_lp_mmshare_version>  (233) 
48012

>  <i_f3d_flags>  (233) 
0

>  <s_epik_input>  (233) 
W0NIMl0xW0NIMl1OKFtDSDNdKVtDQEBIXTJbQ0gyXWMzW2NIXVtjSF1jKFtPSF0pYyhPNCljM1tDQEBdNChbQ0gyXTUpW0NIMl1bQ0gyXVtDQEBIXTVbQ0BAXTIoW0NAQF0xNjcpW0NIMl1bQ0gyXU4oW0NAQEhdN1tDSDJdNilbQ0gyXVtDSF04W0NIMl1bQ0gyXTg=

>  <s_epik_cmdline>  (233) 
J2VwaWtfcHl0aG9uJywgJy1waHQnLCAnMi4wJywgJy1waCcsICc3LjAnLCAnLXRuJywgJzgnLCAnLW1hJywgJzIwMCcsICctaW1hZScsICc8aW5maWxlLm1hZT4nLCAnLW9tYWUnLCAnPG91dGZpbGUubWFlPic=

>  <r_lp_tautomer_probability>  (233) 
1

>  <r_epik_Ionization_Penalty>  (233) 
0.465228

>  <r_epik_Ionization_Penalty_Charging>  (233) 
0.00243002

>  <r_epik_Ionization_Penalty_Neutral>  (233) 
0.462798

>  <r_epik_State_Penalty>  (233) 
0.496933

>  <r_epik_Charging_Adjusted_Penalty>  (233) 
0.499363

>  <i_epik_Tot_Q>  (233) 
1

>  <i_epik_Tot_abs_Q>  (233) 
1

>  <s_lp_Force_Field>  (233) 
OPLS3e

>  <r_lp_Energy>  (233) 
90.4844

>  <b_lp_Chiralities_Consistent>  (233) 
1

>  <s_lp_Variant>  (233) 
69:0-2

>  <s_i_glide_gridfile>  (233) 
pfpi4k_grid

>  <i_i_glide_lignum>  (233) 
16

>  <i_i_glide_rotatable_bonds>  (233) 
3

>  <r_i_docking_score>  (233) 
-1.9431

>  <r_i_glide_ligand_efficiency>  (233) 
-0.0647702

>  <r_i_glide_ligand_efficiency_sa>  (233) 
-0.201256

>  <r_i_glide_ligand_efficiency_ln>  (233) 
-0.441495

>  <r_i_glide_gscore>  (233) 
-1.9431

>  <r_i_glide_lipo>  (233) 
-0.00587912

>  <r_i_glide_hbond>  (233) 
0

>  <r_i_glide_metal>  (233) 
-0

>  <r_i_glide_rewards>  (233) 
-0.630216

>  <r_i_glide_evdw>  (233) 
-18.3887

>  <r_i_glide_ecoul>  (233) 
-4.16294

>  <r_i_glide_erotb>  (233) 
0.236865

>  <r_i_glide_esite>  (233) 
0

>  <r_i_glide_emodel>  (233) 
-25.7831

>  <r_i_glide_energy>  (233) 
-22.5516

>  <r_i_glide_einternal>  (233) 
0.390248

>  <r_i_glide_intrahb_reward>  (233) 
-0

>  <i_i_glide_confnum>  (233) 
1

>  <i_i_glide_posenum>  (233) 
2

>  <r_i_glide_eff_state_penalty>  (233) 
0

>  <ligand_id>  (233) 
69

>  <original_smiles>  (233) 
CN1CCC23CC2N(CC2CC2)CCC32C3CCC4(C3)Oc3c(O)ccc(c34)CC12

>  <smiles>  (233) 
[H]Oc1c([H])c([H])c2c3c1OC31C([H])([H])C([H])([H])C([H])(C1([H])[H])C13C([H])([H])C([H])([H])N(C([H])([H])C4([H])C([H])([H])C4([H])[H])C4([H])C([H])([H])C41C([H])([H])C([H])([H])[N+]([H])(C([H])([H])[H])C3([H])C2([H])[H]

$$$$
69:2:0
     RDKit          3D

 65 72  0  0  1  0  0  0  0  0999 V2000
    7.9796   -6.0566    4.4057 C   0  0  0  0  0  0  0  0  0  0  0  0
    7.7972   -7.3188    3.7115 N   0  0  0  0  0  0  0  0  0  0  0  0
    7.7092   -8.4431    4.6227 C   0  0  0  0  0  0  0  0  0  0  0  0
    6.3287   -8.4693    5.2699 C   0  0  0  0  0  0  0  0  0  0  0  0
    5.1613   -8.6018    4.2872 C   0  0  2  0  0  0  0  0  0  0  0  0
    3.8261   -8.8661    4.9847 C   0  0  0  0  0  0  0  0  0  0  0  0
    4.4931   -9.9883    4.2406 C   0  0  1  0  0  0  0  0  0  0  0  0
    3.8228  -10.3990    2.9828 N   0  0  1  0  0  0  0  0  0  0  0  0
    2.7444  -11.3871    3.1847 C   0  0  0  0  0  0  0  0  0  0  0  0
    1.3435  -10.8475    2.9133 C   0  0  0  0  0  0  0  0  0  0  0  0
    0.2168  -11.1660    3.8566 C   0  0  0  0  0  0  0  0  0  0  0  0
    0.2645  -11.7976    2.4846 C   0  0  0  0  0  0  0  0  0  0  0  0
    3.5157   -9.3026    2.0411 C   0  0  0  0  0  0  0  0  0  0  0  0
    4.7413   -8.4731    1.7694 C   0  0  0  0  0  0  0  0  0  0  0  0
    5.2568   -7.6661    3.0103 C   0  0  1  0  0  0  0  0  0  0  0  0
    4.2820   -6.4057    3.1751 C   0  0  1  0  0  0  0  0  0  0  0  0
    4.5102   -5.5288    4.4196 C   0  0  0  0  0  0  0  0  0  0  0  0
    5.1310   -4.2152    3.9300 C   0  0  0  0  0  0  0  0  0  0  0  0
    5.1176   -4.2644    2.4041 C   0  0  1  0  0  0  0  0  0  0  0  0
    4.1433   -5.3546    2.0373 C   0  0  0  0  0  0  0  0  0  0  0  0
    5.0008   -2.8592    1.8674 O   0  0  0  0  0  0  0  0  0  0  0  0
    6.2322   -3.0143    1.2831 C   0  0  0  0  0  0  0  0  0  0  0  0
    7.2302   -2.3927    0.5226 C   0  0  0  0  0  0  0  0  0  0  0  0
    7.1392   -1.0775    0.1924 O   0  0  0  0  0  0  0  0  0  0  0  0
    8.3490   -3.1993    0.1515 C   0  0  0  0  0  0  0  0  0  0  0  0
    8.4267   -4.5875    0.4791 C   0  0  0  0  0  0  0  0  0  0  0  0
    7.4346   -5.2315    1.2614 C   0  0  0  0  0  0  0  0  0  0  0  0
    6.4247   -4.3704    1.6726 C   0  0  0  0  0  0  0  0  0  0  0  0
    7.1829   -6.7153    1.3407 C   0  0  0  0  0  0  0  0  0  0  0  0
    6.7823   -7.4064    2.6578 C   0  0  1  0  0  0  0  0  0  0  0  0
    8.8991   -6.0812    4.9900 H   0  0  0  0  0  0  0  0  0  0  0  0
    7.1696   -5.8184    5.0881 H   0  0  0  0  0  0  0  0  0  0  0  0
    8.0930   -5.2530    3.6924 H   0  0  0  0  0  0  0  0  0  0  0  0
    7.8996   -9.3715    4.0813 H   0  0  0  0  0  0  0  0  0  0  0  0
    8.4946   -8.3603    5.3761 H   0  0  0  0  0  0  0  0  0  0  0  0
    6.3228   -9.3366    5.9357 H   0  0  0  0  0  0  0  0  0  0  0  0
    6.1932   -7.6181    5.9361 H   0  0  0  0  0  0  0  0  0  0  0  0
    3.8636   -8.9087    6.0735 H   0  0  0  0  0  0  0  0  0  0  0  0
    2.9018   -8.4597    4.5947 H   0  0  0  0  0  0  0  0  0  0  0  0
    4.9211  -10.8149    4.8135 H   0  0  0  0  0  0  0  0  0  0  0  0
    2.9406  -12.2303    2.5291 H   0  0  0  0  0  0  0  0  0  0  0  0
    2.7916  -11.8015    4.1922 H   0  0  0  0  0  0  0  0  0  0  0  0
    1.2391   -9.9090    2.3841 H   0  0  0  0  0  0  0  0  0  0  0  0
    0.4062  -11.7938    4.7329 H   0  0  0  0  0  0  0  0  0  0  0  0
   -0.4788  -10.3483    4.0266 H   0  0  0  0  0  0  0  0  0  0  0  0
   -0.3431  -11.4169    1.6723 H   0  0  0  0  0  0  0  0  0  0  0  0
    0.4967  -12.8658    2.4339 H   0  0  0  0  0  0  0  0  0  0  0  0
    3.1635   -9.7380    1.1018 H   0  0  0  0  0  0  0  0  0  0  0  0
    2.7181   -8.6539    2.4114 H   0  0  0  0  0  0  0  0  0  0  0  0
    5.5005   -9.1474    1.3477 H   0  0  0  0  0  0  0  0  0  0  0  0
    4.4889   -7.8048    0.9546 H   0  0  0  0  0  0  0  0  0  0  0  0
    3.2726   -6.7865    3.3007 H   0  0  0  0  0  0  0  0  0  0  0  0
    3.5490   -5.3054    4.8891 H   0  0  0  0  0  0  0  0  0  0  0  0
    5.0928   -5.9892    5.2027 H   0  0  0  0  0  0  0  0  0  0  0  0
    4.4874   -3.4005    4.2694 H   0  0  0  0  0  0  0  0  0  0  0  0
    6.1112   -4.0091    4.3453 H   0  0  0  0  0  0  0  0  0  0  0  0
    4.2276   -5.7096    1.0137 H   0  0  0  0  0  0  0  0  0  0  0  0
    3.1361   -4.9350    2.1150 H   0  0  0  0  0  0  0  0  0  0  0  0
    6.4922   -0.6103    0.6988 H   0  0  0  0  0  0  0  0  0  0  0  0
    9.1446   -2.7590   -0.4238 H   0  0  0  0  0  0  0  0  0  0  0  0
    9.2180   -5.1850    0.0609 H   0  0  0  0  0  0  0  0  0  0  0  0
    6.5217   -6.9889    0.5240 H   0  0  0  0  0  0  0  0  0  0  0  0
    8.1391   -7.1624    1.0713 H   0  0  0  0  0  0  0  0  0  0  0  0
    7.0556   -8.4191    2.3629 H   0  0  0  0  0  0  0  0  0  0  0  0
    4.5448  -10.9377    2.4999 H   0  0  0  0  0  0  0  0  0  0  0  0
  1  2  1  0
  1 31  1  0
  1 32  1  0
  1 33  1  0
  2 30  1  0
  2  3  1  0
  3  4  1  0
  3 34  1  0
  3 35  1  0
  5  4  1  1
  4 36  1  0
  4 37  1  0
  5  7  1  0
  5 15  1  0
  5  6  1  0
  6  7  1  0
  6 38  1  0
  6 39  1  0
  7  8  1  0
  7 40  1  1
  8  9  1  0
  8 13  1  0
  8 65  1  6
  9 10  1  0
  9 41  1  0
  9 42  1  0
 10 12  1  0
 10 11  1  0
 10 43  1  0
 11 12  1  0
 11 44  1  0
 11 45  1  0
 12 46  1  0
 12 47  1  0
 13 14  1  0
 13 48  1  0
 13 49  1  0
 15 14  1  6
 14 50  1  0
 14 51  1  0
 15 30  1  0
 15 16  1  0
 16 20  1  0
 16 17  1  0
 16 52  1  1
 17 18  1  0
 17 53  1  0
 17 54  1  0
 18 19  1  0
 18 55  1  0
 18 56  1  0
 19 28  1  0
 19 20  1  0
 19 21  1  6
 20 57  1  0
 20 58  1  0
 21 22  1  0
 22 28  2  0
 22 23  1  0
 23 24  1  0
 23 25  2  0
 24 59  1  0
 25 26  1  0
 25 60  1  0
 26 27  2  0
 26 61  1  0
 27 28  1  0
 27 29  1  0
 29 30  1  0
 29 62  1  0
 29 63  1  0
 30 64  1  6
M  CHG  1   8   1
M  END
>  <i_m_ct_stereo_status>  (234) 
1

>  <s_m_source_file>  (234) 
/var/tmp/pbs.5076255.sched01/tmpy0mqr2dw/78t3ouse6d.sdf

>  <i_m_source_file_index>  (234) 
17

>  <i_lp_mmshare_version>  (234) 
48012

>  <i_f3d_flags>  (234) 
0

>  <s_epik_input>  (234) 
W0NIMl0xW0NIMl1OKFtDSDNdKVtDQEBIXTJbQ0gyXWMzW2NIXVtjSF1jKFtPSF0pYyhPNCljM1tDQEBdNChbQ0gyXTUpW0NIMl1bQ0gyXVtDQEBIXTVbQ0BAXTIoW0NAQF0xNjcpW0NIMl1bQ0gyXU4oW0NAQEhdN1tDSDJdNilbQ0gyXVtDSF04W0NIMl1bQ0gyXTg=

>  <s_epik_cmdline>  (234) 
J2VwaWtfcHl0aG9uJywgJy1waHQnLCAnMi4wJywgJy1waCcsICc3LjAnLCAnLXRuJywgJzgnLCAnLW1hJywgJzIwMCcsICctaW1hZScsICc8aW5maWxlLm1hZT4nLCAnLW9tYWUnLCAnPG91dGZpbGUubWFlPic=

>  <r_epik_Ionization_Penalty>  (234) 
1.35181

>  <r_epik_Ionization_Penalty_Charging>  (234) 
0.0130569

>  <r_epik_Ionization_Penalty_Neutral>  (234) 
1.33875

>  <r_epik_State_Penalty>  (234) 
1.75091

>  <r_epik_Charging_Adjusted_Penalty>  (234) 
1.76397

>  <i_epik_Tot_Q>  (234) 
1

>  <i_epik_Tot_abs_Q>  (234) 
1

>  <s_lp_Force_Field>  (234) 
OPLS3e

>  <r_lp_Energy>  (234) 
88.5276

>  <b_lp_Chiralities_Consistent>  (234) 
1

>  <s_lp_Variant>  (234) 
69:0-3

>  <s_i_glide_gridfile>  (234) 
pfpi4k_grid

>  <i_i_glide_lignum>  (234) 
17

>  <i_i_glide_rotatable_bonds>  (234) 
3

>  <r_i_docking_score>  (234) 
-2.80429

>  <r_i_glide_ligand_efficiency>  (234) 
-0.0934765

>  <r_i_glide_ligand_efficiency_sa>  (234) 
-0.290453

>  <r_i_glide_ligand_efficiency_ln>  (234) 
-0.637166

>  <r_i_glide_gscore>  (234) 
-2.80429

>  <r_i_glide_lipo>  (234) 
-0.929119

>  <r_i_glide_hbond>  (234) 
0

>  <r_i_glide_metal>  (234) 
-0

>  <r_i_glide_rewards>  (234) 
-0.630216

>  <r_i_glide_evdw>  (234) 
-13.0157

>  <r_i_glide_ecoul>  (234) 
-5.21917

>  <r_i_glide_erotb>  (234) 
0.236865

>  <r_i_glide_esite>  (234) 
-0.048163

>  <r_i_glide_emodel>  (234) 
-18.4487

>  <r_i_glide_energy>  (234) 
-18.2349

>  <r_i_glide_einternal>  (234) 
7.15588

>  <r_i_glide_intrahb_reward>  (234) 
-0

>  <i_i_glide_confnum>  (234) 
3

>  <i_i_glide_posenum>  (234) 
4

>  <r_i_glide_eff_state_penalty>  (234) 
0

>  <ligand_id>  (234) 
69

>  <original_smiles>  (234) 
CN1CCC23CC2N(CC2CC2)CCC32C3CCC4(C3)Oc3c(O)ccc(c34)CC12

>  <smiles>  (234) 
[H]Oc1c([H])c([H])c2c3c1OC31C([H])([H])C([H])([H])C([H])(C1([H])[H])C13C([H])([H])C([H])([H])[N+]([H])(C([H])([H])C4([H])C([H])([H])C4([H])[H])C4([H])C([H])([H])C14C([H])([H])C([H])([H])N(C([H])([H])[H])C3([H])C2([H])[H]

$$$$
69:2:1
     RDKit          3D

 65 72  0  0  1  0  0  0  0  0999 V2000
    3.0432    0.8460    7.1504 C   0  0  0  0  0  0  0  0  0  0  0  0
    3.5746    1.3113    5.8759 N   0  0  0  0  0  0  0  0  0  0  0  0
    4.8898    0.7647    5.5924 C   0  0  0  0  0  0  0  0  0  0  0  0
    4.7573   -0.6805    5.1273 C   0  0  0  0  0  0  0  0  0  0  0  0
    3.9141   -0.8699    3.8606 C   0  0  2  0  0  0  0  0  0  0  0  0
    4.0030   -2.2882    3.2877 C   0  0  0  0  0  0  0  0  0  0  0  0
    4.7139   -1.1697    2.5814 C   0  0  1  0  0  0  0  0  0  0  0  0
    4.1317   -0.7623    1.2725 N   0  0  1  0  0  0  0  0  0  0  0  0
    4.6151   -1.6168    0.1610 C   0  0  0  0  0  0  0  0  0  0  0  0
    4.3570   -1.0213   -1.2166 C   0  0  0  0  0  0  0  0  0  0  0  0
    3.2103   -1.5217   -2.0644 C   0  0  0  0  0  0  0  0  0  0  0  0
    4.6218   -1.8481   -2.4543 C   0  0  0  0  0  0  0  0  0  0  0  0
    2.6680   -0.5688    1.2848 C   0  0  0  0  0  0  0  0  0  0  0  0
    2.3102    0.4288    2.3789 C   0  0  0  0  0  0  0  0  0  0  0  0
    2.5540   -0.0688    3.8415 C   0  0  1  0  0  0  0  0  0  0  0  0
    1.3230   -1.0258    4.1794 C   0  0  1  0  0  0  0  0  0  0  0  0
    1.3955   -1.7751    5.5218 C   0  0  0  0  0  0  0  0  0  0  0  0
    0.3574   -1.1291    6.4506 C   0  0  0  0  0  0  0  0  0  0  0  0
   -0.4198   -0.1205    5.6132 C   0  0  1  0  0  0  0  0  0  0  0  0
   -0.1317   -0.4745    4.1769 C   0  0  0  0  0  0  0  0  0  0  0  0
   -1.8238   -0.0155    6.1602 O   0  0  0  0  0  0  0  0  0  0  0  0
   -1.5564    1.2948    6.4873 C   0  0  0  0  0  0  0  0  0  0  0  0
   -2.0688    2.4744    7.0560 C   0  0  0  0  0  0  0  0  0  0  0  0
   -3.2845    2.5414    7.6697 O   0  0  0  0  0  0  0  0  0  0  0  0
   -1.2358    3.6253    6.9784 C   0  0  0  0  0  0  0  0  0  0  0  0
    0.0174    3.6246    6.2918 C   0  0  0  0  0  0  0  0  0  0  0  0
    0.5632    2.4509    5.7164 C   0  0  0  0  0  0  0  0  0  0  0  0
   -0.2484    1.3380    5.9176 C   0  0  0  0  0  0  0  0  0  0  0  0
    1.6428    2.3695    4.6587 C   0  0  0  0  0  0  0  0  0  0  0  0
    2.7246    1.2718    4.6824 C   0  0  1  0  0  0  0  0  0  0  0  0
    3.7172    1.1356    7.9549 H   0  0  0  0  0  0  0  0  0  0  0  0
    2.9467   -0.2316    7.1963 H   0  0  0  0  0  0  0  0  0  0  0  0
    2.0806    1.2907    7.3803 H   0  0  0  0  0  0  0  0  0  0  0  0
    5.3884    1.3593    4.8258 H   0  0  0  0  0  0  0  0  0  0  0  0
    5.5188    0.8309    6.4819 H   0  0  0  0  0  0  0  0  0  0  0  0
    5.7697   -1.0299    4.9206 H   0  0  0  0  0  0  0  0  0  0  0  0
    4.4069   -1.3194    5.9345 H   0  0  0  0  0  0  0  0  0  0  0  0
    4.6163   -2.9818    3.8591 H   0  0  0  0  0  0  0  0  0  0  0  0
    3.1353   -2.7495    2.8259 H   0  0  0  0  0  0  0  0  0  0  0  0
    5.8027   -1.1478    2.6012 H   0  0  0  0  0  0  0  0  0  0  0  0
    5.6923   -1.7385    0.2603 H   0  0  0  0  0  0  0  0  0  0  0  0
    4.1642   -2.6077    0.2228 H   0  0  0  0  0  0  0  0  0  0  0  0
    4.6129    0.0336   -1.3179 H   0  0  0  0  0  0  0  0  0  0  0  0
    2.5983   -2.3197   -1.6462 H   0  0  0  0  0  0  0  0  0  0  0  0
    2.6699   -0.7853   -2.6609 H   0  0  0  0  0  0  0  0  0  0  0  0
    5.0052   -1.3457   -3.3408 H   0  0  0  0  0  0  0  0  0  0  0  0
    4.9526   -2.8779   -2.3225 H   0  0  0  0  0  0  0  0  0  0  0  0
    2.3817   -0.0990    0.3517 H   0  0  0  0  0  0  0  0  0  0  0  0
    2.1047   -1.4995    1.3495 H   0  0  0  0  0  0  0  0  0  0  0  0
    2.8745    1.3394    2.1632 H   0  0  0  0  0  0  0  0  0  0  0  0
    1.2771    0.7244    2.2272 H   0  0  0  0  0  0  0  0  0  0  0  0
    1.3098   -1.7992    3.4148 H   0  0  0  0  0  0  0  0  0  0  0  0
    1.1196   -2.8209    5.3609 H   0  0  0  0  0  0  0  0  0  0  0  0
    2.3781   -1.8204    5.9666 H   0  0  0  0  0  0  0  0  0  0  0  0
   -0.3131   -1.9259    6.7780 H   0  0  0  0  0  0  0  0  0  0  0  0
    0.7720   -0.6989    7.3598 H   0  0  0  0  0  0  0  0  0  0  0  0
   -0.3767    0.3089    3.4609 H   0  0  0  0  0  0  0  0  0  0  0  0
   -0.7787   -1.3150    3.9187 H   0  0  0  0  0  0  0  0  0  0  0  0
   -3.4232    3.3511    8.1358 H   0  0  0  0  0  0  0  0  0  0  0  0
   -1.5816    4.5566    7.3982 H   0  0  0  0  0  0  0  0  0  0  0  0
    0.5344    4.5602    6.1543 H   0  0  0  0  0  0  0  0  0  0  0  0
    1.1880    2.4820    3.6771 H   0  0  0  0  0  0  0  0  0  0  0  0
    2.1909    3.3002    4.7906 H   0  0  0  0  0  0  0  0  0  0  0  0
    3.4417    1.7830    4.0392 H   0  0  0  0  0  0  0  0  0  0  0  0
    4.5045    0.1610    1.1026 H   0  0  0  0  0  0  0  0  0  0  0  0
  1  2  1  0
  1 31  1  0
  1 32  1  0
  1 33  1  0
  2 30  1  0
  2  3  1  0
  3  4  1  0
  3 34  1  0
  3 35  1  0
  5  4  1  1
  4 36  1  0
  4 37  1  0
  5  7  1  0
  5 15  1  0
  5  6  1  0
  6  7  1  0
  6 38  1  0
  6 39  1  0
  7  8  1  0
  7 40  1  1
  8  9  1  0
  8 13  1  0
  8 65  1  6
  9 10  1  0
  9 41  1  0
  9 42  1  0
 10 12  1  0
 10 11  1  0
 10 43  1  0
 11 12  1  0
 11 44  1  0
 11 45  1  0
 12 46  1  0
 12 47  1  0
 13 14  1  0
 13 48  1  0
 13 49  1  0
 15 14  1  6
 14 50  1  0
 14 51  1  0
 15 30  1  0
 15 16  1  0
 16 20  1  0
 16 17  1  0
 16 52  1  6
 17 18  1  0
 17 53  1  0
 17 54  1  0
 18 19  1  0
 18 55  1  0
 18 56  1  0
 19 28  1  0
 19 20  1  0
 19 21  1  6
 20 57  1  0
 20 58  1  0
 21 22  1  0
 22 28  2  0
 22 23  1  0
 23 24  1  0
 23 25  2  0
 24 59  1  0
 25 26  1  0
 25 60  1  0
 26 27  2  0
 26 61  1  0
 27 28  1  0
 27 29  1  0
 29 30  1  0
 29 62  1  0
 29 63  1  0
 30 64  1  6
M  CHG  1   8   1
M  END
>  <i_m_ct_stereo_status>  (235) 
1

>  <s_m_source_file>  (235) 
/var/tmp/pbs.5076255.sched01/tmpy0mqr2dw/78t3ouse6d.sdf

>  <i_m_source_file_index>  (235) 
17

>  <i_lp_mmshare_version>  (235) 
48012

>  <i_f3d_flags>  (235) 
0

>  <s_epik_input>  (235) 
W0NIMl0xW0NIMl1OKFtDSDNdKVtDQEBIXTJbQ0gyXWMzW2NIXVtjSF1jKFtPSF0pYyhPNCljM1tDQEBdNChbQ0gyXTUpW0NIMl1bQ0gyXVtDQEBIXTVbQ0BAXTIoW0NAQF0xNjcpW0NIMl1bQ0gyXU4oW0NAQEhdN1tDSDJdNilbQ0gyXVtDSF04W0NIMl1bQ0gyXTg=

>  <s_epik_cmdline>  (235) 
J2VwaWtfcHl0aG9uJywgJy1waHQnLCAnMi4wJywgJy1waCcsICc3LjAnLCAnLXRuJywgJzgnLCAnLW1hJywgJzIwMCcsICctaW1hZScsICc8aW5maWxlLm1hZT4nLCAnLW9tYWUnLCAnPG91dGZpbGUubWFlPic=

>  <r_epik_Ionization_Penalty>  (235) 
1.35181

>  <r_epik_Ionization_Penalty_Charging>  (235) 
0.0130569

>  <r_epik_Ionization_Penalty_Neutral>  (235) 
1.33875

>  <r_epik_State_Penalty>  (235) 
1.75091

>  <r_epik_Charging_Adjusted_Penalty>  (235) 
1.76397

>  <i_epik_Tot_Q>  (235) 
1

>  <i_epik_Tot_abs_Q>  (235) 
1

>  <s_lp_Force_Field>  (235) 
OPLS3e

>  <r_lp_Energy>  (235) 
88.5276

>  <b_lp_Chiralities_Consistent>  (235) 
1

>  <s_lp_Variant>  (235) 
69:0-3

>  <s_i_glide_gridfile>  (235) 
pfpi4k_grid

>  <i_i_glide_lignum>  (235) 
17

>  <i_i_glide_rotatable_bonds>  (235) 
3

>  <r_i_docking_score>  (235) 
-2.70616

>  <r_i_glide_ligand_efficiency>  (235) 
-0.0902054

>  <r_i_glide_ligand_efficiency_sa>  (235) 
-0.280289

>  <r_i_glide_ligand_efficiency_ln>  (235) 
-0.61487

>  <r_i_glide_gscore>  (235) 
-2.70616

>  <r_i_glide_lipo>  (235) 
-0.193974

>  <r_i_glide_hbond>  (235) 
-0.16

>  <r_i_glide_metal>  (235) 
-0

>  <r_i_glide_rewards>  (235) 
-0.630216

>  <r_i_glide_evdw>  (235) 
-19.8301

>  <r_i_glide_ecoul>  (235) 
-6.44887

>  <r_i_glide_erotb>  (235) 
0.236865

>  <r_i_glide_esite>  (235) 
0

>  <r_i_glide_emodel>  (235) 
-30.9481

>  <r_i_glide_energy>  (235) 
-26.279

>  <r_i_glide_einternal>  (235) 
0.0832949

>  <r_i_glide_intrahb_reward>  (235) 
-0

>  <i_i_glide_confnum>  (235) 
1

>  <i_i_glide_posenum>  (235) 
2

>  <r_i_glide_eff_state_penalty>  (235) 
0

>  <ligand_id>  (235) 
69

>  <original_smiles>  (235) 
CN1CCC23CC2N(CC2CC2)CCC32C3CCC4(C3)Oc3c(O)ccc(c34)CC12

>  <smiles>  (235) 
[H]Oc1c([H])c([H])c2c3c1OC31C([H])([H])C([H])([H])C([H])(C1([H])[H])C13C([H])([H])C([H])([H])[N+]([H])(C([H])([H])C4([H])C([H])([H])C4([H])[H])C4([H])C([H])([H])C14C([H])([H])C([H])([H])N(C([H])([H])[H])C3([H])C2([H])[H]

$$$$
69:2:2
     RDKit          3D

 65 72  0  0  1  0  0  0  0  0999 V2000
    6.6319   -7.4734    1.5471 C   0  0  0  0  0  0  0  0  0  0  0  0
    5.3802   -8.0164    1.0406 N   0  0  0  0  0  0  0  0  0  0  0  0
    5.1524   -9.3920    1.4553 C   0  0  0  0  0  0  0  0  0  0  0  0
    4.7091   -9.4313    2.9103 C   0  0  0  0  0  0  0  0  0  0  0  0
    3.4252   -8.6467    3.2079 C   0  0  2  0  0  0  0  0  0  0  0  0
    2.8873   -8.8958    4.6129 C   0  0  0  0  0  0  0  0  0  0  0  0
    2.1642   -9.5175    3.4357 C   0  0  1  0  0  0  0  0  0  0  0  0
    0.8482   -8.9173    3.0893 N   0  0  1  0  0  0  0  0  0  0  0  0
   -0.2648   -9.5290    3.8693 C   0  0  0  0  0  0  0  0  0  0  0  0
   -1.6619   -9.0329    3.4881 C   0  0  0  0  0  0  0  0  0  0  0  0
   -1.8995   -8.1718    2.2918 C   0  0  0  0  0  0  0  0  0  0  0  0
   -2.0198   -7.5760    3.6851 C   0  0  0  0  0  0  0  0  0  0  0  0
    0.8793   -7.4276    3.0875 C   0  0  0  0  0  0  0  0  0  0  0  0
    1.8861   -6.9563    2.0827 C   0  0  0  0  0  0  0  0  0  0  0  0
    3.3464   -7.2039    2.5392 C   0  0  1  0  0  0  0  0  0  0  0  0
    3.6335   -6.0559    3.6186 C   0  0  1  0  0  0  0  0  0  0  0  0
    4.9753   -6.1533    4.3516 C   0  0  0  0  0  0  0  0  0  0  0  0
    5.8478   -5.0174    3.8116 C   0  0  0  0  0  0  0  0  0  0  0  0
    4.9672   -4.1760    2.8835 C   0  0  1  0  0  0  0  0  0  0  0  0
    3.5529   -4.5493    3.2319 C   0  0  0  0  0  0  0  0  0  0  0  0
    5.4444   -2.7462    2.8789 O   0  0  0  0  0  0  0  0  0  0  0  0
    5.7698   -2.8767    1.5468 C   0  0  0  0  0  0  0  0  0  0  0  0
    6.3165   -2.2557    0.4161 C   0  0  0  0  0  0  0  0  0  0  0  0
    6.8928   -1.0339    0.4861 O   0  0  0  0  0  0  0  0  0  0  0  0
    6.2348   -2.9568   -0.8169 C   0  0  0  0  0  0  0  0  0  0  0  0
    5.5756   -4.2138   -0.9170 C   0  0  0  0  0  0  0  0  0  0  0  0
    5.0606   -4.8819    0.2153 C   0  0  0  0  0  0  0  0  0  0  0  0
    5.2441   -4.1909    1.4045 C   0  0  0  0  0  0  0  0  0  0  0  0
    4.0778   -6.0221    0.1756 C   0  0  0  0  0  0  0  0  0  0  0  0
    4.1642   -7.2047    1.1715 C   0  0  1  0  0  0  0  0  0  0  0  0
    7.4604   -8.0813    1.1861 H   0  0  0  0  0  0  0  0  0  0  0  0
    6.6775   -7.4815    2.6311 H   0  0  0  0  0  0  0  0  0  0  0  0
    6.8033   -6.4590    1.1932 H   0  0  0  0  0  0  0  0  0  0  0  0
    4.3957   -9.8478    0.8156 H   0  0  0  0  0  0  0  0  0  0  0  0
    6.0610   -9.9784    1.3176 H   0  0  0  0  0  0  0  0  0  0  0  0
    4.5417  -10.4781    3.1654 H   0  0  0  0  0  0  0  0  0  0  0  0
    5.5053   -9.1218    3.5766 H   0  0  0  0  0  0  0  0  0  0  0  0
    3.4949   -9.5513    5.2373 H   0  0  0  0  0  0  0  0  0  0  0  0
    2.4072   -8.1075    5.1778 H   0  0  0  0  0  0  0  0  0  0  0  0
    2.2214  -10.6079    3.3158 H   0  0  0  0  0  0  0  0  0  0  0  0
   -0.2364  -10.6240    3.7267 H   0  0  0  0  0  0  0  0  0  0  0  0
   -0.0910   -9.3772    4.9413 H   0  0  0  0  0  0  0  0  0  0  0  0
   -2.4699   -9.7252    3.6767 H   0  0  0  0  0  0  0  0  0  0  0  0
   -1.0353   -8.0650    1.6242 H   0  0  0  0  0  0  0  0  0  0  0  0
   -2.8497   -8.3238    1.8113 H   0  0  0  0  0  0  0  0  0  0  0  0
   -3.0093   -7.3233    3.9899 H   0  0  0  0  0  0  0  0  0  0  0  0
   -1.2635   -6.9837    4.1675 H   0  0  0  0  0  0  0  0  0  0  0  0
   -0.0018   -6.9226    2.6789 H   0  0  0  0  0  0  0  0  0  0  0  0
    0.9501   -7.0293    4.0913 H   0  0  0  0  0  0  0  0  0  0  0  0
    1.6430   -7.4606    1.1467 H   0  0  0  0  0  0  0  0  0  0  0  0
    1.6861   -5.9105    1.8479 H   0  0  0  0  0  0  0  0  0  0  0  0
    2.8733   -6.1600    4.3852 H   0  0  0  0  0  0  0  0  0  0  0  0
    4.8046   -6.0106    5.4188 H   0  0  0  0  0  0  0  0  0  0  0  0
    5.4490   -7.1180    4.2743 H   0  0  0  0  0  0  0  0  0  0  0  0
    6.1706   -4.4174    4.6656 H   0  0  0  0  0  0  0  0  0  0  0  0
    6.7592   -5.3632    3.3348 H   0  0  0  0  0  0  0  0  0  0  0  0
    2.8277   -4.2662    2.4734 H   0  0  0  0  0  0  0  0  0  0  0  0
    3.2684   -3.9935    4.1321 H   0  0  0  0  0  0  0  0  0  0  0  0
    6.8901   -0.6718    1.3632 H   0  0  0  0  0  0  0  0  0  0  0  0
    6.6455   -2.5191   -1.7081 H   0  0  0  0  0  0  0  0  0  0  0  0
    5.4377   -4.6472   -1.8997 H   0  0  0  0  0  0  0  0  0  0  0  0
    3.0692   -5.6145    0.0896 H   0  0  0  0  0  0  0  0  0  0  0  0
    4.2547   -6.4708   -0.8082 H   0  0  0  0  0  0  0  0  0  0  0  0
    3.5357   -7.8854    0.5936 H   0  0  0  0  0  0  0  0  0  0  0  0
    0.6788   -9.2315    2.1420 H   0  0  0  0  0  0  0  0  0  0  0  0
  1  2  1  0
  1 31  1  0
  1 32  1  0
  1 33  1  0
  2 30  1  0
  2  3  1  0
  3  4  1  0
  3 34  1  0
  3 35  1  0
  5  4  1  1
  4 36  1  0
  4 37  1  0
  5  7  1  0
  5 15  1  0
  5  6  1  0
  6  7  1  0
  6 38  1  0
  6 39  1  0
  7  8  1  0
  7 40  1  1
  8  9  1  0
  8 13  1  0
  8 65  1  6
  9 10  1  0
  9 41  1  0
  9 42  1  0
 10 12  1  0
 10 11  1  0
 10 43  1  0
 11 12  1  0
 11 44  1  0
 11 45  1  0
 12 46  1  0
 12 47  1  0
 13 14  1  0
 13 48  1  0
 13 49  1  0
 15 14  1  6
 14 50  1  0
 14 51  1  0
 15 30  1  0
 15 16  1  0
 16 20  1  0
 16 17  1  0
 16 52  1  1
 17 18  1  0
 17 53  1  0
 17 54  1  0
 18 19  1  0
 18 55  1  0
 18 56  1  0
 19 28  1  0
 19 20  1  0
 19 21  1  1
 20 57  1  0
 20 58  1  0
 21 22  1  0
 22 28  2  0
 22 23  1  0
 23 24  1  0
 23 25  2  0
 24 59  1  0
 25 26  1  0
 25 60  1  0
 26 27  2  0
 26 61  1  0
 27 28  1  0
 27 29  1  0
 29 30  1  0
 29 62  1  0
 29 63  1  0
 30 64  1  6
M  CHG  1   8   1
M  END
>  <i_m_ct_stereo_status>  (236) 
1

>  <s_m_source_file>  (236) 
/var/tmp/pbs.5076255.sched01/tmpy0mqr2dw/78t3ouse6d.sdf

>  <i_m_source_file_index>  (236) 
17

>  <i_lp_mmshare_version>  (236) 
48012

>  <i_f3d_flags>  (236) 
0

>  <s_epik_input>  (236) 
W0NIMl0xW0NIMl1OKFtDSDNdKVtDQEBIXTJbQ0gyXWMzW2NIXVtjSF1jKFtPSF0pYyhPNCljM1tDQEBdNChbQ0gyXTUpW0NIMl1bQ0gyXVtDQEBIXTVbQ0BAXTIoW0NAQF0xNjcpW0NIMl1bQ0gyXU4oW0NAQEhdN1tDSDJdNilbQ0gyXVtDSF04W0NIMl1bQ0gyXTg=

>  <s_epik_cmdline>  (236) 
J2VwaWtfcHl0aG9uJywgJy1waHQnLCAnMi4wJywgJy1waCcsICc3LjAnLCAnLXRuJywgJzgnLCAnLW1hJywgJzIwMCcsICctaW1hZScsICc8aW5maWxlLm1hZT4nLCAnLW9tYWUnLCAnPG91dGZpbGUubWFlPic=

>  <r_epik_Ionization_Penalty>  (236) 
1.35181

>  <r_epik_Ionization_Penalty_Charging>  (236) 
0.0130569

>  <r_epik_Ionization_Penalty_Neutral>  (236) 
1.33875

>  <r_epik_State_Penalty>  (236) 
1.75091

>  <r_epik_Charging_Adjusted_Penalty>  (236) 
1.76397

>  <i_epik_Tot_Q>  (236) 
1

>  <i_epik_Tot_abs_Q>  (236) 
1

>  <s_lp_Force_Field>  (236) 
OPLS3e

>  <r_lp_Energy>  (236) 
88.5276

>  <b_lp_Chiralities_Consistent>  (236) 
1

>  <s_lp_Variant>  (236) 
69:0-3

>  <s_i_glide_gridfile>  (236) 
pfpi4k_grid

>  <i_i_glide_lignum>  (236) 
17

>  <i_i_glide_rotatable_bonds>  (236) 
3

>  <r_i_docking_score>  (236) 
-2.61763

>  <r_i_glide_ligand_efficiency>  (236) 
-0.0872545

>  <r_i_glide_ligand_efficiency_sa>  (236) 
-0.27112

>  <r_i_glide_ligand_efficiency_ln>  (236) 
-0.594755

>  <r_i_glide_gscore>  (236) 
-2.61763

>  <r_i_glide_lipo>  (236) 
-0.685655

>  <r_i_glide_hbond>  (236) 
0

>  <r_i_glide_metal>  (236) 
-0

>  <r_i_glide_rewards>  (236) 
-0.630216

>  <r_i_glide_evdw>  (236) 
-18.7169

>  <r_i_glide_ecoul>  (236) 
-5.78977

>  <r_i_glide_erotb>  (236) 
0.236865

>  <r_i_glide_esite>  (236) 
-0.0156589

>  <r_i_glide_emodel>  (236) 
-19.1703

>  <r_i_glide_energy>  (236) 
-24.5067

>  <r_i_glide_einternal>  (236) 
11.2876

>  <r_i_glide_intrahb_reward>  (236) 
-0

>  <i_i_glide_confnum>  (236) 
2

>  <i_i_glide_posenum>  (236) 
1

>  <r_i_glide_eff_state_penalty>  (236) 
0

>  <ligand_id>  (236) 
69

>  <original_smiles>  (236) 
CN1CCC23CC2N(CC2CC2)CCC32C3CCC4(C3)Oc3c(O)ccc(c34)CC12

>  <smiles>  (236) 
[H]Oc1c([H])c([H])c2c3c1OC31C([H])([H])C([H])([H])C([H])(C1([H])[H])C13C([H])([H])C([H])([H])[N+]([H])(C([H])([H])C4([H])C([H])([H])C4([H])[H])C4([H])C([H])([H])C14C([H])([H])C([H])([H])N(C([H])([H])[H])C3([H])C2([H])[H]

$$$$
71:0:0
     RDKit          3D

 84 88  0  0  1  0  0  0  0  0999 V2000
    6.4446   -4.6814    5.4243 C   0  0  0  0  0  0  0  0  0  0  0  0
    5.3314   -4.8762    4.5238 O   0  0  0  0  0  0  0  0  0  0  0  0
    4.3408   -3.8393    4.4128 C   0  0  2  0  0  0  0  0  0  0  0  0
    3.9529   -3.3870    5.8474 C   0  0  0  0  0  0  0  0  0  0  0  0
    2.4946   -3.8028    6.0531 C   0  0  0  0  0  0  0  0  0  0  0  0
    2.0548   -4.6071    4.8059 C   0  0  1  0  0  0  0  0  0  0  0  0
    1.9510   -6.0973    5.2539 C   0  0  0  0  0  0  0  0  0  0  0  0
    0.7255   -4.2449    4.5021 O   0  0  0  0  0  0  0  0  0  0  0  0
    3.0548   -4.2433    3.6238 C   0  0  2  0  0  0  0  0  0  0  0  0
    3.1575   -5.3896    2.5041 C   0  0  1  0  0  0  0  0  0  0  0  0
    1.8835   -6.0379    2.3711 O   0  0  0  0  0  0  0  0  0  0  0  0
    1.6759   -7.3796    2.1741 C   0  0  0  0  0  0  0  0  0  0  0  0
    2.9184   -8.2886    2.0906 C   0  0  0  0  0  0  0  0  0  0  0  0
    0.5536   -7.8420    2.0878 O   0  0  0  0  0  0  0  0  0  0  0  0
    3.6921   -5.2440    0.9753 C   0  0  1  0  0  0  0  0  0  0  0  0
    2.5782   -5.1885    0.0890 O   0  0  0  0  0  0  0  0  0  0  0  0
    4.9314   -4.4055    0.3679 C   0  0  1  0  0  0  0  0  0  0  0  0
    4.6422   -3.4621   -0.9030 C   0  0  2  0  0  0  0  0  0  0  0  0
    5.0146   -4.1705   -2.2289 C   0  0  0  0  0  0  0  0  0  0  0  0
    4.3787   -3.5728   -3.5081 C   0  0  1  0  0  0  0  0  0  0  0  0
    2.9974   -3.7892   -3.6354 O   0  0  0  0  0  0  0  0  0  0  0  0
    4.7264   -2.1020   -3.5293 C   0  0  1  0  0  0  0  0  0  0  0  0
    4.1977   -1.4242   -4.6681 O   0  0  0  0  0  0  0  0  0  0  0  0
    4.4027   -1.3202   -2.2444 C   0  0  1  0  0  0  0  0  0  0  0  0
    2.8857   -1.1755   -2.1814 C   0  0  0  0  0  0  0  0  0  0  0  0
    5.0932   -1.9571   -0.9808 C   0  0  2  0  0  0  0  0  0  0  0  0
    6.4741   -1.8758   -1.3075 O   0  0  0  0  0  0  0  0  0  0  0  0
    4.9007   -1.1803    0.3385 C   0  0  0  0  0  0  0  0  0  0  0  0
    4.0791   -0.2663    0.4780 O   0  0  0  0  0  0  0  0  0  0  0  0
    5.8395   -1.4577    1.5091 C   0  0  0  0  0  0  0  0  0  0  0  0
    5.7360   -2.8255    2.2474 C   0  0  1  0  0  0  0  0  0  0  0  0
    4.5756   -2.7900    3.2976 C   0  0  1  0  0  0  0  0  0  0  0  0
    3.0190   -2.7561    3.0768 C   0  0  0  0  0  0  0  0  0  0  0  0
    2.3289   -2.5843    1.7313 C   0  0  0  0  0  0  0  0  0  0  0  0
    2.2803   -1.6284    3.8430 C   0  0  0  0  0  0  0  0  0  0  0  0
    6.0848   -4.0824    1.3496 C   0  0  0  0  0  0  0  0  0  0  0  0
    6.4673   -5.4085    2.0759 C   0  0  0  0  0  0  0  0  0  0  0  0
    7.4533   -3.8680    0.6202 C   0  0  0  0  0  0  0  0  0  0  0  0
    7.3441   -5.2076    5.0999 H   0  0  0  0  0  0  0  0  0  0  0  0
    6.1960   -5.0930    6.4084 H   0  0  0  0  0  0  0  0  0  0  0  0
    6.7120   -3.6288    5.5670 H   0  0  0  0  0  0  0  0  0  0  0  0
    4.4905   -3.8828    6.6536 H   0  0  0  0  0  0  0  0  0  0  0  0
    4.1026   -2.3129    6.0116 H   0  0  0  0  0  0  0  0  0  0  0  0
    2.4259   -4.3959    6.9676 H   0  0  0  0  0  0  0  0  0  0  0  0
    1.8506   -2.9351    6.2312 H   0  0  0  0  0  0  0  0  0  0  0  0
    2.9090   -6.6162    5.2762 H   0  0  0  0  0  0  0  0  0  0  0  0
    1.2442   -6.6772    4.6671 H   0  0  0  0  0  0  0  0  0  0  0  0
    1.5181   -6.1738    6.2520 H   0  0  0  0  0  0  0  0  0  0  0  0
    0.4482   -4.7777    3.7823 H   0  0  0  0  0  0  0  0  0  0  0  0
    3.7931   -6.1245    2.9694 H   0  0  0  0  0  0  0  0  0  0  0  0
    3.5231   -8.0583    1.2304 H   0  0  0  0  0  0  0  0  0  0  0  0
    2.6302   -9.3454    2.0402 H   0  0  0  0  0  0  0  0  0  0  0  0
    3.5170   -8.1926    2.9949 H   0  0  0  0  0  0  0  0  0  0  0  0
    4.0161   -6.2469    0.8239 H   0  0  0  0  0  0  0  0  0  0  0  0
    2.8782   -5.4517   -0.7766 H   0  0  0  0  0  0  0  0  0  0  0  0
    5.4358   -5.2054   -0.1643 H   0  0  0  0  0  0  0  0  0  0  0  0
    3.5670   -3.4016   -0.9747 H   0  0  0  0  0  0  0  0  0  0  0  0
    6.0991   -4.1021   -2.3530 H   0  0  0  0  0  0  0  0  0  0  0  0
    4.7768   -5.2196   -2.1438 H   0  0  0  0  0  0  0  0  0  0  0  0
    4.8628   -4.0355   -4.3700 H   0  0  0  0  0  0  0  0  0  0  0  0
    2.8283   -4.6278   -3.2225 H   0  0  0  0  0  0  0  0  0  0  0  0
    5.7992   -2.2636   -3.5755 H   0  0  0  0  0  0  0  0  0  0  0  0
    3.2532   -1.3547   -4.5671 H   0  0  0  0  0  0  0  0  0  0  0  0
    4.8021   -0.3102   -2.3499 H   0  0  0  0  0  0  0  0  0  0  0  0
    2.3372   -2.0989   -2.0187 H   0  0  0  0  0  0  0  0  0  0  0  0
    2.4942   -0.6440   -3.0528 H   0  0  0  0  0  0  0  0  0  0  0  0
    2.6230   -0.6589   -1.2921 H   0  0  0  0  0  0  0  0  0  0  0  0
    6.6305   -2.4544   -2.0311 H   0  0  0  0  0  0  0  0  0  0  0  0
    6.8536   -1.2457    1.1787 H   0  0  0  0  0  0  0  0  0  0  0  0
    5.6476   -0.6836    2.2430 H   0  0  0  0  0  0  0  0  0  0  0  0
    6.6038   -2.7329    2.8746 H   0  0  0  0  0  0  0  0  0  0  0  0
    4.7716   -1.8669    3.8369 H   0  0  0  0  0  0  0  0  0  0  0  0
    2.0080   -1.5630    1.4916 H   0  0  0  0  0  0  0  0  0  0  0  0
    1.4420   -3.2138    1.7279 H   0  0  0  0  0  0  0  0  0  0  0  0
    2.9513   -2.8535    0.9108 H   0  0  0  0  0  0  0  0  0  0  0  0
    2.3838   -0.6639    3.3376 H   0  0  0  0  0  0  0  0  0  0  0  0
    2.6439   -1.4287    4.8405 H   0  0  0  0  0  0  0  0  0  0  0  0
    1.2065   -1.8270    3.9166 H   0  0  0  0  0  0  0  0  0  0  0  0
    7.2041   -5.2360    2.8542 H   0  0  0  0  0  0  0  0  0  0  0  0
    6.9290   -6.1228    1.3906 H   0  0  0  0  0  0  0  0  0  0  0  0
    5.6693   -5.9756    2.5174 H   0  0  0  0  0  0  0  0  0  0  0  0
    8.2982   -4.2222    1.2152 H   0  0  0  0  0  0  0  0  0  0  0  0
    7.7318   -2.8445    0.4234 H   0  0  0  0  0  0  0  0  0  0  0  0
    7.5065   -4.4116   -0.3229 H   0  0  0  0  0  0  0  0  0  0  0  0
  1  2  1  0
  1 39  1  0
  1 40  1  0
  1 41  1  0
  3  2  1  1
  3  9  1  0
  3 32  1  0
  3  4  1  0
  4  5  1  0
  4 42  1  0
  4 43  1  0
  5  6  1  0
  5 44  1  0
  5 45  1  0
  6  7  1  0
  6  8  1  6
  6  9  1  0
  7 46  1  0
  7 47  1  0
  7 48  1  0
  8 49  1  0
  9 33  1  6
  9 10  1  0
 10 11  1  0
 10 15  1  0
 10 50  1  1
 11 12  1  0
 12 13  1  0
 12 14  2  0
 13 51  1  0
 13 52  1  0
 13 53  1  0
 15 16  1  0
 15 17  1  0
 15 54  1  6
 16 55  1  0
 17 36  1  0
 17 18  1  0
 17 56  1  6
 18 26  1  0
 18 19  1  0
 18 57  1  6
 19 20  1  0
 19 58  1  0
 19 59  1  0
 20 21  1  0
 20 22  1  0
 20 60  1  6
 21 61  1  0
 22 23  1  0
 22 24  1  0
 22 62  1  6
 23 63  1  0
 24 25  1  0
 24 26  1  0
 24 64  1  6
 25 65  1  0
 25 66  1  0
 25 67  1  0
 26 27  1  6
 26 28  1  0
 27 68  1  0
 28 29  2  0
 28 30  1  0
 30 31  1  0
 30 69  1  0
 30 70  1  0
 31 32  1  0
 31 36  1  0
 31 71  1  1
 32 33  1  0
 32 72  1  1
 33 34  1  0
 33 35  1  0
 34 73  1  0
 34 74  1  0
 34 75  1  0
 35 76  1  0
 35 77  1  0
 35 78  1  0
 36 37  1  0
 36 38  1  0
 37 79  1  0
 37 80  1  0
 37 81  1  0
 38 82  1  0
 38 83  1  0
 38 84  1  0
M  END
>  <i_m_ct_stereo_status>  (237) 
1

>  <s_m_source_file>  (237) 
/var/tmp/pbs.5076255.sched01/tmpy0mqr2dw/78t3ouse6d.sdf

>  <i_m_source_file_index>  (237) 
19

>  <i_lp_mmshare_version>  (237) 
48012

>  <i_f3d_flags>  (237) 
0

>  <s_epik_input>  (237) 
W0NIM11bQ0BAXTEoW09IXSlbQ0gyXVtDSDJdW0NAXShbQ0BdMTIzKShPW0NIM10pW0NASF0oQzMoW0NIM10pW0NIM10pW0NAQEhdNFtDSDJdQyg9TylbQ0BAXTUoW09IXSlbQ0BASF0oW0NIMl1bQ0BASF0oW09IXSlbQ0BASF0oW09IXSlbQ0BIXTVbQ0gzXSlbQ0BASF0oQzQoW0NIM10pW0NIM10pW0NASF0oW09IXSlbQ0BASF0yT0MoPU8pW0NIM10=

>  <s_epik_cmdline>  (237) 
J2VwaWtfcHl0aG9uJywgJy1waHQnLCAnMi4wJywgJy1waCcsICc3LjAnLCAnLXRuJywgJzgnLCAnLW1hJywgJzIwMCcsICctaW1hZScsICc8aW5maWxlLm1hZT4nLCAnLW9tYWUnLCAnPG91dGZpbGUubWFlPic=

>  <r_lp_tautomer_probability>  (237) 
1

>  <r_epik_Ionization_Penalty>  (237) 
6.34816e-07

>  <r_epik_Ionization_Penalty_Charging>  (237) 
0

>  <r_epik_Ionization_Penalty_Neutral>  (237) 
6.34816e-07

>  <r_epik_State_Penalty>  (237) 
-0

>  <r_epik_Charging_Adjusted_Penalty>  (237) 
0

>  <i_epik_Tot_Q>  (237) 
0

>  <i_epik_Tot_abs_Q>  (237) 
0

>  <s_epik_Chemistry_Notes>  (237) 
This compound has an ester and may undergo hydrolysis at high or low pH.

>  <s_lp_Force_Field>  (237) 
OPLS3e

>  <r_lp_Energy>  (237) 
164.614

>  <b_lp_Chiralities_Consistent>  (237) 
1

>  <s_lp_Variant>  (237) 
71:0-1

>  <s_i_glide_gridfile>  (237) 
pfpi4k_grid

>  <i_i_glide_lignum>  (237) 
19

>  <i_i_glide_rotatable_bonds>  (237) 
8

>  <r_i_docking_score>  (237) 
-4.38039

>  <r_i_glide_ligand_efficiency>  (237) 
-0.115273

>  <r_i_glide_ligand_efficiency_sa>  (237) 
-0.387546

>  <r_i_glide_ligand_efficiency_ln>  (237) 
-0.944541

>  <r_i_glide_gscore>  (237) 
-4.38039

>  <r_i_glide_lipo>  (237) 
-0.753987

>  <r_i_glide_hbond>  (237) 
0

>  <r_i_glide_metal>  (237) 
-0

>  <r_i_glide_rewards>  (237) 
-0.570494

>  <r_i_glide_evdw>  (237) 
-16.2883

>  <r_i_glide_ecoul>  (237) 
-15.1246

>  <r_i_glide_erotb>  (237) 
0.0498499

>  <r_i_glide_esite>  (237) 
-0.0226589

>  <r_i_glide_emodel>  (237) 
-38.8173

>  <r_i_glide_energy>  (237) 
-31.4129

>  <r_i_glide_einternal>  (237) 
12.9702

>  <r_i_glide_intrahb_reward>  (237) 
-0.5

>  <i_i_glide_confnum>  (237) 
3

>  <i_i_glide_posenum>  (237) 
13

>  <r_i_glide_eff_state_penalty>  (237) 
0

>  <ligand_id>  (237) 
71

>  <original_smiles>  (237) 
COC12CCC(C)(O)C13C(OC(C)=O)C(O)C1C4CC(O)C(O)C(C)C4(O)C(=O)CC(C2C3(C)C)C1(C)C

>  <smiles>  (237) 
[H]OC1([H])C([H])([H])C2([H])C(O[H])(C(=O)C([H])([H])C3([H])C4([H])C5(OC([H])([H])[H])C([H])([H])C([H])([H])C(O[H])(C([H])([H])[H])C5(C([H])(OC(=O)C([H])([H])[H])C([H])(O[H])C2([H])C3(C([H])([H])[H])C([H])([H])[H])C4(C([H])([H])[H])C([H])([H])[H])C([H])(C([H])([H])[H])C1([H])O[H]

$$$$
71:0:1
     RDKit          3D

 84 88  0  0  1  0  0  0  0  0999 V2000
    5.7815   -5.7624    5.6148 C   0  0  0  0  0  0  0  0  0  0  0  0
    4.6235   -5.9223    4.7629 O   0  0  0  0  0  0  0  0  0  0  0  0
    3.6881   -4.8385    4.7319 C   0  0  2  0  0  0  0  0  0  0  0  0
    3.2150   -4.6199    6.1795 C   0  0  0  0  0  0  0  0  0  0  0  0
    1.7235   -4.9252    6.2364 C   0  0  0  0  0  0  0  0  0  0  0  0
    1.3326   -5.4861    4.8512 C   0  0  1  0  0  0  0  0  0  0  0  0
    1.0446   -6.9997    5.0789 C   0  0  0  0  0  0  0  0  0  0  0  0
    0.0759   -4.9689    4.5433 O   0  0  0  0  0  0  0  0  0  0  0  0
    2.4442   -5.0151    3.8095 C   0  0  2  0  0  0  0  0  0  0  0  0
    2.5310   -5.9693    2.5189 C   0  0  1  0  0  0  0  0  0  0  0  0
    1.2155   -6.4723    2.2180 O   0  0  0  0  0  0  0  0  0  0  0  0
    0.9042   -7.8007    2.0256 C   0  0  0  0  0  0  0  0  0  0  0  0
    2.0922   -8.7678    1.9002 C   0  0  0  0  0  0  0  0  0  0  0  0
   -0.2406   -8.1966    2.0069 O   0  0  0  0  0  0  0  0  0  0  0  0
    3.2132   -5.6552    1.0737 C   0  0  1  0  0  0  0  0  0  0  0  0
    2.2109   -5.4032    0.0781 O   0  0  0  0  0  0  0  0  0  0  0  0
    4.5657   -4.8482    0.7183 C   0  0  1  0  0  0  0  0  0  0  0  0
    4.4974   -3.6996   -0.4012 C   0  0  2  0  0  0  0  0  0  0  0  0
    4.9592   -4.2364   -1.7908 C   0  0  0  0  0  0  0  0  0  0  0  0
    4.4990   -3.3530   -2.9746 C   0  0  1  0  0  0  0  0  0  0  0  0
    3.1140   -3.4687   -3.2210 O   0  0  0  0  0  0  0  0  0  0  0  0
    4.9161   -1.8864   -2.7454 C   0  0  1  0  0  0  0  0  0  0  0  0
    4.4979   -1.0647   -3.8225 O   0  0  0  0  0  0  0  0  0  0  0  0
    4.5370   -1.3121   -1.3631 C   0  0  1  0  0  0  0  0  0  0  0  0
    3.0069   -1.0655   -1.3694 C   0  0  0  0  0  0  0  0  0  0  0  0
    5.0512   -2.2262   -0.1921 C   0  0  2  0  0  0  0  0  0  0  0  0
    6.4459   -2.1802   -0.3856 O   0  0  0  0  0  0  0  0  0  0  0  0
    4.7867   -1.6576    1.2282 C   0  0  0  0  0  0  0  0  0  0  0  0
    4.0238   -0.7069    1.4484 O   0  0  0  0  0  0  0  0  0  0  0  0
    5.5890   -2.1867    2.4071 C   0  0  0  0  0  0  0  0  0  0  0  0
    5.3292   -3.6461    2.8913 C   0  0  1  0  0  0  0  0  0  0  0  0
    4.0956   -3.6493    3.8498 C   0  0  1  0  0  0  0  0  0  0  0  0
    2.5842   -3.4611    3.5265 C   0  0  0  0  0  0  0  0  0  0  0  0
    2.0408   -3.0406    2.1807 C   0  0  0  0  0  0  0  0  0  0  0  0
    1.8314   -2.4104    4.3913 C   0  0  0  0  0  0  0  0  0  0  0  0
    5.6545   -4.7751    1.8231 C   0  0  0  0  0  0  0  0  0  0  0  0
    5.8848   -6.2249    2.3432 C   0  0  0  0  0  0  0  0  0  0  0  0
    7.0935   -4.5503    1.2373 C   0  0  0  0  0  0  0  0  0  0  0  0
    6.5786   -6.4366    5.3071 H   0  0  0  0  0  0  0  0  0  0  0  0
    5.5782   -6.0470    6.6471 H   0  0  0  0  0  0  0  0  0  0  0  0
    6.1882   -4.7459    5.6148 H   0  0  0  0  0  0  0  0  0  0  0  0
    3.6661   -5.2955    6.8962 H   0  0  0  0  0  0  0  0  0  0  0  0
    3.4414   -3.6132    6.5437 H   0  0  0  0  0  0  0  0  0  0  0  0
    1.5305   -5.6291    7.0450 H   0  0  0  0  0  0  0  0  0  0  0  0
    1.1480   -4.0390    6.4926 H   0  0  0  0  0  0  0  0  0  0  0  0
    1.9409   -7.6203    5.0382 H   0  0  0  0  0  0  0  0  0  0  0  0
    0.2889   -7.3950    4.4112 H   0  0  0  0  0  0  0  0  0  0  0  0
    0.5552   -7.1817    6.0336 H   0  0  0  0  0  0  0  0  0  0  0  0
   -0.1954   -5.3999    3.7392 H   0  0  0  0  0  0  0  0  0  0  0  0
    3.0782   -6.8016    2.9212 H   0  0  0  0  0  0  0  0  0  0  0  0
    2.6678   -8.5433    1.0058 H   0  0  0  0  0  0  0  0  0  0  0  0
    1.7515   -9.7978    1.8163 H   0  0  0  0  0  0  0  0  0  0  0  0
    2.7361   -8.7092    2.7746 H   0  0  0  0  0  0  0  0  0  0  0  0
    3.4999   -6.6628    0.7744 H   0  0  0  0  0  0  0  0  0  0  0  0
    2.6038   -5.4902   -0.7769 H   0  0  0  0  0  0  0  0  0  0  0  0
    5.0428   -5.6210    0.1189 H   0  0  0  0  0  0  0  0  0  0  0  0
    3.4402   -3.5431   -0.5504 H   0  0  0  0  0  0  0  0  0  0  0  0
    6.0576   -4.1887   -1.7926 H   0  0  0  0  0  0  0  0  0  0  0  0
    4.6493   -5.2649   -1.9323 H   0  0  0  0  0  0  0  0  0  0  0  0
    4.9854   -3.7106   -3.8809 H   0  0  0  0  0  0  0  0  0  0  0  0
    2.8609   -4.3963   -3.1327 H   0  0  0  0  0  0  0  0  0  0  0  0
    5.9922   -1.8852   -2.7107 H   0  0  0  0  0  0  0  0  0  0  0  0
    3.5753   -0.8652   -3.7201 H   0  0  0  0  0  0  0  0  0  0  0  0
    5.0080   -0.3241   -1.2753 H   0  0  0  0  0  0  0  0  0  0  0  0
    2.4925   -1.9986   -1.4213 H   0  0  0  0  0  0  0  0  0  0  0  0
    2.7191   -0.4668   -2.2220 H   0  0  0  0  0  0  0  0  0  0  0  0
    2.7269   -0.5467   -0.4572 H   0  0  0  0  0  0  0  0  0  0  0  0
    6.6384   -2.5850   -1.2214 H   0  0  0  0  0  0  0  0  0  0  0  0
    6.6299   -2.0085    2.1833 H   0  0  0  0  0  0  0  0  0  0  0  0
    5.3912   -1.5133    3.2435 H   0  0  0  0  0  0  0  0  0  0  0  0
    6.1461   -3.8052    3.5811 H   0  0  0  0  0  0  0  0  0  0  0  0
    4.3003   -2.8416    4.5589 H   0  0  0  0  0  0  0  0  0  0  0  0
    1.7897   -1.9839    2.0518 H   0  0  0  0  0  0  0  0  0  0  0  0
    1.1403   -3.6170    2.0732 H   0  0  0  0  0  0  0  0  0  0  0  0
    2.6880   -3.2719    1.3603 H   0  0  0  0  0  0  0  0  0  0  0  0
    2.0385   -1.3888    4.0655 H   0  0  0  0  0  0  0  0  0  0  0  0
    2.1110   -2.4079    5.4381 H   0  0  0  0  0  0  0  0  0  0  0  0
    0.7507   -2.5364    4.3396 H   0  0  0  0  0  0  0  0  0  0  0  0
    6.5811   -6.2334    3.1775 H   0  0  0  0  0  0  0  0  0  0  0  0
    6.3516   -6.8566    1.5851 H   0  0  0  0  0  0  0  0  0  0  0  0
    5.0116   -6.7785    2.6374 H   0  0  0  0  0  0  0  0  0  0  0  0
    7.8650   -5.0576    1.8220 H   0  0  0  0  0  0  0  0  0  0  0  0
    7.4579   -3.5358    1.2469 H   0  0  0  0  0  0  0  0  0  0  0  0
    7.1914   -4.9246    0.2198 H   0  0  0  0  0  0  0  0  0  0  0  0
  1  2  1  0
  1 39  1  0
  1 40  1  0
  1 41  1  0
  3  2  1  1
  3  9  1  0
  3 32  1  0
  3  4  1  0
  4  5  1  0
  4 42  1  0
  4 43  1  0
  5  6  1  0
  5 44  1  0
  5 45  1  0
  6  7  1  0
  6  8  1  6
  6  9  1  0
  7 46  1  0
  7 47  1  0
  7 48  1  0
  8 49  1  0
  9 33  1  6
  9 10  1  0
 10 11  1  0
 10 15  1  0
 10 50  1  1
 11 12  1  0
 12 13  1  0
 12 14  2  0
 13 51  1  0
 13 52  1  0
 13 53  1  0
 15 16  1  0
 15 17  1  0
 15 54  1  6
 16 55  1  0
 17 36  1  0
 17 18  1  0
 17 56  1  6
 18 26  1  0
 18 19  1  0
 18 57  1  6
 19 20  1  0
 19 58  1  0
 19 59  1  0
 20 21  1  0
 20 22  1  0
 20 60  1  6
 21 61  1  0
 22 23  1  0
 22 24  1  0
 22 62  1  1
 23 63  1  0
 24 25  1  0
 24 26  1  0
 24 64  1  1
 25 65  1  0
 25 66  1  0
 25 67  1  0
 26 27  1  6
 26 28  1  0
 27 68  1  0
 28 29  2  0
 28 30  1  0
 30 31  1  0
 30 69  1  0
 30 70  1  0
 31 32  1  0
 31 36  1  0
 31 71  1  1
 32 33  1  0
 32 72  1  1
 33 34  1  0
 33 35  1  0
 34 73  1  0
 34 74  1  0
 34 75  1  0
 35 76  1  0
 35 77  1  0
 35 78  1  0
 36 37  1  0
 36 38  1  0
 37 79  1  0
 37 80  1  0
 37 81  1  0
 38 82  1  0
 38 83  1  0
 38 84  1  0
M  END
>  <i_m_ct_stereo_status>  (238) 
1

>  <s_m_source_file>  (238) 
/var/tmp/pbs.5076255.sched01/tmpy0mqr2dw/78t3ouse6d.sdf

>  <i_m_source_file_index>  (238) 
19

>  <i_lp_mmshare_version>  (238) 
48012

>  <i_f3d_flags>  (238) 
0

>  <s_epik_input>  (238) 
W0NIM11bQ0BAXTEoW09IXSlbQ0gyXVtDSDJdW0NAXShbQ0BdMTIzKShPW0NIM10pW0NASF0oQzMoW0NIM10pW0NIM10pW0NAQEhdNFtDSDJdQyg9TylbQ0BAXTUoW09IXSlbQ0BASF0oW0NIMl1bQ0BASF0oW09IXSlbQ0BASF0oW09IXSlbQ0BIXTVbQ0gzXSlbQ0BASF0oQzQoW0NIM10pW0NIM10pW0NASF0oW09IXSlbQ0BASF0yT0MoPU8pW0NIM10=

>  <s_epik_cmdline>  (238) 
J2VwaWtfcHl0aG9uJywgJy1waHQnLCAnMi4wJywgJy1waCcsICc3LjAnLCAnLXRuJywgJzgnLCAnLW1hJywgJzIwMCcsICctaW1hZScsICc8aW5maWxlLm1hZT4nLCAnLW9tYWUnLCAnPG91dGZpbGUubWFlPic=

>  <r_lp_tautomer_probability>  (238) 
1

>  <r_epik_Ionization_Penalty>  (238) 
6.34816e-07

>  <r_epik_Ionization_Penalty_Charging>  (238) 
0

>  <r_epik_Ionization_Penalty_Neutral>  (238) 
6.34816e-07

>  <r_epik_State_Penalty>  (238) 
-0

>  <r_epik_Charging_Adjusted_Penalty>  (238) 
0

>  <i_epik_Tot_Q>  (238) 
0

>  <i_epik_Tot_abs_Q>  (238) 
0

>  <s_epik_Chemistry_Notes>  (238) 
This compound has an ester and may undergo hydrolysis at high or low pH.

>  <s_lp_Force_Field>  (238) 
OPLS3e

>  <r_lp_Energy>  (238) 
164.614

>  <b_lp_Chiralities_Consistent>  (238) 
1

>  <s_lp_Variant>  (238) 
71:0-1

>  <s_i_glide_gridfile>  (238) 
pfpi4k_grid

>  <i_i_glide_lignum>  (238) 
19

>  <i_i_glide_rotatable_bonds>  (238) 
8

>  <r_i_docking_score>  (238) 
-3.1976

>  <r_i_glide_ligand_efficiency>  (238) 
-0.0841473

>  <r_i_glide_ligand_efficiency_sa>  (238) 
-0.282901

>  <r_i_glide_ligand_efficiency_ln>  (238) 
-0.689496

>  <r_i_glide_gscore>  (238) 
-3.1976

>  <r_i_glide_lipo>  (238) 
-0.445833

>  <r_i_glide_hbond>  (238) 
0

>  <r_i_glide_metal>  (238) 
-0

>  <r_i_glide_rewards>  (238) 
-0.553965

>  <r_i_glide_evdw>  (238) 
-16.9853

>  <r_i_glide_ecoul>  (238) 
-9.16905

>  <r_i_glide_erotb>  (238) 
0.0712142

>  <r_i_glide_esite>  (238) 
-0.0443907

>  <r_i_glide_emodel>  (238) 
-32.4603

>  <r_i_glide_energy>  (238) 
-26.1543

>  <r_i_glide_einternal>  (238) 
9.66554

>  <r_i_glide_intrahb_reward>  (238) 
-0.5

>  <i_i_glide_confnum>  (238) 
3

>  <i_i_glide_posenum>  (238) 
16

>  <r_i_glide_eff_state_penalty>  (238) 
0

>  <ligand_id>  (238) 
71

>  <original_smiles>  (238) 
COC12CCC(C)(O)C13C(OC(C)=O)C(O)C1C4CC(O)C(O)C(C)C4(O)C(=O)CC(C2C3(C)C)C1(C)C

>  <smiles>  (238) 
[H]OC1([H])C([H])([H])C2([H])C(O[H])(C(=O)C([H])([H])C3([H])C4([H])C5(OC([H])([H])[H])C([H])([H])C([H])([H])C(O[H])(C([H])([H])[H])C5(C([H])(OC(=O)C([H])([H])[H])C([H])(O[H])C2([H])C3(C([H])([H])[H])C([H])([H])[H])C4(C([H])([H])[H])C([H])([H])[H])C([H])(C([H])([H])[H])C1([H])O[H]

$$$$
71:0:2
     RDKit          3D

 84 88  0  0  1  0  0  0  0  0999 V2000
    8.8903   -5.7943    2.4070 C   0  0  0  0  0  0  0  0  0  0  0  0
    7.5623   -5.3895    2.7501 O   0  0  0  0  0  0  0  0  0  0  0  0
    6.5619   -5.2671    1.7577 C   0  0  2  0  0  0  0  0  0  0  0  0
    7.1198   -4.3979    0.6098 C   0  0  0  0  0  0  0  0  0  0  0  0
    6.1556   -3.2302    0.3621 C   0  0  0  0  0  0  0  0  0  0  0  0
    5.1062   -3.2711    1.4979 C   0  0  1  0  0  0  0  0  0  0  0  0
    5.4333   -2.0581    2.4067 C   0  0  0  0  0  0  0  0  0  0  0  0
    3.8501   -2.9422    0.9423 O   0  0  0  0  0  0  0  0  0  0  0  0
    5.1356   -4.7423    2.1243 C   0  0  2  0  0  0  0  0  0  0  0  0
    4.6528   -4.7922    3.6465 C   0  0  1  0  0  0  0  0  0  0  0  0
    3.6440   -3.7942    3.8550 O   0  0  0  0  0  0  0  0  0  0  0  0
    3.5634   -2.9765    4.9382 C   0  0  0  0  0  0  0  0  0  0  0  0
    4.7043   -3.0469    5.9553 C   0  0  0  0  0  0  0  0  0  0  0  0
    2.6474   -2.1815    5.0857 O   0  0  0  0  0  0  0  0  0  0  0  0
    4.0988   -6.0851    4.4575 C   0  0  1  0  0  0  0  0  0  0  0  0
    2.6770   -6.0581    4.6219 O   0  0  0  0  0  0  0  0  0  0  0  0
    4.6222   -7.6097    4.4570 C   0  0  1  0  0  0  0  0  0  0  0  0
    3.5202   -8.7659    4.2811 C   0  0  2  0  0  0  0  0  0  0  0  0
    3.0620   -9.3204    5.6672 C   0  0  0  0  0  0  0  0  0  0  0  0
    1.7743  -10.1508    5.5972 C   0  0  1  0  0  0  0  0  0  0  0  0
    0.6459   -9.3255    5.4215 O   0  0  0  0  0  0  0  0  0  0  0  0
    1.8487  -11.2303    4.5086 C   0  0  1  0  0  0  0  0  0  0  0  0
    0.6430  -11.9563    4.4246 O   0  0  0  0  0  0  0  0  0  0  0  0
    2.2803  -10.6885    3.1191 C   0  0  1  0  0  0  0  0  0  0  0  0
    1.1297   -9.9034    2.4376 C   0  0  0  0  0  0  0  0  0  0  0  0
    3.6564   -9.9342    3.2290 C   0  0  2  0  0  0  0  0  0  0  0  0
    4.5291  -10.9408    3.7018 O   0  0  0  0  0  0  0  0  0  0  0  0
    4.2349   -9.4528    1.8788 C   0  0  0  0  0  0  0  0  0  0  0  0
    3.5540   -9.3780    0.8584 O   0  0  0  0  0  0  0  0  0  0  0  0
    5.7262   -9.1599    1.7576 C   0  0  0  0  0  0  0  0  0  0  0  0
    6.2450   -7.8761    2.4509 C   0  0  1  0  0  0  0  0  0  0  0  0
    5.9502   -6.6426    1.5083 C   0  0  1  0  0  0  0  0  0  0  0  0
    4.5960   -5.9035    1.2063 C   0  0  0  0  0  0  0  0  0  0  0  0
    3.1919   -6.4205    1.5549 C   0  0  0  0  0  0  0  0  0  0  0  0
    4.3940   -5.6991   -0.3057 C   0  0  0  0  0  0  0  0  0  0  0  0
    6.0948   -7.8542    4.0343 C   0  0  0  0  0  0  0  0  0  0  0  0
    6.9749   -6.8837    4.8843 C   0  0  0  0  0  0  0  0  0  0  0  0
    6.6815   -9.1766    4.6348 C   0  0  0  0  0  0  0  0  0  0  0  0
    9.4302   -5.8744    3.3546 H   0  0  0  0  0  0  0  0  0  0  0  0
    9.4532   -5.0662    1.8081 H   0  0  0  0  0  0  0  0  0  0  0  0
    8.9010   -6.7701    1.9133 H   0  0  0  0  0  0  0  0  0  0  0  0
    8.0769   -3.9396    0.8399 H   0  0  0  0  0  0  0  0  0  0  0  0
    7.3012   -4.9747   -0.3129 H   0  0  0  0  0  0  0  0  0  0  0  0
    6.7290   -2.2950    0.3182 H   0  0  0  0  0  0  0  0  0  0  0  0
    5.6897   -3.3016   -0.6227 H   0  0  0  0  0  0  0  0  0  0  0  0
    6.2041   -2.2816    3.1284 H   0  0  0  0  0  0  0  0  0  0  0  0
    4.5667   -1.6723    2.9377 H   0  0  0  0  0  0  0  0  0  0  0  0
    5.7560   -1.1893    1.8282 H   0  0  0  0  0  0  0  0  0  0  0  0
    3.2485   -2.8355    1.6671 H   0  0  0  0  0  0  0  0  0  0  0  0
    5.5334   -4.4326    4.1634 H   0  0  0  0  0  0  0  0  0  0  0  0
    4.7842   -4.0349    6.4143 H   0  0  0  0  0  0  0  0  0  0  0  0
    4.5648   -2.2991    6.7401 H   0  0  0  0  0  0  0  0  0  0  0  0
    5.6388   -2.7914    5.4703 H   0  0  0  0  0  0  0  0  0  0  0  0
    4.3827   -5.7468    5.4552 H   0  0  0  0  0  0  0  0  0  0  0  0
    2.2574   -6.4390    3.8576 H   0  0  0  0  0  0  0  0  0  0  0  0
    4.7614   -7.7243    5.5314 H   0  0  0  0  0  0  0  0  0  0  0  0
    2.6241   -8.2659    3.9416 H   0  0  0  0  0  0  0  0  0  0  0  0
    3.8542   -9.9450    6.0825 H   0  0  0  0  0  0  0  0  0  0  0  0
    2.9145   -8.4975    6.3790 H   0  0  0  0  0  0  0  0  0  0  0  0
    1.6650  -10.6331    6.5412 H   0  0  0  0  0  0  0  0  0  0  0  0
   -0.0957   -9.9232    5.4002 H   0  0  0  0  0  0  0  0  0  0  0  0
    2.5816  -11.9687    4.8350 H   0  0  0  0  0  0  0  0  0  0  0  0
    0.8463  -12.7908    4.0139 H   0  0  0  0  0  0  0  0  0  0  0  0
    2.4488  -11.5666    2.4899 H   0  0  0  0  0  0  0  0  0  0  0  0
    0.9146   -8.9435    2.9031 H   0  0  0  0  0  0  0  0  0  0  0  0
    0.2041  -10.4771    2.4402 H   0  0  0  0  0  0  0  0  0  0  0  0
    1.3511   -9.7145    1.3947 H   0  0  0  0  0  0  0  0  0  0  0  0
    4.5233  -11.6429    3.0594 H   0  0  0  0  0  0  0  0  0  0  0  0
    6.2881  -10.0488    2.0422 H   0  0  0  0  0  0  0  0  0  0  0  0
    5.9297   -9.0638    0.6936 H   0  0  0  0  0  0  0  0  0  0  0  0
    7.3136   -8.0584    2.3599 H   0  0  0  0  0  0  0  0  0  0  0  0
    6.3292   -6.9443    0.5392 H   0  0  0  0  0  0  0  0  0  0  0  0
    2.7012   -6.9812    0.7508 H   0  0  0  0  0  0  0  0  0  0  0  0
    2.5194   -5.5956    1.8216 H   0  0  0  0  0  0  0  0  0  0  0  0
    3.2363   -7.1148    2.3583 H   0  0  0  0  0  0  0  0  0  0  0  0
    4.1438   -6.6776   -0.7267 H   0  0  0  0  0  0  0  0  0  0  0  0
    5.2754   -5.3978   -0.8604 H   0  0  0  0  0  0  0  0  0  0  0  0
    3.5855   -4.9935   -0.5345 H   0  0  0  0  0  0  0  0  0  0  0  0
    8.0282   -6.9564    4.6067 H   0  0  0  0  0  0  0  0  0  0  0  0
    6.8818   -7.1020    5.9551 H   0  0  0  0  0  0  0  0  0  0  0  0
    6.7197   -5.8440    4.8405 H   0  0  0  0  0  0  0  0  0  0  0  0
    7.7465   -9.0794    4.8524 H   0  0  0  0  0  0  0  0  0  0  0  0
    6.6776  -10.0375    3.9838 H   0  0  0  0  0  0  0  0  0  0  0  0
    6.2002   -9.4657    5.5732 H   0  0  0  0  0  0  0  0  0  0  0  0
  1  2  1  0
  1 39  1  0
  1 40  1  0
  1 41  1  0
  3  2  1  1
  3  9  1  0
  3 32  1  0
  3  4  1  0
  4  5  1  0
  4 42  1  0
  4 43  1  0
  5  6  1  0
  5 44  1  0
  5 45  1  0
  6  7  1  0
  6  8  1  6
  6  9  1  0
  7 46  1  0
  7 47  1  0
  7 48  1  0
  8 49  1  0
  9 33  1  6
  9 10  1  0
 10 11  1  0
 10 15  1  0
 10 50  1  1
 11 12  1  0
 12 13  1  0
 12 14  2  0
 13 51  1  0
 13 52  1  0
 13 53  1  0
 15 16  1  0
 15 17  1  0
 15 54  1  1
 16 55  1  0
 17 36  1  0
 17 18  1  0
 17 56  1  1
 18 26  1  0
 18 19  1  0
 18 57  1  6
 19 20  1  0
 19 58  1  0
 19 59  1  0
 20 21  1  0
 20 22  1  0
 20 60  1  1
 21 61  1  0
 22 23  1  0
 22 24  1  0
 22 62  1  1
 23 63  1  0
 24 25  1  0
 24 26  1  0
 24 64  1  6
 25 65  1  0
 25 66  1  0
 25 67  1  0
 26 27  1  1
 26 28  1  0
 27 68  1  0
 28 29  2  0
 28 30  1  0
 30 31  1  0
 30 69  1  0
 30 70  1  0
 31 32  1  0
 31 36  1  0
 31 71  1  1
 32 33  1  0
 32 72  1  6
 33 34  1  0
 33 35  1  0
 34 73  1  0
 34 74  1  0
 34 75  1  0
 35 76  1  0
 35 77  1  0
 35 78  1  0
 36 37  1  0
 36 38  1  0
 37 79  1  0
 37 80  1  0
 37 81  1  0
 38 82  1  0
 38 83  1  0
 38 84  1  0
M  END
>  <i_m_ct_stereo_status>  (239) 
1

>  <s_m_source_file>  (239) 
/var/tmp/pbs.5076255.sched01/tmpy0mqr2dw/78t3ouse6d.sdf

>  <i_m_source_file_index>  (239) 
19

>  <i_lp_mmshare_version>  (239) 
48012

>  <i_f3d_flags>  (239) 
0

>  <s_epik_input>  (239) 
W0NIM11bQ0BAXTEoW09IXSlbQ0gyXVtDSDJdW0NAXShbQ0BdMTIzKShPW0NIM10pW0NASF0oQzMoW0NIM10pW0NIM10pW0NAQEhdNFtDSDJdQyg9TylbQ0BAXTUoW09IXSlbQ0BASF0oW0NIMl1bQ0BASF0oW09IXSlbQ0BASF0oW09IXSlbQ0BIXTVbQ0gzXSlbQ0BASF0oQzQoW0NIM10pW0NIM10pW0NASF0oW09IXSlbQ0BASF0yT0MoPU8pW0NIM10=

>  <s_epik_cmdline>  (239) 
J2VwaWtfcHl0aG9uJywgJy1waHQnLCAnMi4wJywgJy1waCcsICc3LjAnLCAnLXRuJywgJzgnLCAnLW1hJywgJzIwMCcsICctaW1hZScsICc8aW5maWxlLm1hZT4nLCAnLW9tYWUnLCAnPG91dGZpbGUubWFlPic=

>  <r_lp_tautomer_probability>  (239) 
1

>  <r_epik_Ionization_Penalty>  (239) 
6.34816e-07

>  <r_epik_Ionization_Penalty_Charging>  (239) 
0

>  <r_epik_Ionization_Penalty_Neutral>  (239) 
6.34816e-07

>  <r_epik_State_Penalty>  (239) 
-0

>  <r_epik_Charging_Adjusted_Penalty>  (239) 
0

>  <i_epik_Tot_Q>  (239) 
0

>  <i_epik_Tot_abs_Q>  (239) 
0

>  <s_epik_Chemistry_Notes>  (239) 
This compound has an ester and may undergo hydrolysis at high or low pH.

>  <s_lp_Force_Field>  (239) 
OPLS3e

>  <r_lp_Energy>  (239) 
164.614

>  <b_lp_Chiralities_Consistent>  (239) 
1

>  <s_lp_Variant>  (239) 
71:0-1

>  <s_i_glide_gridfile>  (239) 
pfpi4k_grid

>  <i_i_glide_lignum>  (239) 
19

>  <i_i_glide_rotatable_bonds>  (239) 
8

>  <r_i_docking_score>  (239) 
-3.04605

>  <r_i_glide_ligand_efficiency>  (239) 
-0.0801592

>  <r_i_glide_ligand_efficiency_sa>  (239) 
-0.269493

>  <r_i_glide_ligand_efficiency_ln>  (239) 
-0.656818

>  <r_i_glide_gscore>  (239) 
-3.04605

>  <r_i_glide_lipo>  (239) 
-0.827614

>  <r_i_glide_hbond>  (239) 
0

>  <r_i_glide_metal>  (239) 
-0

>  <r_i_glide_rewards>  (239) 
-0.5

>  <r_i_glide_evdw>  (239) 
-21.1463

>  <r_i_glide_ecoul>  (239) 
-4.48489

>  <r_i_glide_erotb>  (239) 
0.0712142

>  <r_i_glide_esite>  (239) 
-0.0596008

>  <r_i_glide_emodel>  (239) 
-33.3066

>  <r_i_glide_energy>  (239) 
-25.6312

>  <r_i_glide_einternal>  (239) 
8.21078

>  <r_i_glide_intrahb_reward>  (239) 
-0.5

>  <i_i_glide_confnum>  (239) 
1

>  <i_i_glide_posenum>  (239) 
2

>  <r_i_glide_eff_state_penalty>  (239) 
0

>  <ligand_id>  (239) 
71

>  <original_smiles>  (239) 
COC12CCC(C)(O)C13C(OC(C)=O)C(O)C1C4CC(O)C(O)C(C)C4(O)C(=O)CC(C2C3(C)C)C1(C)C

>  <smiles>  (239) 
[H]OC1([H])C([H])([H])C2([H])C(O[H])(C(=O)C([H])([H])C3([H])C4([H])C5(OC([H])([H])[H])C([H])([H])C([H])([H])C(O[H])(C([H])([H])[H])C5(C([H])(OC(=O)C([H])([H])[H])C([H])(O[H])C2([H])C3(C([H])([H])[H])C([H])([H])[H])C4(C([H])([H])[H])C([H])([H])[H])C([H])(C([H])([H])[H])C1([H])O[H]

$$$$
72:0:0
     RDKit          3D

 58 63  0  0  1  0  0  0  0  0999 V2000
    2.6979   -3.0559   -1.9775 C   0  0  0  0  0  0  0  0  0  0  0  0
    3.5255   -2.9811   -0.7099 C   0  0  1  0  0  0  0  0  0  0  0  0
    3.9442   -1.5638   -0.3873 C   0  0  0  0  0  0  0  0  0  0  0  0
    3.5966   -1.1860    1.0560 C   0  0  1  0  0  0  0  0  0  0  0  0
    2.2019   -1.2320    1.2800 O   0  0  0  0  0  0  0  0  0  0  0  0
    4.2701   -2.0954    2.0553 C   0  0  1  0  0  0  0  0  0  0  0  0
    5.6247   -1.6279    2.5360 C   0  0  0  0  0  0  0  0  0  0  0  0
    4.4968   -1.7302    3.5385 C   0  0  1  0  0  0  0  0  0  0  0  0
    3.9081   -0.4469    4.1087 C   0  0  0  0  0  0  0  0  0  0  0  0
    4.2515   -2.9492    4.4469 C   0  0  2  0  0  0  0  0  0  0  0  0
    4.1954   -2.8609    5.9736 C   0  0  0  0  0  0  0  0  0  0  0  0
    3.4195   -4.1140    6.5037 C   0  0  0  0  0  0  0  0  0  0  0  0
    3.4419   -5.3757    5.5794 C   0  0  2  0  0  0  0  0  0  0  0  0
    4.8232   -5.4469    4.9214 C   0  0  0  0  0  0  0  0  0  0  0  0
    5.0602   -4.2121    4.0118 C   0  0  1  0  0  0  0  0  0  0  0  0
    4.9556   -4.4903    2.4889 C   0  0  0  0  0  0  0  0  0  0  0  0
    3.8903   -3.5836    1.8209 C   0  0  2  0  0  0  0  0  0  0  0  0
    3.4823   -4.0058    0.4087 C   0  0  1  0  0  0  0  0  0  0  0  0
    2.4063   -5.1173    0.3154 C   0  0  0  0  0  0  0  0  0  0  0  0
    2.2947   -6.2359    1.3917 C   0  0  0  0  0  0  0  0  0  0  0  0
    1.3105   -5.9502    2.5691 C   0  0  1  0  0  0  0  0  0  0  0  0
    0.0447   -6.5097    2.2678 O   0  0  0  0  0  0  0  0  0  0  0  0
    1.8349   -6.3864    3.9816 C   0  0  1  0  0  0  0  0  0  0  0  0
    2.6495   -7.5361    3.8869 O   0  0  0  0  0  0  0  0  0  0  0  0
    2.4812   -5.2616    4.5180 O   0  0  0  0  0  0  0  0  0  0  0  0
    4.5335   -3.9944   -0.5642 O   0  0  0  0  0  0  0  0  0  0  0  0
    1.7049   -2.6574   -1.8063 H   0  0  0  0  0  0  0  0  0  0  0  0
    2.5243   -4.0816   -2.2606 H   0  0  0  0  0  0  0  0  0  0  0  0
    3.1720   -2.5268   -2.8047 H   0  0  0  0  0  0  0  0  0  0  0  0
    5.0298   -1.4955   -0.5293 H   0  0  0  0  0  0  0  0  0  0  0  0
    3.4938   -0.8616   -1.0949 H   0  0  0  0  0  0  0  0  0  0  0  0
    3.9379   -0.1695    1.2129 H   0  0  0  0  0  0  0  0  0  0  0  0
    1.7284   -1.0470    0.4717 H   0  0  0  0  0  0  0  0  0  0  0  0
    6.4333   -2.3400    2.5682 H   0  0  0  0  0  0  0  0  0  0  0  0
    5.9376   -0.6232    2.2645 H   0  0  0  0  0  0  0  0  0  0  0  0
    4.3801   -0.1829    5.0557 H   0  0  0  0  0  0  0  0  0  0  0  0
    2.8321   -0.5507    4.2552 H   0  0  0  0  0  0  0  0  0  0  0  0
    4.0731    0.3865    3.4260 H   0  0  0  0  0  0  0  0  0  0  0  0
    3.1959   -3.0944    4.2601 H   0  0  0  0  0  0  0  0  0  0  0  0
    5.2074   -2.8552    6.3799 H   0  0  0  0  0  0  0  0  0  0  0  0
    3.6990   -1.9532    6.3224 H   0  0  0  0  0  0  0  0  0  0  0  0
    3.8385   -4.3823    7.4750 H   0  0  0  0  0  0  0  0  0  0  0  0
    2.3791   -3.8508    6.6941 H   0  0  0  0  0  0  0  0  0  0  0  0
    3.2307   -6.2573    6.1850 H   0  0  0  0  0  0  0  0  0  0  0  0
    5.5844   -5.4830    5.7066 H   0  0  0  0  0  0  0  0  0  0  0  0
    4.9359   -6.3664    4.3533 H   0  0  0  0  0  0  0  0  0  0  0  0
    6.1061   -3.9894    4.1827 H   0  0  0  0  0  0  0  0  0  0  0  0
    5.9227   -4.3134    2.0114 H   0  0  0  0  0  0  0  0  0  0  0  0
    4.8077   -5.5415    2.3017 H   0  0  0  0  0  0  0  0  0  0  0  0
    2.9568   -3.7194    2.3488 H   0  0  0  0  0  0  0  0  0  0  0  0
    1.4380   -4.6554    0.1613 H   0  0  0  0  0  0  0  0  0  0  0  0
    2.5802   -5.6242   -0.6236 H   0  0  0  0  0  0  0  0  0  0  0  0
    1.9089   -7.1250    0.8914 H   0  0  0  0  0  0  0  0  0  0  0  0
    3.2683   -6.5850    1.6932 H   0  0  0  0  0  0  0  0  0  0  0  0
    1.1111   -4.8807    2.6280 H   0  0  0  0  0  0  0  0  0  0  0  0
    0.1284   -7.4551    2.2970 H   0  0  0  0  0  0  0  0  0  0  0  0
    1.0102   -6.6384    4.6552 H   0  0  0  0  0  0  0  0  0  0  0  0
    3.3367   -7.3516    3.2639 H   0  0  0  0  0  0  0  0  0  0  0  0
  2  1  1  6
  1 27  1  0
  1 28  1  0
  1 29  1  0
  2 18  1  0
  2 26  1  0
  2  3  1  0
  3  4  1  0
  3 30  1  0
  3 31  1  0
  4  5  1  0
  4  6  1  0
  4 32  1  1
  5 33  1  0
  6  8  1  0
  6 17  1  0
  6  7  1  6
  7  8  1  0
  7 34  1  0
  7 35  1  0
  8  9  1  1
  8 10  1  0
  9 36  1  0
  9 37  1  0
  9 38  1  0
 10 15  1  0
 10 11  1  0
 10 39  1  6
 11 12  1  0
 11 40  1  0
 11 41  1  0
 12 13  1  0
 12 42  1  0
 12 43  1  0
 13 25  1  0
 13 14  1  0
 13 44  1  1
 14 15  1  0
 14 45  1  0
 14 46  1  0
 15 16  1  0
 15 47  1  6
 16 17  1  0
 16 48  1  0
 16 49  1  0
 17 18  1  0
 17 50  1  1
 18 19  1  0
 18 26  1  6
 19 20  1  0
 19 51  1  0
 19 52  1  0
 20 21  1  0
 20 53  1  0
 20 54  1  0
 21 22  1  0
 21 23  1  0
 21 55  1  1
 22 56  1  0
 23 24  1  0
 23 25  1  0
 23 57  1  1
 24 58  1  0
M  END
>  <i_m_ct_stereo_status>  (240) 
1

>  <s_m_source_file>  (240) 
/var/tmp/pbs.5076255.sched01/tmpy0mqr2dw/78t3ouse6d.sdf

>  <i_m_source_file_index>  (240) 
20

>  <i_lp_mmshare_version>  (240) 
48012

>  <i_f3d_flags>  (240) 
0

>  <s_epik_input>  (240) 
W09IXVtDQEBIXTFbQ0gyXVtDQF0oTzIpKFtDSDNdKVtDQEBdMihbQ0BIXTNbQ0gyXTQpW0NIMl1bQ0gyXVtDQEBIXShbT0hdKVtDQEBIXShbT0hdKU9bQ0BIXShbQ0gyXVtDSDJdNSlbQ0gyXVtDQEBIXTRbQ0BASF01W0NAXShbQ0BdMTM2KShbQ0gyXTYpW0NIM10=

>  <s_epik_cmdline>  (240) 
J2VwaWtfcHl0aG9uJywgJy1waHQnLCAnMi4wJywgJy1waCcsICc3LjAnLCAnLXRuJywgJzgnLCAnLW1hJywgJzIwMCcsICctaW1hZScsICc8aW5maWxlLm1hZT4nLCAnLW9tYWUnLCAnPG91dGZpbGUubWFlPic=

>  <r_lp_tautomer_probability>  (240) 
1

>  <r_epik_Ionization_Penalty>  (240) 
5.85306e-07

>  <r_epik_Ionization_Penalty_Charging>  (240) 
0

>  <r_epik_Ionization_Penalty_Neutral>  (240) 
5.85306e-07

>  <r_epik_State_Penalty>  (240) 
-0

>  <r_epik_Charging_Adjusted_Penalty>  (240) 
0

>  <i_epik_Tot_Q>  (240) 
0

>  <i_epik_Tot_abs_Q>  (240) 
0

>  <s_epik_Chemistry_Notes>  (240) 
This compound contains an acetal/aminal-like group ( X-CH(R)-Y where X, Y are N, S, or O) that may be acid/base labile, releasing an aldehyde.

>  <s_lp_Force_Field>  (240) 
OPLS3e

>  <r_lp_Energy>  (240) 
69.9484

>  <b_lp_Chiralities_Consistent>  (240) 
1

>  <s_lp_Variant>  (240) 
72:0-1

>  <s_i_glide_gridfile>  (240) 
pfpi4k_grid

>  <i_i_glide_lignum>  (240) 
20

>  <i_i_glide_rotatable_bonds>  (240) 
3

>  <r_i_docking_score>  (240) 
-3.09734

>  <r_i_glide_ligand_efficiency>  (240) 
-0.119129

>  <r_i_glide_ligand_efficiency_sa>  (240) 
-0.352918

>  <r_i_glide_ligand_efficiency_ln>  (240) 
-0.727401

>  <r_i_glide_gscore>  (240) 
-3.09734

>  <r_i_glide_lipo>  (240) 
-0.182612

>  <r_i_glide_hbond>  (240) 
-0.16

>  <r_i_glide_metal>  (240) 
-0

>  <r_i_glide_rewards>  (240) 
-0.924029

>  <r_i_glide_evdw>  (240) 
-13.7818

>  <r_i_glide_ecoul>  (240) 
-7.58358

>  <r_i_glide_erotb>  (240) 
0

>  <r_i_glide_esite>  (240) 
-0.00407731

>  <r_i_glide_emodel>  (240) 
-26.4481

>  <r_i_glide_energy>  (240) 
-21.3653

>  <r_i_glide_einternal>  (240) 
1.14056

>  <r_i_glide_intrahb_reward>  (240) 
-0

>  <i_i_glide_confnum>  (240) 
1

>  <i_i_glide_posenum>  (240) 
2

>  <r_i_glide_eff_state_penalty>  (240) 
0

>  <ligand_id>  (240) 
72

>  <original_smiles>  (240) 
CC12CC(O)C34CC3(C)C3CCC5CC3CC4C1(CCC(O)C(O)O5)O2

>  <smiles>  (240) 
[H]OC1([H])OC2([H])C([H])([H])C([H])([H])C3([H])C([H])(C2([H])[H])C([H])([H])C2([H])C4(OC4(C([H])([H])[H])C([H])([H])C([H])(O[H])C24C([H])([H])C34C([H])([H])[H])C([H])([H])C([H])([H])C1([H])O[H]

$$$$
72:0:1
     RDKit          3D

 58 63  0  0  1  0  0  0  0  0999 V2000
    3.3270   -2.8527   -1.3424 C   0  0  0  0  0  0  0  0  0  0  0  0
    3.7021   -2.7850    0.1285 C   0  0  1  0  0  0  0  0  0  0  0  0
    3.7982   -1.3624    0.6422 C   0  0  0  0  0  0  0  0  0  0  0  0
    2.9617   -1.1516    1.9170 C   0  0  1  0  0  0  0  0  0  0  0  0
    1.5812   -1.3322    1.6807 O   0  0  0  0  0  0  0  0  0  0  0  0
    3.4158   -2.0776    3.0325 C   0  0  1  0  0  0  0  0  0  0  0  0
    4.4794   -1.5089    3.9662 C   0  0  0  0  0  0  0  0  0  0  0  0
    3.1052   -1.8277    4.5250 C   0  0  1  0  0  0  0  0  0  0  0  0
    2.1977   -0.6756    4.9337 C   0  0  0  0  0  0  0  0  0  0  0  0
    2.7564   -3.1447    5.2365 C   0  0  2  0  0  0  0  0  0  0  0  0
    2.2182   -3.2036    6.6711 C   0  0  0  0  0  0  0  0  0  0  0  0
    1.4871   -4.5760    6.8589 C   0  0  0  0  0  0  0  0  0  0  0  0
    1.9754   -5.7329    5.9286 C   0  0  2  0  0  0  0  0  0  0  0  0
    3.4908   -5.5842    5.7379 C   0  0  0  0  0  0  0  0  0  0  0  0
    3.8497   -4.2472    5.0352 C   0  0  1  0  0  0  0  0  0  0  0  0
    4.2485   -4.4055    3.5418 C   0  0  0  0  0  0  0  0  0  0  0  0
    3.3325   -3.5719    2.6106 C   0  0  2  0  0  0  0  0  0  0  0  0
    3.4591   -3.9103    1.1164 C   0  0  1  0  0  0  0  0  0  0  0  0
    2.6383   -5.1284    0.6112 C   0  0  0  0  0  0  0  0  0  0  0  0
    2.3388   -6.3361    1.5469 C   0  0  0  0  0  0  0  0  0  0  0  0
    1.0108   -6.2639    2.3707 C   0  0  1  0  0  0  0  0  0  0  0  0
   -0.0309   -6.9040    1.6610 O   0  0  0  0  0  0  0  0  0  0  0  0
    1.1091   -6.7730    3.8483 C   0  0  1  0  0  0  0  0  0  0  0  0
    2.0680   -7.8069    3.9618 O   0  0  0  0  0  0  0  0  0  0  0  0
    1.3751   -5.6371    4.6297 O   0  0  0  0  0  0  0  0  0  0  0  0
    4.7507   -3.6832    0.5380 O   0  0  0  0  0  0  0  0  0  0  0  0
    2.2820   -2.5650   -1.4689 H   0  0  0  0  0  0  0  0  0  0  0  0
    3.4450   -3.8629   -1.7288 H   0  0  0  0  0  0  0  0  0  0  0  0
    3.9534   -2.1857   -1.9354 H   0  0  0  0  0  0  0  0  0  0  0  0
    4.8502   -1.1531    0.8581 H   0  0  0  0  0  0  0  0  0  0  0  0
    3.4965   -0.6587   -0.1360 H   0  0  0  0  0  0  0  0  0  0  0  0
    3.1084   -0.1172    2.2269 H   0  0  0  0  0  0  0  0  0  0  0  0
    1.3822   -1.0541    0.7691 H   0  0  0  0  0  0  0  0  0  0  0  0
    5.3222   -2.1068    4.2846 H   0  0  0  0  0  0  0  0  0  0  0  0
    4.7254   -0.4587    3.8541 H   0  0  0  0  0  0  0  0  0  0  0  0
    2.3049   -0.4476    5.9947 H   0  0  0  0  0  0  0  0  0  0  0  0
    1.1551   -0.9159    4.7217 H   0  0  0  0  0  0  0  0  0  0  0  0
    2.4511    0.2337    4.3848 H   0  0  0  0  0  0  0  0  0  0  0  0
    1.8417   -3.3936    4.7077 H   0  0  0  0  0  0  0  0  0  0  0  0
    3.0398   -3.1106    7.3834 H   0  0  0  0  0  0  0  0  0  0  0  0
    1.5181   -2.3974    6.8827 H   0  0  0  0  0  0  0  0  0  0  0  0
    1.6203   -4.8848    7.8985 H   0  0  0  0  0  0  0  0  0  0  0  0
    0.4138   -4.4526    6.7105 H   0  0  0  0  0  0  0  0  0  0  0  0
    1.7163   -6.6864    6.3892 H   0  0  0  0  0  0  0  0  0  0  0  0
    3.9659   -5.6116    6.7162 H   0  0  0  0  0  0  0  0  0  0  0  0
    3.9067   -6.4331    5.1995 H   0  0  0  0  0  0  0  0  0  0  0  0
    4.7596   -3.9073    5.5363 H   0  0  0  0  0  0  0  0  0  0  0  0
    5.2793   -4.0756    3.4027 H   0  0  0  0  0  0  0  0  0  0  0  0
    4.3140   -5.4450    3.2645 H   0  0  0  0  0  0  0  0  0  0  0  0
    2.3057   -3.8577    2.7982 H   0  0  0  0  0  0  0  0  0  0  0  0
    1.7060   -4.7598    0.1879 H   0  0  0  0  0  0  0  0  0  0  0  0
    3.1831   -5.5270   -0.2459 H   0  0  0  0  0  0  0  0  0  0  0  0
    2.2590   -7.2126    0.9025 H   0  0  0  0  0  0  0  0  0  0  0  0
    3.2008   -6.6039    2.1365 H   0  0  0  0  0  0  0  0  0  0  0  0
    0.6717   -5.2319    2.4315 H   0  0  0  0  0  0  0  0  0  0  0  0
    0.1760   -7.8294    1.5895 H   0  0  0  0  0  0  0  0  0  0  0  0
    0.1535   -7.1846    4.1890 H   0  0  0  0  0  0  0  0  0  0  0  0
    1.9152   -8.2566    4.7761 H   0  0  0  0  0  0  0  0  0  0  0  0
  2  1  1  6
  1 27  1  0
  1 28  1  0
  1 29  1  0
  2 18  1  0
  2 26  1  0
  2  3  1  0
  3  4  1  0
  3 30  1  0
  3 31  1  0
  4  5  1  0
  4  6  1  0
  4 32  1  1
  5 33  1  0
  6  8  1  0
  6 17  1  0
  6  7  1  1
  7  8  1  0
  7 34  1  0
  7 35  1  0
  8  9  1  6
  8 10  1  0
  9 36  1  0
  9 37  1  0
  9 38  1  0
 10 15  1  0
 10 11  1  0
 10 39  1  6
 11 12  1  0
 11 40  1  0
 11 41  1  0
 12 13  1  0
 12 42  1  0
 12 43  1  0
 13 25  1  0
 13 14  1  0
 13 44  1  1
 14 15  1  0
 14 45  1  0
 14 46  1  0
 15 16  1  0
 15 47  1  1
 16 17  1  0
 16 48  1  0
 16 49  1  0
 17 18  1  0
 17 50  1  1
 18 19  1  0
 18 26  1  1
 19 20  1  0
 19 51  1  0
 19 52  1  0
 20 21  1  0
 20 53  1  0
 20 54  1  0
 21 22  1  0
 21 23  1  0
 21 55  1  1
 22 56  1  0
 23 24  1  0
 23 25  1  0
 23 57  1  1
 24 58  1  0
M  END
>  <i_m_ct_stereo_status>  (241) 
1

>  <s_m_source_file>  (241) 
/var/tmp/pbs.5076255.sched01/tmpy0mqr2dw/78t3ouse6d.sdf

>  <i_m_source_file_index>  (241) 
20

>  <i_lp_mmshare_version>  (241) 
48012

>  <i_f3d_flags>  (241) 
0

>  <s_epik_input>  (241) 
W09IXVtDQEBIXTFbQ0gyXVtDQF0oTzIpKFtDSDNdKVtDQEBdMihbQ0BIXTNbQ0gyXTQpW0NIMl1bQ0gyXVtDQEBIXShbT0hdKVtDQEBIXShbT0hdKU9bQ0BIXShbQ0gyXVtDSDJdNSlbQ0gyXVtDQEBIXTRbQ0BASF01W0NAXShbQ0BdMTM2KShbQ0gyXTYpW0NIM10=

>  <s_epik_cmdline>  (241) 
J2VwaWtfcHl0aG9uJywgJy1waHQnLCAnMi4wJywgJy1waCcsICc3LjAnLCAnLXRuJywgJzgnLCAnLW1hJywgJzIwMCcsICctaW1hZScsICc8aW5maWxlLm1hZT4nLCAnLW9tYWUnLCAnPG91dGZpbGUubWFlPic=

>  <r_lp_tautomer_probability>  (241) 
1

>  <r_epik_Ionization_Penalty>  (241) 
5.85306e-07

>  <r_epik_Ionization_Penalty_Charging>  (241) 
0

>  <r_epik_Ionization_Penalty_Neutral>  (241) 
5.85306e-07

>  <r_epik_State_Penalty>  (241) 
-0

>  <r_epik_Charging_Adjusted_Penalty>  (241) 
0

>  <i_epik_Tot_Q>  (241) 
0

>  <i_epik_Tot_abs_Q>  (241) 
0

>  <s_epik_Chemistry_Notes>  (241) 
This compound contains an acetal/aminal-like group ( X-CH(R)-Y where X, Y are N, S, or O) that may be acid/base labile, releasing an aldehyde.

>  <s_lp_Force_Field>  (241) 
OPLS3e

>  <r_lp_Energy>  (241) 
69.9484

>  <b_lp_Chiralities_Consistent>  (241) 
1

>  <s_lp_Variant>  (241) 
72:0-1

>  <s_i_glide_gridfile>  (241) 
pfpi4k_grid

>  <i_i_glide_lignum>  (241) 
20

>  <i_i_glide_rotatable_bonds>  (241) 
3

>  <r_i_docking_score>  (241) 
-3.04414

>  <r_i_glide_ligand_efficiency>  (241) 
-0.117082

>  <r_i_glide_ligand_efficiency_sa>  (241) 
-0.346856

>  <r_i_glide_ligand_efficiency_ln>  (241) 
-0.714907

>  <r_i_glide_gscore>  (241) 
-3.04414

>  <r_i_glide_lipo>  (241) 
-0.0264123

>  <r_i_glide_hbond>  (241) 
-0.16

>  <r_i_glide_metal>  (241) 
-0

>  <r_i_glide_rewards>  (241) 
-0.924029

>  <r_i_glide_evdw>  (241) 
-18.8223

>  <r_i_glide_ecoul>  (241) 
-6.51879

>  <r_i_glide_erotb>  (241) 
0

>  <r_i_glide_esite>  (241) 
-0.0147719

>  <r_i_glide_emodel>  (241) 
-30.1983

>  <r_i_glide_energy>  (241) 
-25.341

>  <r_i_glide_einternal>  (241) 
1.34685

>  <r_i_glide_intrahb_reward>  (241) 
-0

>  <i_i_glide_confnum>  (241) 
1

>  <i_i_glide_posenum>  (241) 
31

>  <r_i_glide_eff_state_penalty>  (241) 
0

>  <ligand_id>  (241) 
72

>  <original_smiles>  (241) 
CC12CC(O)C34CC3(C)C3CCC5CC3CC4C1(CCC(O)C(O)O5)O2

>  <smiles>  (241) 
[H]OC1([H])OC2([H])C([H])([H])C([H])([H])C3([H])C([H])(C2([H])[H])C([H])([H])C2([H])C4(OC4(C([H])([H])[H])C([H])([H])C([H])(O[H])C24C([H])([H])C34C([H])([H])[H])C([H])([H])C([H])([H])C1([H])O[H]

$$$$
72:0:2
     RDKit          3D

 58 63  0  0  1  0  0  0  0  0999 V2000
    3.2690   -2.1638    7.7683 C   0  0  0  0  0  0  0  0  0  0  0  0
    3.6117   -3.0478    6.5804 C   0  0  1  0  0  0  0  0  0  0  0  0
    2.8969   -4.3870    6.6183 C   0  0  0  0  0  0  0  0  0  0  0  0
    2.1426   -4.6773    5.3118 C   0  0  1  0  0  0  0  0  0  0  0  0
    1.0848   -3.7539    5.1199 O   0  0  0  0  0  0  0  0  0  0  0  0
    3.0919   -4.6915    4.1223 C   0  0  1  0  0  0  0  0  0  0  0  0
    3.6857   -6.0536    3.7778 C   0  0  0  0  0  0  0  0  0  0  0  0
    2.7681   -5.3818    2.7789 C   0  0  1  0  0  0  0  0  0  0  0  0
    1.3860   -5.9742    2.5451 C   0  0  0  0  0  0  0  0  0  0  0  0
    3.2698   -4.5279    1.5994 C   0  0  2  0  0  0  0  0  0  0  0  0
    2.9317   -4.8364    0.1361 C   0  0  0  0  0  0  0  0  0  0  0  0
    3.1264   -3.5262   -0.6979 C   0  0  0  0  0  0  0  0  0  0  0  0
    4.1452   -2.5006   -0.1082 C   0  0  2  0  0  0  0  0  0  0  0  0
    5.2942   -3.2855    0.5437 C   0  0  0  0  0  0  0  0  0  0  0  0
    4.7911   -4.1653    1.7233 C   0  0  1  0  0  0  0  0  0  0  0  0
    5.1320   -3.5885    3.1240 C   0  0  0  0  0  0  0  0  0  0  0  0
    3.8661   -3.3456    3.9787 C   0  0  2  0  0  0  0  0  0  0  0  0
    4.0990   -2.5070    5.2424 C   0  0  1  0  0  0  0  0  0  0  0  0
    4.0900   -0.9633    5.0603 C   0  0  0  0  0  0  0  0  0  0  0  0
    4.5862   -0.3147    3.7350 C   0  0  0  0  0  0  0  0  0  0  0  0
    3.4962   -0.0584    2.6445 C   0  0  1  0  0  0  0  0  0  0  0  0
    3.0137    1.2672    2.7451 O   0  0  0  0  0  0  0  0  0  0  0  0
    3.9358   -0.3984    1.1837 C   0  0  1  0  0  0  0  0  0  0  0  0
    5.3118   -0.1446    0.9805 O   0  0  0  0  0  0  0  0  0  0  0  0
    3.5510   -1.7203    0.9380 O   0  0  0  0  0  0  0  0  0  0  0  0
    4.9987   -3.0652    6.2031 O   0  0  0  0  0  0  0  0  0  0  0  0
    2.2348   -1.8257    7.6879 H   0  0  0  0  0  0  0  0  0  0  0  0
    3.9181   -1.2901    7.8086 H   0  0  0  0  0  0  0  0  0  0  0  0
    3.3866   -2.7123    8.7038 H   0  0  0  0  0  0  0  0  0  0  0  0
    3.6451   -5.1632    6.7880 H   0  0  0  0  0  0  0  0  0  0  0  0
    2.2111   -4.4312    7.4665 H   0  0  0  0  0  0  0  0  0  0  0  0
    1.6897   -5.6635    5.4106 H   0  0  0  0  0  0  0  0  0  0  0  0
    1.4491   -2.8994    4.9503 H   0  0  0  0  0  0  0  0  0  0  0  0
    4.7336   -6.1694    3.5304 H   0  0  0  0  0  0  0  0  0  0  0  0
    3.2833   -6.9180    4.2995 H   0  0  0  0  0  0  0  0  0  0  0  0
    1.3899   -6.6534    1.6928 H   0  0  0  0  0  0  0  0  0  0  0  0
    0.6605   -5.1807    2.3817 H   0  0  0  0  0  0  0  0  0  0  0  0
    1.0568   -6.5482    3.4104 H   0  0  0  0  0  0  0  0  0  0  0  0
    2.6404   -3.6540    1.7316 H   0  0  0  0  0  0  0  0  0  0  0  0
    3.5811   -5.6292   -0.2381 H   0  0  0  0  0  0  0  0  0  0  0  0
    1.9073   -5.1844    0.0126 H   0  0  0  0  0  0  0  0  0  0  0  0
    3.4551   -3.8174   -1.6974 H   0  0  0  0  0  0  0  0  0  0  0  0
    2.1694   -3.0223   -0.8297 H   0  0  0  0  0  0  0  0  0  0  0  0
    4.4999   -1.8525   -0.9120 H   0  0  0  0  0  0  0  0  0  0  0  0
    5.7405   -3.9287   -0.2161 H   0  0  0  0  0  0  0  0  0  0  0  0
    6.0992   -2.6234    0.8583 H   0  0  0  0  0  0  0  0  0  0  0  0
    5.3627   -5.0907    1.6389 H   0  0  0  0  0  0  0  0  0  0  0  0
    5.7817   -4.2868    3.6539 H   0  0  0  0  0  0  0  0  0  0  0  0
    5.7734   -2.7241    3.0382 H   0  0  0  0  0  0  0  0  0  0  0  0
    3.2020   -2.6973    3.4210 H   0  0  0  0  0  0  0  0  0  0  0  0
    3.0841   -0.5946    5.2750 H   0  0  0  0  0  0  0  0  0  0  0  0
    4.7166   -0.5575    5.8533 H   0  0  0  0  0  0  0  0  0  0  0  0
    4.9942    0.6624    4.0004 H   0  0  0  0  0  0  0  0  0  0  0  0
    5.4725   -0.8061    3.3587 H   0  0  0  0  0  0  0  0  0  0  0  0
    2.6175   -0.6689    2.8530 H   0  0  0  0  0  0  0  0  0  0  0  0
    3.6996    1.8681    2.4864 H   0  0  0  0  0  0  0  0  0  0  0  0
    3.3846    0.2264    0.4803 H   0  0  0  0  0  0  0  0  0  0  0  0
    5.4018    0.2982    0.1453 H   0  0  0  0  0  0  0  0  0  0  0  0
  2  1  1  1
  1 27  1  0
  1 28  1  0
  1 29  1  0
  2 18  1  0
  2 26  1  0
  2  3  1  0
  3  4  1  0
  3 30  1  0
  3 31  1  0
  4  5  1  0
  4  6  1  0
  4 32  1  1
  5 33  1  0
  6  8  1  0
  6 17  1  0
  6  7  1  1
  7  8  1  0
  7 34  1  0
  7 35  1  0
  8  9  1  6
  8 10  1  0
  9 36  1  0
  9 37  1  0
  9 38  1  0
 10 15  1  0
 10 11  1  0
 10 39  1  1
 11 12  1  0
 11 40  1  0
 11 41  1  0
 12 13  1  0
 12 42  1  0
 12 43  1  0
 13 25  1  0
 13 14  1  0
 13 44  1  6
 14 15  1  0
 14 45  1  0
 14 46  1  0
 15 16  1  0
 15 47  1  6
 16 17  1  0
 16 48  1  0
 16 49  1  0
 17 18  1  0
 17 50  1  6
 18 19  1  0
 18 26  1  1
 19 20  1  0
 19 51  1  0
 19 52  1  0
 20 21  1  0
 20 53  1  0
 20 54  1  0
 21 22  1  0
 21 23  1  0
 21 55  1  1
 22 56  1  0
 23 24  1  0
 23 25  1  0
 23 57  1  6
 24 58  1  0
M  END
>  <i_m_ct_stereo_status>  (242) 
1

>  <s_m_source_file>  (242) 
/var/tmp/pbs.5076255.sched01/tmpy0mqr2dw/78t3ouse6d.sdf

>  <i_m_source_file_index>  (242) 
20

>  <i_lp_mmshare_version>  (242) 
48012

>  <i_f3d_flags>  (242) 
0

>  <s_epik_input>  (242) 
W09IXVtDQEBIXTFbQ0gyXVtDQF0oTzIpKFtDSDNdKVtDQEBdMihbQ0BIXTNbQ0gyXTQpW0NIMl1bQ0gyXVtDQEBIXShbT0hdKVtDQEBIXShbT0hdKU9bQ0BIXShbQ0gyXVtDSDJdNSlbQ0gyXVtDQEBIXTRbQ0BASF01W0NAXShbQ0BdMTM2KShbQ0gyXTYpW0NIM10=

>  <s_epik_cmdline>  (242) 
J2VwaWtfcHl0aG9uJywgJy1waHQnLCAnMi4wJywgJy1waCcsICc3LjAnLCAnLXRuJywgJzgnLCAnLW1hJywgJzIwMCcsICctaW1hZScsICc8aW5maWxlLm1hZT4nLCAnLW9tYWUnLCAnPG91dGZpbGUubWFlPic=

>  <r_lp_tautomer_probability>  (242) 
1

>  <r_epik_Ionization_Penalty>  (242) 
5.85306e-07

>  <r_epik_Ionization_Penalty_Charging>  (242) 
0

>  <r_epik_Ionization_Penalty_Neutral>  (242) 
5.85306e-07

>  <r_epik_State_Penalty>  (242) 
-0

>  <r_epik_Charging_Adjusted_Penalty>  (242) 
0

>  <i_epik_Tot_Q>  (242) 
0

>  <i_epik_Tot_abs_Q>  (242) 
0

>  <s_epik_Chemistry_Notes>  (242) 
This compound contains an acetal/aminal-like group ( X-CH(R)-Y where X, Y are N, S, or O) that may be acid/base labile, releasing an aldehyde.

>  <s_lp_Force_Field>  (242) 
OPLS3e

>  <r_lp_Energy>  (242) 
69.9484

>  <b_lp_Chiralities_Consistent>  (242) 
1

>  <s_lp_Variant>  (242) 
72:0-1

>  <s_i_glide_gridfile>  (242) 
pfpi4k_grid

>  <i_i_glide_lignum>  (242) 
20

>  <i_i_glide_rotatable_bonds>  (242) 
3

>  <r_i_docking_score>  (242) 
-2.79457

>  <r_i_glide_ligand_efficiency>  (242) 
-0.107484

>  <r_i_glide_ligand_efficiency_sa>  (242) 
-0.31842

>  <r_i_glide_ligand_efficiency_ln>  (242) 
-0.656296

>  <r_i_glide_gscore>  (242) 
-2.79457

>  <r_i_glide_lipo>  (242) 
-0.236793

>  <r_i_glide_hbond>  (242) 
0

>  <r_i_glide_metal>  (242) 
-0

>  <r_i_glide_rewards>  (242) 
-1.00791

>  <r_i_glide_evdw>  (242) 
-19.2224

>  <r_i_glide_ecoul>  (242) 
-3.92499

>  <r_i_glide_erotb>  (242) 
0

>  <r_i_glide_esite>  (242) 
0

>  <r_i_glide_emodel>  (242) 
-27.1483

>  <r_i_glide_energy>  (242) 
-23.1474

>  <r_i_glide_einternal>  (242) 
1.19889

>  <r_i_glide_intrahb_reward>  (242) 
-0

>  <i_i_glide_confnum>  (242) 
2

>  <i_i_glide_posenum>  (242) 
36

>  <r_i_glide_eff_state_penalty>  (242) 
0

>  <ligand_id>  (242) 
72

>  <original_smiles>  (242) 
CC12CC(O)C34CC3(C)C3CCC5CC3CC4C1(CCC(O)C(O)O5)O2

>  <smiles>  (242) 
[H]OC1([H])OC2([H])C([H])([H])C([H])([H])C3([H])C([H])(C2([H])[H])C([H])([H])C2([H])C4(OC4(C([H])([H])[H])C([H])([H])C([H])(O[H])C24C([H])([H])C34C([H])([H])[H])C([H])([H])C([H])([H])C1([H])O[H]

$$$$
73:0:0
     RDKit          3D

 50 55  0  0  1  0  0  0  0  0999 V2000
    0.6580   -3.4547    4.2630 C   0  0  0  0  0  0  0  0  0  0  0  0
    1.9386   -3.8103    4.0338 C   0  0  0  0  0  0  0  0  0  0  0  0
    2.3847   -5.2698    4.0779 C   0  0  1  0  0  0  0  0  0  0  0  0
    1.3406   -6.1757    4.4121 O   0  0  0  0  0  0  0  0  0  0  0  0
    3.1370   -5.6758    2.7821 C   0  0  1  0  0  0  0  0  0  0  0  0
    2.2288   -5.6903    1.5216 C   0  0  0  0  0  0  0  0  0  0  0  0
    1.0179   -5.8621    1.6060 O   0  0  0  0  0  0  0  0  0  0  0  0
    2.8372   -5.5929    0.3164 O   0  0  0  0  0  0  0  0  0  0  0  0
    4.1944   -5.2010    0.0800 C   0  0  1  0  0  0  0  0  0  0  0  0
    4.2945   -3.8862   -0.6776 C   0  0  0  0  0  0  0  0  0  0  0  0
    3.3004   -2.8749   -0.8157 C   0  0  0  0  0  0  0  0  0  0  0  0
    3.8543   -1.8681   -1.5517 C   0  0  0  0  0  0  0  0  0  0  0  0
    5.1274   -2.1811   -1.9105 O   0  0  0  0  0  0  0  0  0  0  0  0
    5.3724   -3.4106   -1.3805 C   0  0  0  0  0  0  0  0  0  0  0  0
    5.0982   -5.2617    1.3255 C   0  0  0  0  0  0  0  0  0  0  0  0
    4.4030   -4.7918    2.6239 C   0  0  2  0  0  0  0  0  0  0  0  0
    5.3964   -5.0668    3.7805 C   0  0  0  0  0  0  0  0  0  0  0  0
    4.0034   -3.2767    2.5849 C   0  0  2  0  0  0  0  0  0  0  0  0
    5.2151   -2.3214    2.4310 C   0  0  0  0  0  0  0  0  0  0  0  0
    4.7949   -0.8919    2.2174 C   0  0  2  0  0  0  0  0  0  0  0  0
    4.8157   -0.0030    3.3710 O   0  0  0  0  0  0  0  0  0  0  0  0
    3.5487   -0.4339    2.8988 C   0  0  1  0  0  0  0  0  0  0  0  0
    2.4692    0.2918    2.1364 C   0  0  0  0  0  0  0  0  0  0  0  0
    1.5707   -0.9123    2.4779 C   0  0  0  0  0  0  0  0  0  0  0  0
    2.5771   -1.3717    3.5587 C   0  0  1  0  0  0  0  0  0  0  0  0
    3.0782   -2.8211    3.7474 C   0  0  1  0  0  0  0  0  0  0  0  0
    0.3275   -2.4306    4.2595 H   0  0  0  0  0  0  0  0  0  0  0  0
   -0.0976   -4.1974    4.4667 H   0  0  0  0  0  0  0  0  0  0  0  0
    3.0620   -5.3488    4.9275 H   0  0  0  0  0  0  0  0  0  0  0  0
    1.7198   -7.0286    4.5699 H   0  0  0  0  0  0  0  0  0  0  0  0
    3.4559   -6.7120    2.8991 H   0  0  0  0  0  0  0  0  0  0  0  0
    4.5987   -5.9313   -0.6240 H   0  0  0  0  0  0  0  0  0  0  0  0
    2.2983   -2.8649   -0.4121 H   0  0  0  0  0  0  0  0  0  0  0  0
    3.4832   -0.9119   -1.8848 H   0  0  0  0  0  0  0  0  0  0  0  0
    6.3554   -3.8008   -1.6005 H   0  0  0  0  0  0  0  0  0  0  0  0
    5.3509   -6.3129    1.4709 H   0  0  0  0  0  0  0  0  0  0  0  0
    6.0575   -4.7686    1.1472 H   0  0  0  0  0  0  0  0  0  0  0  0
    6.3804   -4.6697    3.5373 H   0  0  0  0  0  0  0  0  0  0  0  0
    5.5168   -6.1389    3.9635 H   0  0  0  0  0  0  0  0  0  0  0  0
    5.0993   -4.6041    4.7235 H   0  0  0  0  0  0  0  0  0  0  0  0
    3.3905   -3.1405    1.7092 H   0  0  0  0  0  0  0  0  0  0  0  0
    5.8287   -2.3420    3.3278 H   0  0  0  0  0  0  0  0  0  0  0  0
    5.8435   -2.6047    1.5889 H   0  0  0  0  0  0  0  0  0  0  0  0
    5.0843   -0.4225    1.2793 H   0  0  0  0  0  0  0  0  0  0  0  0
    2.0961    1.1870    2.6493 H   0  0  0  0  0  0  0  0  0  0  0  0
    2.6425    0.5036    1.0771 H   0  0  0  0  0  0  0  0  0  0  0  0
    0.5670   -0.6724    2.8362 H   0  0  0  0  0  0  0  0  0  0  0  0
    1.5462   -1.6184    1.6432 H   0  0  0  0  0  0  0  0  0  0  0  0
    2.2509   -0.9557    4.5137 H   0  0  0  0  0  0  0  0  0  0  0  0
    3.6863   -2.8393    4.6528 H   0  0  0  0  0  0  0  0  0  0  0  0
  1  2  2  0
  1 27  1  0
  1 28  1  0
  2 26  1  0
  2  3  1  0
  3  4  1  0
  3  5  1  0
  3 29  1  1
  4 30  1  0
  5 16  1  0
  5  6  1  0
  5 31  1  1
  6  7  2  0
  6  8  1  0
  8  9  1  0
  9 10  1  0
  9 15  1  0
  9 32  1  6
 10 14  2  0
 10 11  1  0
 11 12  2  0
 11 33  1  0
 12 13  1  0
 12 34  1  0
 13 14  1  0
 14 35  1  0
 15 16  1  0
 15 36  1  0
 15 37  1  0
 16 17  1  1
 16 18  1  0
 17 38  1  0
 17 39  1  0
 17 40  1  0
 18 26  1  0
 18 19  1  0
 18 41  1  6
 19 20  1  0
 19 42  1  0
 19 43  1  0
 20 22  1  0
 20 21  1  0
 20 44  1  6
 22 21  1  1
 22 25  1  0
 22 23  1  0
 23 24  1  0
 23 45  1  0
 23 46  1  0
 24 25  1  0
 24 47  1  0
 24 48  1  0
 25 26  1  0
 25 49  1  1
 26 50  1  1
M  END
>  <i_m_ct_stereo_status>  (243) 
1

>  <s_m_source_file>  (243) 
/var/tmp/pbs.5076255.sched01/tmpy0mqr2dw/78t3ouse6d.sdf

>  <i_m_source_file_index>  (243) 
21

>  <i_lp_mmshare_version>  (243) 
48012

>  <i_f3d_flags>  (243) 
0

>  <s_epik_input>  (243) 
W0NIMl0xW0NIMl1bQ0BIXTJbQ0BIXTNDKD1bQ0gyXSlbQ0BASF0oW09IXSlbQ0BIXShbQ0BdNChbQ0gzXSlbQ0BASF0zW0NIMl1bQ0BIXShPNSlbQ0BAXTEyNSlDKD1PKU9bQ0BIXShbQ0gyXTQpYzZbY0hdW2NIXW9bY0hdNg==

>  <s_epik_cmdline>  (243) 
J2VwaWtfcHl0aG9uJywgJy1waHQnLCAnMi4wJywgJy1waCcsICc3LjAnLCAnLXRuJywgJzgnLCAnLW1hJywgJzIwMCcsICctaW1hZScsICc8aW5maWxlLm1hZT4nLCAnLW9tYWUnLCAnPG91dGZpbGUubWFlPic=

>  <r_lp_tautomer_probability>  (243) 
1

>  <r_epik_Ionization_Penalty>  (243) 
6.81221e-08

>  <r_epik_Ionization_Penalty_Charging>  (243) 
0

>  <r_epik_Ionization_Penalty_Neutral>  (243) 
6.81221e-08

>  <r_epik_State_Penalty>  (243) 
-0

>  <r_epik_Charging_Adjusted_Penalty>  (243) 
0

>  <i_epik_Tot_Q>  (243) 
0

>  <i_epik_Tot_abs_Q>  (243) 
0

>  <s_epik_Chemistry_Notes>  (243) 
This compound has an ester and may undergo hydrolysis at high or low pH.

>  <s_lp_Force_Field>  (243) 
OPLS3e

>  <r_lp_Energy>  (243) 
48.3599

>  <b_lp_Chiralities_Consistent>  (243) 
1

>  <s_lp_Variant>  (243) 
73:0-1

>  <s_i_glide_gridfile>  (243) 
pfpi4k_grid

>  <i_i_glide_lignum>  (243) 
21

>  <i_i_glide_rotatable_bonds>  (243) 
2

>  <r_i_docking_score>  (243) 
-3.03171

>  <r_i_glide_ligand_efficiency>  (243) 
-0.116604

>  <r_i_glide_ligand_efficiency_sa>  (243) 
-0.345439

>  <r_i_glide_ligand_efficiency_ln>  (243) 
-0.711986

>  <r_i_glide_gscore>  (243) 
-3.03171

>  <r_i_glide_lipo>  (243) 
-0.340415

>  <r_i_glide_hbond>  (243) 
-0.139025

>  <r_i_glide_metal>  (243) 
-0

>  <r_i_glide_rewards>  (243) 
-0.979007

>  <r_i_glide_evdw>  (243) 
-23.8614

>  <r_i_glide_ecoul>  (243) 
-3.34807

>  <r_i_glide_erotb>  (243) 
0.150611

>  <r_i_glide_esite>  (243) 
-0.0285896

>  <r_i_glide_emodel>  (243) 
-32.3033

>  <r_i_glide_energy>  (243) 
-27.2095

>  <r_i_glide_einternal>  (243) 
0.477182

>  <r_i_glide_intrahb_reward>  (243) 
-0

>  <i_i_glide_confnum>  (243) 
4

>  <i_i_glide_posenum>  (243) 
30

>  <r_i_glide_eff_state_penalty>  (243) 
0

>  <ligand_id>  (243) 
73

>  <original_smiles>  (243) 
C=C1C(O)C2C(=O)OC(c3ccoc3)CC2(C)C2CC3OC34CCC4C12

>  <smiles>  (243) 
[H]OC1([H])C(=C([H])[H])C2([H])C3([H])C([H])([H])C([H])([H])C34OC4([H])C([H])([H])C2([H])C2(C([H])([H])[H])C([H])([H])C([H])(c3c([H])oc([H])c3[H])OC(=O)C12[H]

$$$$
73:0:1
     RDKit          3D

 50 55  0  0  1  0  0  0  0  0999 V2000
    4.7218   -2.4028    4.5730 C   0  0  0  0  0  0  0  0  0  0  0  0
    4.9805   -3.4321    3.7380 C   0  0  0  0  0  0  0  0  0  0  0  0
    4.6425   -4.8744    4.0975 C   0  0  1  0  0  0  0  0  0  0  0  0
    4.0724   -5.0257    5.3886 O   0  0  0  0  0  0  0  0  0  0  0  0
    3.7935   -5.5543    2.9941 C   0  0  1  0  0  0  0  0  0  0  0  0
    2.3688   -4.9393    2.8639 C   0  0  0  0  0  0  0  0  0  0  0  0
    1.8265   -4.3683    3.8115 O   0  0  0  0  0  0  0  0  0  0  0  0
    1.6912   -5.1671    1.7195 O   0  0  0  0  0  0  0  0  0  0  0  0
    2.2563   -5.5539    0.4603 C   0  0  1  0  0  0  0  0  0  0  0  0
    2.1339   -4.4678   -0.6418 C   0  0  0  0  0  0  0  0  0  0  0  0
    3.0135   -3.4181   -1.0106 C   0  0  0  0  0  0  0  0  0  0  0  0
    2.6001   -2.7996   -2.1219 C   0  0  0  0  0  0  0  0  0  0  0  0
    1.3672   -3.2471   -2.4358 O   0  0  0  0  0  0  0  0  0  0  0  0
    1.1290   -4.2576   -1.5251 C   0  0  0  0  0  0  0  0  0  0  0  0
    3.6489   -6.2377    0.6163 C   0  0  0  0  0  0  0  0  0  0  0  0
    4.5893   -5.5821    1.6587 C   0  0  2  0  0  0  0  0  0  0  0  0
    5.8383   -6.4725    1.7783 C   0  0  0  0  0  0  0  0  0  0  0  0
    5.0332   -4.1410    1.2704 C   0  0  2  0  0  0  0  0  0  0  0  0
    5.9153   -4.0693   -0.0459 C   0  0  0  0  0  0  0  0  0  0  0  0
    6.1242   -2.6490   -0.5718 C   0  0  2  0  0  0  0  0  0  0  0  0
    7.3305   -1.8943   -0.2773 O   0  0  0  0  0  0  0  0  0  0  0  0
    6.1494   -1.5672    0.4580 C   0  0  1  0  0  0  0  0  0  0  0  0
    5.3219   -0.3199    0.4453 C   0  0  0  0  0  0  0  0  0  0  0  0
    4.7174   -0.7900    1.7698 C   0  0  0  0  0  0  0  0  0  0  0  0
    5.8539   -1.8211    1.9109 C   0  0  1  0  0  0  0  0  0  0  0  0
    5.6672   -3.2847    2.3627 C   0  0  1  0  0  0  0  0  0  0  0  0
    4.9841   -1.3847    4.3418 H   0  0  0  0  0  0  0  0  0  0  0  0
    4.2471   -2.5588    5.5301 H   0  0  0  0  0  0  0  0  0  0  0  0
    5.5893   -5.3943    4.1759 H   0  0  0  0  0  0  0  0  0  0  0  0
    3.1793   -4.7160    5.3497 H   0  0  0  0  0  0  0  0  0  0  0  0
    3.6133   -6.5848    3.2985 H   0  0  0  0  0  0  0  0  0  0  0  0
    1.5868   -6.3636    0.1242 H   0  0  0  0  0  0  0  0  0  0  0  0
    3.8865   -3.0754   -0.5706 H   0  0  0  0  0  0  0  0  0  0  0  0
    3.0367   -1.9765   -2.6481 H   0  0  0  0  0  0  0  0  0  0  0  0
    0.1628   -4.7273   -1.6612 H   0  0  0  0  0  0  0  0  0  0  0  0
    3.4604   -7.2512    0.9709 H   0  0  0  0  0  0  0  0  0  0  0  0
    4.1186   -6.3844   -0.3540 H   0  0  0  0  0  0  0  0  0  0  0  0
    6.2440   -6.7020    0.7959 H   0  0  0  0  0  0  0  0  0  0  0  0
    5.6100   -7.4152    2.2725 H   0  0  0  0  0  0  0  0  0  0  0  0
    6.6394   -5.9855    2.3340 H   0  0  0  0  0  0  0  0  0  0  0  0
    4.0942   -3.5988    1.2385 H   0  0  0  0  0  0  0  0  0  0  0  0
    6.8875   -4.5373    0.0663 H   0  0  0  0  0  0  0  0  0  0  0  0
    5.4410   -4.6541   -0.8397 H   0  0  0  0  0  0  0  0  0  0  0  0
    5.6385   -2.3870   -1.5106 H   0  0  0  0  0  0  0  0  0  0  0  0
    5.9403    0.5496    0.6431 H   0  0  0  0  0  0  0  0  0  0  0  0
    4.6398   -0.1273   -0.3794 H   0  0  0  0  0  0  0  0  0  0  0  0
    4.6158   -0.0476    2.5636 H   0  0  0  0  0  0  0  0  0  0  0  0
    3.7686   -1.2884    1.5761 H   0  0  0  0  0  0  0  0  0  0  0  0
    6.6229   -1.3331    2.4987 H   0  0  0  0  0  0  0  0  0  0  0  0
    6.6393   -3.7426    2.4376 H   0  0  0  0  0  0  0  0  0  0  0  0
  1  2  2  0
  1 27  1  0
  1 28  1  0
  2 26  1  0
  2  3  1  0
  3  4  1  0
  3  5  1  0
  3 29  1  1
  4 30  1  0
  5 16  1  0
  5  6  1  0
  5 31  1  1
  6  7  2  0
  6  8  1  0
  8  9  1  0
  9 10  1  0
  9 15  1  0
  9 32  1  6
 10 14  2  0
 10 11  1  0
 11 12  2  0
 11 33  1  0
 12 13  1  0
 12 34  1  0
 13 14  1  0
 14 35  1  0
 15 16  1  0
 15 36  1  0
 15 37  1  0
 16 17  1  1
 16 18  1  0
 17 38  1  0
 17 39  1  0
 17 40  1  0
 18 26  1  0
 18 19  1  0
 18 41  1  6
 19 20  1  0
 19 42  1  0
 19 43  1  0
 20 22  1  0
 20 21  1  0
 20 44  1  6
 22 21  1  1
 22 25  1  0
 22 23  1  0
 23 24  1  0
 23 45  1  0
 23 46  1  0
 24 25  1  0
 24 47  1  0
 24 48  1  0
 25 26  1  0
 25 49  1  1
 26 50  1  1
M  END
>  <i_m_ct_stereo_status>  (244) 
1

>  <s_m_source_file>  (244) 
/var/tmp/pbs.5076255.sched01/tmpy0mqr2dw/78t3ouse6d.sdf

>  <i_m_source_file_index>  (244) 
21

>  <i_lp_mmshare_version>  (244) 
48012

>  <i_f3d_flags>  (244) 
0

>  <s_epik_input>  (244) 
W0NIMl0xW0NIMl1bQ0BIXTJbQ0BIXTNDKD1bQ0gyXSlbQ0BASF0oW09IXSlbQ0BIXShbQ0BdNChbQ0gzXSlbQ0BASF0zW0NIMl1bQ0BIXShPNSlbQ0BAXTEyNSlDKD1PKU9bQ0BIXShbQ0gyXTQpYzZbY0hdW2NIXW9bY0hdNg==

>  <s_epik_cmdline>  (244) 
J2VwaWtfcHl0aG9uJywgJy1waHQnLCAnMi4wJywgJy1waCcsICc3LjAnLCAnLXRuJywgJzgnLCAnLW1hJywgJzIwMCcsICctaW1hZScsICc8aW5maWxlLm1hZT4nLCAnLW9tYWUnLCAnPG91dGZpbGUubWFlPic=

>  <r_lp_tautomer_probability>  (244) 
1

>  <r_epik_Ionization_Penalty>  (244) 
6.81221e-08

>  <r_epik_Ionization_Penalty_Charging>  (244) 
0

>  <r_epik_Ionization_Penalty_Neutral>  (244) 
6.81221e-08

>  <r_epik_State_Penalty>  (244) 
-0

>  <r_epik_Charging_Adjusted_Penalty>  (244) 
0

>  <i_epik_Tot_Q>  (244) 
0

>  <i_epik_Tot_abs_Q>  (244) 
0

>  <s_epik_Chemistry_Notes>  (244) 
This compound has an ester and may undergo hydrolysis at high or low pH.

>  <s_lp_Force_Field>  (244) 
OPLS3e

>  <r_lp_Energy>  (244) 
48.3599

>  <b_lp_Chiralities_Consistent>  (244) 
1

>  <s_lp_Variant>  (244) 
73:0-1

>  <s_i_glide_gridfile>  (244) 
pfpi4k_grid

>  <i_i_glide_lignum>  (244) 
21

>  <i_i_glide_rotatable_bonds>  (244) 
2

>  <r_i_docking_score>  (244) 
-2.52943

>  <r_i_glide_ligand_efficiency>  (244) 
-0.0972857

>  <r_i_glide_ligand_efficiency_sa>  (244) 
-0.288208

>  <r_i_glide_ligand_efficiency_ln>  (244) 
-0.594028

>  <r_i_glide_gscore>  (244) 
-2.52943

>  <r_i_glide_lipo>  (244) 
-0.871405

>  <r_i_glide_hbond>  (244) 
-0.210096

>  <r_i_glide_metal>  (244) 
-0

>  <r_i_glide_rewards>  (244) 
-1.47901

>  <r_i_glide_evdw>  (244) 
-6.07858

>  <r_i_glide_ecoul>  (244) 
0.290208

>  <r_i_glide_erotb>  (244) 
0.150611

>  <r_i_glide_esite>  (244) 
-0.00546016

>  <r_i_glide_emodel>  (244) 
-10.4463

>  <r_i_glide_energy>  (244) 
-5.78837

>  <r_i_glide_einternal>  (244) 
1.71993

>  <r_i_glide_intrahb_reward>  (244) 
-0.5

>  <i_i_glide_confnum>  (244) 
3

>  <i_i_glide_posenum>  (244) 
13

>  <r_i_glide_eff_state_penalty>  (244) 
0

>  <ligand_id>  (244) 
73

>  <original_smiles>  (244) 
C=C1C(O)C2C(=O)OC(c3ccoc3)CC2(C)C2CC3OC34CCC4C12

>  <smiles>  (244) 
[H]OC1([H])C(=C([H])[H])C2([H])C3([H])C([H])([H])C([H])([H])C34OC4([H])C([H])([H])C2([H])C2(C([H])([H])[H])C([H])([H])C([H])(c3c([H])oc([H])c3[H])OC(=O)C12[H]

$$$$
73:0:2
     RDKit          3D

 50 55  0  0  1  0  0  0  0  0999 V2000
    4.6241   -2.5448    4.6755 C   0  0  0  0  0  0  0  0  0  0  0  0
    4.9254   -3.5362    3.8091 C   0  0  0  0  0  0  0  0  0  0  0  0
    4.6034   -4.9967    4.1128 C   0  0  1  0  0  0  0  0  0  0  0  0
    4.0388   -5.2148    5.3968 O   0  0  0  0  0  0  0  0  0  0  0  0
    3.7684   -5.6491    2.9803 C   0  0  1  0  0  0  0  0  0  0  0  0
    2.3304   -5.0628    2.8538 C   0  0  0  0  0  0  0  0  0  0  0  0
    1.7554   -4.5297    3.8034 O   0  0  0  0  0  0  0  0  0  0  0  0
    1.6691   -5.2793    1.6952 O   0  0  0  0  0  0  0  0  0  0  0  0
    2.2588   -5.5901    0.4318 C   0  0  1  0  0  0  0  0  0  0  0  0
    2.1290   -4.4631   -0.6346 C   0  0  0  0  0  0  0  0  0  0  0  0
    2.9805   -3.3959   -0.9465 C   0  0  0  0  0  0  0  0  0  0  0  0
    2.5828   -2.7426   -2.0592 C   0  0  0  0  0  0  0  0  0  0  0  0
    1.3809   -3.2170   -2.4038 O   0  0  0  0  0  0  0  0  0  0  0  0
    1.1297   -4.2795   -1.5247 C   0  0  0  0  0  0  0  0  0  0  0  0
    3.6681   -6.2463    0.5759 C   0  0  0  0  0  0  0  0  0  0  0  0
    4.5838   -5.6122    1.6536 C   0  0  2  0  0  0  0  0  0  0  0  0
    5.8516   -6.4822    1.7524 C   0  0  0  0  0  0  0  0  0  0  0  0
    5.0025   -4.1503    1.3214 C   0  0  2  0  0  0  0  0  0  0  0  0
    5.8901   -4.0168    0.0142 C   0  0  0  0  0  0  0  0  0  0  0  0
    6.0697   -2.5762   -0.4565 C   0  0  2  0  0  0  0  0  0  0  0  0
    7.2694   -1.8242   -0.1274 O   0  0  0  0  0  0  0  0  0  0  0  0
    6.0796   -1.5291    0.6083 C   0  0  1  0  0  0  0  0  0  0  0  0
    5.2167   -0.2979    0.6210 C   0  0  0  0  0  0  0  0  0  0  0  0
    4.6130   -0.8280    1.9276 C   0  0  0  0  0  0  0  0  0  0  0  0
    5.7810   -1.8368    2.0528 C   0  0  1  0  0  0  0  0  0  0  0  0
    5.6316   -3.3243    2.4477 C   0  0  1  0  0  0  0  0  0  0  0  0
    4.8610   -1.5115    4.4870 H   0  0  0  0  0  0  0  0  0  0  0  0
    4.1344   -2.7475    5.6182 H   0  0  0  0  0  0  0  0  0  0  0  0
    5.5620   -5.4985    4.1768 H   0  0  0  0  0  0  0  0  0  0  0  0
    4.0571   -6.1422    5.5731 H   0  0  0  0  0  0  0  0  0  0  0  0
    3.6111   -6.6963    3.2416 H   0  0  0  0  0  0  0  0  0  0  0  0
    1.6149   -6.4023    0.0651 H   0  0  0  0  0  0  0  0  0  0  0  0
    3.8345   -3.0242   -0.4814 H   0  0  0  0  0  0  0  0  0  0  0  0
    2.9879   -1.8854   -2.5408 H   0  0  0  0  0  0  0  0  0  0  0  0
    0.1741   -4.7482   -1.6949 H   0  0  0  0  0  0  0  0  0  0  0  0
    3.4989   -7.2790    0.8918 H   0  0  0  0  0  0  0  0  0  0  0  0
    4.1510   -6.3521   -0.3937 H   0  0  0  0  0  0  0  0  0  0  0  0
    6.2705   -6.6648    0.7648 H   0  0  0  0  0  0  0  0  0  0  0  0
    5.6389   -7.4470    2.2085 H   0  0  0  0  0  0  0  0  0  0  0  0
    6.6358   -5.9988    2.3317 H   0  0  0  0  0  0  0  0  0  0  0  0
    4.0539   -3.6299    1.3039 H   0  0  0  0  0  0  0  0  0  0  0  0
    6.8720   -4.4645    0.1181 H   0  0  0  0  0  0  0  0  0  0  0  0
    5.4346   -4.5795   -0.8052 H   0  0  0  0  0  0  0  0  0  0  0  0
    5.5938   -2.2880   -1.3899 H   0  0  0  0  0  0  0  0  0  0  0  0
    5.7989    0.5869    0.8586 H   0  0  0  0  0  0  0  0  0  0  0  0
    4.5317   -0.0938   -0.2082 H   0  0  0  0  0  0  0  0  0  0  0  0
    4.4851   -0.1164    2.7451 H   0  0  0  0  0  0  0  0  0  0  0  0
    3.6781   -1.3392    1.7157 H   0  0  0  0  0  0  0  0  0  0  0  0
    6.5382   -1.3588    2.6667 H   0  0  0  0  0  0  0  0  0  0  0  0
    6.6068   -3.7552    2.4984 H   0  0  0  0  0  0  0  0  0  0  0  0
  1  2  2  0
  1 27  1  0
  1 28  1  0
  2 26  1  0
  2  3  1  0
  3  4  1  0
  3  5  1  0
  3 29  1  1
  4 30  1  0
  5 16  1  0
  5  6  1  0
  5 31  1  1
  6  7  2  0
  6  8  1  0
  8  9  1  0
  9 10  1  0
  9 15  1  0
  9 32  1  6
 10 14  2  0
 10 11  1  0
 11 12  2  0
 11 33  1  0
 12 13  1  0
 12 34  1  0
 13 14  1  0
 14 35  1  0
 15 16  1  0
 15 36  1  0
 15 37  1  0
 16 17  1  1
 16 18  1  0
 17 38  1  0
 17 39  1  0
 17 40  1  0
 18 26  1  0
 18 19  1  0
 18 41  1  6
 19 20  1  0
 19 42  1  0
 19 43  1  0
 20 22  1  0
 20 21  1  0
 20 44  1  6
 22 21  1  1
 22 25  1  0
 22 23  1  0
 23 24  1  0
 23 45  1  0
 23 46  1  0
 24 25  1  0
 24 47  1  0
 24 48  1  0
 25 26  1  0
 25 49  1  1
 26 50  1  1
M  END
>  <i_m_ct_stereo_status>  (245) 
1

>  <s_m_source_file>  (245) 
/var/tmp/pbs.5076255.sched01/tmpy0mqr2dw/78t3ouse6d.sdf

>  <i_m_source_file_index>  (245) 
21

>  <i_lp_mmshare_version>  (245) 
48012

>  <i_f3d_flags>  (245) 
0

>  <s_epik_input>  (245) 
W0NIMl0xW0NIMl1bQ0BIXTJbQ0BIXTNDKD1bQ0gyXSlbQ0BASF0oW09IXSlbQ0BIXShbQ0BdNChbQ0gzXSlbQ0BASF0zW0NIMl1bQ0BIXShPNSlbQ0BAXTEyNSlDKD1PKU9bQ0BIXShbQ0gyXTQpYzZbY0hdW2NIXW9bY0hdNg==

>  <s_epik_cmdline>  (245) 
J2VwaWtfcHl0aG9uJywgJy1waHQnLCAnMi4wJywgJy1waCcsICc3LjAnLCAnLXRuJywgJzgnLCAnLW1hJywgJzIwMCcsICctaW1hZScsICc8aW5maWxlLm1hZT4nLCAnLW9tYWUnLCAnPG91dGZpbGUubWFlPic=

>  <r_lp_tautomer_probability>  (245) 
1

>  <r_epik_Ionization_Penalty>  (245) 
6.81221e-08

>  <r_epik_Ionization_Penalty_Charging>  (245) 
0

>  <r_epik_Ionization_Penalty_Neutral>  (245) 
6.81221e-08

>  <r_epik_State_Penalty>  (245) 
-0

>  <r_epik_Charging_Adjusted_Penalty>  (245) 
0

>  <i_epik_Tot_Q>  (245) 
0

>  <i_epik_Tot_abs_Q>  (245) 
0

>  <s_epik_Chemistry_Notes>  (245) 
This compound has an ester and may undergo hydrolysis at high or low pH.

>  <s_lp_Force_Field>  (245) 
OPLS3e

>  <r_lp_Energy>  (245) 
48.3599

>  <b_lp_Chiralities_Consistent>  (245) 
1

>  <s_lp_Variant>  (245) 
73:0-1

>  <s_i_glide_gridfile>  (245) 
pfpi4k_grid

>  <i_i_glide_lignum>  (245) 
21

>  <i_i_glide_rotatable_bonds>  (245) 
2

>  <r_i_docking_score>  (245) 
-1.59809

>  <r_i_glide_ligand_efficiency>  (245) 
-0.0614651

>  <r_i_glide_ligand_efficiency_sa>  (245) 
-0.18209

>  <r_i_glide_ligand_efficiency_ln>  (245) 
-0.375307

>  <r_i_glide_gscore>  (245) 
-1.59809

>  <r_i_glide_lipo>  (245) 
-0.85437

>  <r_i_glide_hbond>  (245) 
-0.205379

>  <r_i_glide_metal>  (245) 
-0

>  <r_i_glide_rewards>  (245) 
-0.979007

>  <r_i_glide_evdw>  (245) 
-6.39455

>  <r_i_glide_ecoul>  (245) 
0.466289

>  <r_i_glide_erotb>  (245) 
0.150611

>  <r_i_glide_esite>  (245) 
-0.00608752

>  <r_i_glide_emodel>  (245) 
-2.73804

>  <r_i_glide_energy>  (245) 
-5.92827

>  <r_i_glide_einternal>  (245) 
2.19118

>  <r_i_glide_intrahb_reward>  (245) 
-0

>  <i_i_glide_confnum>  (245) 
3

>  <i_i_glide_posenum>  (245) 
18

>  <r_i_glide_eff_state_penalty>  (245) 
0

>  <ligand_id>  (245) 
73

>  <original_smiles>  (245) 
C=C1C(O)C2C(=O)OC(c3ccoc3)CC2(C)C2CC3OC34CCC4C12

>  <smiles>  (245) 
[H]OC1([H])C(=C([H])[H])C2([H])C3([H])C([H])([H])C([H])([H])C34OC4([H])C([H])([H])C2([H])C2(C([H])([H])[H])C([H])([H])C([H])(c3c([H])oc([H])c3[H])OC(=O)C12[H]

$$$$
74:0:0
     RDKit          3D

 94 99  0  0  1  0  0  0  0  0999 V2000
   -1.2030    0.8761    2.9327 C   0  0  0  0  0  0  0  0  0  0  0  0
    0.0040    1.4917    2.9403 C   0  0  0  0  0  0  0  0  0  0  0  0
    0.7970    1.4784    1.6454 C   0  0  0  0  0  0  0  0  0  0  0  0
    0.7638    2.1131    4.1714 C   0  0  2  0  0  0  0  0  0  0  0  0
    0.9577    3.5924    3.8710 O   0  0  0  0  0  0  0  0  0  0  0  0
    1.3361    4.5594    5.0005 C   0  0  1  0  0  0  0  0  0  0  0  0
    0.4515    5.4263    6.0417 C   0  0  0  0  0  0  0  0  0  0  0  0
    0.5213    5.1682    7.6201 C   0  0  0  0  0  0  0  0  0  0  0  0
    0.8954    6.1648    8.2370 O   0  0  0  0  0  0  0  0  0  0  0  0
    0.1685    3.7933    8.4428 C   0  0  2  0  0  0  0  0  0  0  0  0
   -0.1803    4.2898    9.9212 C   0  0  2  0  0  0  0  0  0  0  0  0
    0.7121    3.8804   11.0713 C   0  0  0  0  0  0  0  0  0  0  0  0
    0.8104    2.3650   11.0739 C   0  0  0  0  0  0  0  0  0  0  0  0
    1.7368    1.8977    9.9415 C   0  0  1  0  0  0  0  0  0  0  0  0
    3.1861    2.3120   10.3677 C   0  0  0  0  0  0  0  0  0  0  0  0
    1.6649    0.3317    9.9372 C   0  0  0  0  0  0  0  0  0  0  0  0
    2.0850   -0.2615   11.1473 O   0  0  0  0  0  0  0  0  0  0  0  0
    1.2432    2.4460    8.5074 C   0  0  2  0  0  0  0  0  0  0  0  0
    2.3887    2.0630    7.4079 C   0  0  1  0  0  0  0  0  0  0  0  0
    2.3186    0.8899    6.2861 C   0  0  0  0  0  0  0  0  0  0  0  0
    1.9560    1.0494    4.6777 C   0  0  1  0  0  0  0  0  0  0  0  0
    1.8837   -0.3929    4.0627 C   0  0  0  0  0  0  0  0  0  0  0  0
    2.8936    3.2651    6.7378 C   0  0  0  0  0  0  0  0  0  0  0  0
    3.3433    4.4313    7.6789 C   0  0  0  0  0  0  0  0  0  0  0  0
    4.3195    2.9883    6.0713 C   0  0  0  0  0  0  0  0  0  0  0  0
    1.5937    3.4284    5.8220 C   0  0  0  0  0  0  0  0  0  0  0  0
    0.1463    2.5620    5.4707 C   0  0  1  0  0  0  0  0  0  0  0  0
   -0.9891    3.4826    5.1808 O   0  0  0  0  0  0  0  0  0  0  0  0
   -2.1328    3.4467    4.3798 C   0  0  0  0  0  0  0  0  0  0  0  0
   -2.2080    4.5824    3.5646 O   0  0  0  0  0  0  0  0  0  0  0  0
   -3.1364    4.3985    2.4889 C   0  0  0  0  0  0  0  0  0  0  0  0
   -0.7637    1.5125    6.2881 C   0  0  1  0  0  0  0  0  0  0  0  0
   -0.3331    0.1578    6.5242 O   0  0  0  0  0  0  0  0  0  0  0  0
   -0.9296   -0.9409    5.9918 C   0  0  0  0  0  0  0  0  0  0  0  0
   -0.1191   -2.2111    6.2371 C   0  0  0  0  0  0  0  0  0  0  0  0
   -2.0085   -0.9815    5.3981 O   0  0  0  0  0  0  0  0  0  0  0  0
   -1.5838    2.0210    7.5102 C   0  0  0  0  0  0  0  0  0  0  0  0
   -1.3216    3.4471    8.0308 C   0  0  1  0  0  0  0  0  0  0  0  0
   -2.2934    3.8852    9.1645 C   0  0  0  0  0  0  0  0  0  0  0  0
   -2.8334    5.3276    9.0078 C   0  0  0  0  0  0  0  0  0  0  0  0
   -3.4786    2.9537    9.4956 C   0  0  0  0  0  0  0  0  0  0  0  0
   -1.4636    3.8351   10.2830 O   0  0  0  0  0  0  0  0  0  0  0  0
   -1.6354    0.5071    2.0185 H   0  0  0  0  0  0  0  0  0  0  0  0
   -1.8187    0.7651    3.8388 H   0  0  0  0  0  0  0  0  0  0  0  0
    1.7556    0.9703    1.7227 H   0  0  0  0  0  0  0  0  0  0  0  0
    0.9882    2.4961    1.2979 H   0  0  0  0  0  0  0  0  0  0  0  0
    0.2146    0.9388    0.8724 H   0  0  0  0  0  0  0  0  0  0  0  0
    2.2253    5.1487    4.7460 H   0  0  0  0  0  0  0  0  0  0  0  0
    0.7755    6.4627    5.9049 H   0  0  0  0  0  0  0  0  0  0  0  0
   -0.5903    5.5292    5.7476 H   0  0  0  0  0  0  0  0  0  0  0  0
   -0.2860    5.3685   10.0261 H   0  0  0  0  0  0  0  0  0  0  0  0
    1.6778    4.3726   11.0091 H   0  0  0  0  0  0  0  0  0  0  0  0
    0.2788    4.2148   12.0148 H   0  0  0  0  0  0  0  0  0  0  0  0
    1.1755    2.0320   12.0493 H   0  0  0  0  0  0  0  0  0  0  0  0
   -0.1795    1.9078   10.9746 H   0  0  0  0  0  0  0  0  0  0  0  0
    3.9686    1.7271    9.8946 H   0  0  0  0  0  0  0  0  0  0  0  0
    3.3413    2.1708   11.4365 H   0  0  0  0  0  0  0  0  0  0  0  0
    3.4107    3.3559   10.1851 H   0  0  0  0  0  0  0  0  0  0  0  0
    0.6460   -0.0100    9.7485 H   0  0  0  0  0  0  0  0  0  0  0  0
    2.2756   -0.0915    9.1438 H   0  0  0  0  0  0  0  0  0  0  0  0
    1.5044    0.0139   11.8432 H   0  0  0  0  0  0  0  0  0  0  0  0
    0.5901    1.6307    8.3205 H   0  0  0  0  0  0  0  0  0  0  0  0
    3.2358    1.6958    7.9709 H   0  0  0  0  0  0  0  0  0  0  0  0
    3.3339    0.5211    6.2152 H   0  0  0  0  0  0  0  0  0  0  0  0
    1.9050   -0.0029    6.7164 H   0  0  0  0  0  0  0  0  0  0  0  0
    2.8363    1.4301    4.1608 H   0  0  0  0  0  0  0  0  0  0  0  0
    0.9406   -0.8635    4.3212 H   0  0  0  0  0  0  0  0  0  0  0  0
    2.7266   -0.9913    4.4557 H   0  0  0  0  0  0  0  0  0  0  0  0
    1.9158   -0.4505    2.9941 H   0  0  0  0  0  0  0  0  0  0  0  0
    3.3460    5.3832    7.1463 H   0  0  0  0  0  0  0  0  0  0  0  0
    4.3539    4.3076    8.0723 H   0  0  0  0  0  0  0  0  0  0  0  0
    2.7605    4.5511    8.5808 H   0  0  0  0  0  0  0  0  0  0  0  0
    4.7346    3.8912    5.6201 H   0  0  0  0  0  0  0  0  0  0  0  0
    4.3720    2.2268    5.2997 H   0  0  0  0  0  0  0  0  0  0  0  0
    5.0506    2.6687    6.8159 H   0  0  0  0  0  0  0  0  0  0  0  0
    2.4105    3.2374    5.1441 H   0  0  0  0  0  0  0  0  0  0  0  0
   -2.2353    2.6426    3.7650 H   0  0  0  0  0  0  0  0  0  0  0  0
   -3.0257    3.4304    5.0653 H   0  0  0  0  0  0  0  0  0  0  0  0
   -3.2171    5.3043    1.9094 H   0  0  0  0  0  0  0  0  0  0  0  0
   -4.1318    4.1534    2.8428 H   0  0  0  0  0  0  0  0  0  0  0  0
   -2.9030    3.5513    1.8414 H   0  0  0  0  0  0  0  0  0  0  0  0
   -1.5810    1.3716    5.5963 H   0  0  0  0  0  0  0  0  0  0  0  0
   -0.0688   -2.4288    7.3006 H   0  0  0  0  0  0  0  0  0  0  0  0
    0.9086   -2.1118    5.8917 H   0  0  0  0  0  0  0  0  0  0  0  0
   -0.5619   -3.0448    5.6959 H   0  0  0  0  0  0  0  0  0  0  0  0
   -2.6231    1.9607    7.1986 H   0  0  0  0  0  0  0  0  0  0  0  0
   -1.5050    1.3092    8.3289 H   0  0  0  0  0  0  0  0  0  0  0  0
   -1.6575    4.1104    7.2483 H   0  0  0  0  0  0  0  0  0  0  0  0
   -3.5776    5.3913    8.2178 H   0  0  0  0  0  0  0  0  0  0  0  0
   -2.0584    6.0583    8.7834 H   0  0  0  0  0  0  0  0  0  0  0  0
   -3.3160    5.6542    9.9294 H   0  0  0  0  0  0  0  0  0  0  0  0
   -4.1880    2.8779    8.6725 H   0  0  0  0  0  0  0  0  0  0  0  0
   -4.0329    3.3207   10.3620 H   0  0  0  0  0  0  0  0  0  0  0  0
   -3.1383    1.9583    9.7702 H   0  0  0  0  0  0  0  0  0  0  0  0
  1  2  2  0
  1 43  1  0
  1 44  1  0
  2  3  1  0
  4  2  1  6
  3 45  1  0
  3 46  1  0
  3 47  1  0
  4 21  1  0
  4 27  1  0
  4  5  1  0
  5  6  1  0
  6 26  1  0
  6  7  1  0
  6 48  1  6
  7  8  1  0
  7 49  1  0
  7 50  1  0
  8  9  2  0
 10  8  1  6
 10 18  1  0
 10 38  1  0
 10 11  1  0
 11 42  1  0
 11 12  1  0
 11 51  1  6
 12 13  1  0
 12 52  1  0
 12 53  1  0
 13 14  1  0
 13 54  1  0
 13 55  1  0
 14 15  1  1
 14 16  1  0
 14 18  1  0
 15 56  1  0
 15 57  1  0
 15 58  1  0
 16 17  1  0
 16 59  1  0
 16 60  1  0
 17 61  1  0
 18 19  1  0
 18 62  1  6
 19 20  1  0
 19 23  1  0
 19 63  1  1
 20 21  1  0
 20 64  1  0
 20 65  1  0
 21 22  1  0
 21 66  1  6
 22 67  1  0
 22 68  1  0
 22 69  1  0
 23 24  1  0
 23 25  1  0
 23 26  1  0
 24 70  1  0
 24 71  1  0
 24 72  1  0
 25 73  1  0
 25 74  1  0
 25 75  1  0
 26 27  1  0
 26 76  1  0
 27 28  1  6
 27 32  1  0
 28 29  1  0
 29 30  1  0
 29 77  1  0
 29 78  1  0
 30 31  1  0
 31 79  1  0
 31 80  1  0
 31 81  1  0
 32 33  1  0
 32 37  1  0
 32 82  1  6
 33 34  1  0
 34 35  1  0
 34 36  2  0
 35 83  1  0
 35 84  1  0
 35 85  1  0
 37 38  1  0
 37 86  1  0
 37 87  1  0
 38 39  1  0
 38 88  1  6
 39 40  1  0
 39 41  1  0
 39 42  1  0
 40 89  1  0
 40 90  1  0
 40 91  1  0
 41 92  1  0
 41 93  1  0
 41 94  1  0
M  END
>  <i_m_ct_stereo_status>  (246) 
1

>  <s_m_source_file>  (246) 
/var/tmp/pbs.5076255.sched01/tmpy0mqr2dw/78t3ouse6d.sdf

>  <i_m_source_file_index>  (246) 
22

>  <i_lp_mmshare_version>  (246) 
48012

>  <i_f3d_flags>  (246) 
0

>  <s_epik_input>  (246) 
Tz1DMVtDSDJdW0NASF0oTzIpW0NAQEhdKEMzKFtDSDNdKVtDSDNdKVtDQF0oT1tDSDJdT1tDSDNdKShbQ0BASF0oT0MoPU8pW0NIM10pW0NIMl1bQ0BIXTRDKE81KShbQ0gzXSlbQ0gzXSlbQ0BdMihDKD1bQ0gyXSlbQ0gzXSlbQ0BIXShbQ0gzXSlbQ0gyXVtDQEBIXTNbQ0BIXTZbQ0BdKFtDSDNdKShbQ0gyXVtPSF0pW0NIMl1bQ0gyXVtDQEhdNVtDQF0xNDY=

>  <s_epik_cmdline>  (246) 
J2VwaWtfcHl0aG9uJywgJy1waHQnLCAnMi4wJywgJy1waCcsICc3LjAnLCAnLXRuJywgJzgnLCAnLW1hJywgJzIwMCcsICctaW1hZScsICc8aW5maWxlLm1hZT4nLCAnLW9tYWUnLCAnPG91dGZpbGUubWFlPic=

>  <r_lp_tautomer_probability>  (246) 
1

>  <r_epik_Ionization_Penalty>  (246) 
5.62001e-07

>  <r_epik_Ionization_Penalty_Charging>  (246) 
0

>  <r_epik_Ionization_Penalty_Neutral>  (246) 
5.62001e-07

>  <r_epik_State_Penalty>  (246) 
-0

>  <r_epik_Charging_Adjusted_Penalty>  (246) 
0

>  <i_epik_Tot_Q>  (246) 
0

>  <i_epik_Tot_abs_Q>  (246) 
0

>  <s_epik_Chemistry_Notes>  (246) 
This compound has an ester and may undergo hydrolysis at high or low pH. This compound contains an acetal/aminal-like group ( X-CH(R)-Y where X, Y are N, S, or O) that may be acid/base labile, releasing an aldehyde.

>  <s_lp_Force_Field>  (246) 
OPLS3e

>  <r_lp_Energy>  (246) 
361.123

>  <b_lp_Chiralities_Consistent>  (246) 
1

>  <s_lp_Variant>  (246) 
74:0-1

>  <s_i_glide_gridfile>  (246) 
pfpi4k_grid

>  <i_i_glide_lignum>  (246) 
22

>  <i_i_glide_rotatable_bonds>  (246) 
8

>  <r_i_docking_score>  (246) 
-1.34998

>  <r_i_glide_ligand_efficiency>  (246) 
-0.0321425

>  <r_i_glide_ligand_efficiency_sa>  (246) 
-0.111728

>  <r_i_glide_ligand_efficiency_ln>  (246) 
-0.284947

>  <r_i_glide_gscore>  (246) 
-1.34998

>  <r_i_glide_lipo>  (246) 
-0.00225381

>  <r_i_glide_hbond>  (246) 
-0.16

>  <r_i_glide_metal>  (246) 
-0

>  <r_i_glide_rewards>  (246) 
0

>  <r_i_glide_evdw>  (246) 
-22.7872

>  <r_i_glide_ecoul>  (246) 
-1.5076

>  <r_i_glide_erotb>  (246) 
0.194811

>  <r_i_glide_esite>  (246) 
-0.099025

>  <r_i_glide_emodel>  (246) 
-18.4932

>  <r_i_glide_energy>  (246) 
-24.2948

>  <r_i_glide_einternal>  (246) 
7.36841

>  <r_i_glide_intrahb_reward>  (246) 
-0

>  <i_i_glide_confnum>  (246) 
4

>  <i_i_glide_posenum>  (246) 
1

>  <r_i_glide_eff_state_penalty>  (246) 
0

>  <ligand_id>  (246) 
74

>  <original_smiles>  (246) 
C=C(C)C12OC3CC(=O)C45C6CCC(C)(CO)C4C(CC1C)C(C)(C)C3C2(OCOC)C(OC(C)=O)CC5C(C)(C)O6

>  <smiles>  (246) 
[H]OC([H])([H])C1(C([H])([H])[H])C([H])([H])C([H])([H])C2([H])OC(C([H])([H])[H])(C([H])([H])[H])C3([H])C([H])([H])C([H])(OC(=O)C([H])([H])[H])C4(OC([H])([H])OC([H])([H])[H])C5(C(=C([H])[H])C([H])([H])[H])OC6([H])C([H])([H])C(=O)C23C1([H])C([H])(C([H])([H])C5([H])C([H])([H])[H])C(C([H])([H])[H])(C([H])([H])[H])C64[H]

$$$$
74:0:1
     RDKit          3D

 94 99  0  0  1  0  0  0  0  0999 V2000
   -3.1519    2.9328    4.8599 C   0  0  0  0  0  0  0  0  0  0  0  0
   -2.1709    3.6758    4.2301 C   0  0  0  0  0  0  0  0  0  0  0  0
   -2.5750    4.3070    2.9576 C   0  0  0  0  0  0  0  0  0  0  0  0
   -0.6956    3.8197    4.7304 C   0  0  2  0  0  0  0  0  0  0  0  0
   -0.5762    5.2311    5.2869 O   0  0  0  0  0  0  0  0  0  0  0  0
    0.6370    5.6106    6.1546 C   0  0  1  0  0  0  0  0  0  0  0  0
    0.9142    5.5147    7.7345 C   0  0  0  0  0  0  0  0  0  0  0  0
    2.0662    4.5650    8.3414 C   0  0  0  0  0  0  0  0  0  0  0  0
    2.9056    5.2062    8.9894 O   0  0  0  0  0  0  0  0  0  0  0  0
    2.2392    2.9425    8.2088 C   0  0  2  0  0  0  0  0  0  0  0  0
    3.1381    2.5183    9.4571 C   0  0  2  0  0  0  0  0  0  0  0  0
    4.5159    1.9468    9.2120 C   0  0  0  0  0  0  0  0  0  0  0  0
    4.3728    0.7533    8.2797 C   0  0  0  0  0  0  0  0  0  0  0  0
    4.1092    1.2281    6.8532 C   0  0  1  0  0  0  0  0  0  0  0  0
    5.4480    1.8671    6.3933 C   0  0  0  0  0  0  0  0  0  0  0  0
    3.8391   -0.0583    5.9965 C   0  0  0  0  0  0  0  0  0  0  0  0
    4.9478   -0.9315    5.8994 O   0  0  0  0  0  0  0  0  0  0  0  0
    2.8205    2.1843    6.7689 C   0  0  2  0  0  0  0  0  0  0  0  0
    2.7316    2.7949    5.2521 C   0  0  1  0  0  0  0  0  0  0  0  0
    1.7021    2.3513    4.0720 C   0  0  0  0  0  0  0  0  0  0  0  0
    0.3001    3.0926    3.6023 C   0  0  1  0  0  0  0  0  0  0  0  0
   -0.3412    2.1136    2.5782 C   0  0  0  0  0  0  0  0  0  0  0  0
    2.7532    4.2641    5.2793 C   0  0  0  0  0  0  0  0  0  0  0  0
    3.9001    4.9142    6.1144 C   0  0  0  0  0  0  0  0  0  0  0  0
    3.1779    4.8483    3.8586 C   0  0  0  0  0  0  0  0  0  0  0  0
    1.2351    4.3902    5.7631 C   0  0  0  0  0  0  0  0  0  0  0  0
   -0.1079    3.3585    6.0281 C   0  0  1  0  0  0  0  0  0  0  0  0
   -0.9449    3.8550    7.1552 O   0  0  0  0  0  0  0  0  0  0  0  0
   -2.2955    3.7447    7.4764 C   0  0  0  0  0  0  0  0  0  0  0  0
   -2.6838    4.6881    8.3990 O   0  0  0  0  0  0  0  0  0  0  0  0
   -2.1865    4.4992    9.7043 C   0  0  0  0  0  0  0  0  0  0  0  0
   -0.2389    1.8180    6.4485 C   0  0  1  0  0  0  0  0  0  0  0  0
    0.0251    0.7368    5.5414 O   0  0  0  0  0  0  0  0  0  0  0  0
   -0.7662   -0.3721    5.3741 C   0  0  0  0  0  0  0  0  0  0  0  0
   -2.1835   -0.2569    5.9024 C   0  0  0  0  0  0  0  0  0  0  0  0
   -0.4257   -1.3904    4.7641 O   0  0  0  0  0  0  0  0  0  0  0  0
    0.1320    1.3498    7.8789 C   0  0  0  0  0  0  0  0  0  0  0  0
    0.8921    2.3339    8.7811 C   0  0  1  0  0  0  0  0  0  0  0  0
    1.1085    1.8176   10.2355 C   0  0  0  0  0  0  0  0  0  0  0  0
    0.8247    2.8759   11.3317 C   0  0  0  0  0  0  0  0  0  0  0  0
    0.4203    0.4949   10.6361 C   0  0  0  0  0  0  0  0  0  0  0  0
    2.4728    1.5331   10.2184 O   0  0  0  0  0  0  0  0  0  0  0  0
   -4.1336    2.9236    4.4164 H   0  0  0  0  0  0  0  0  0  0  0  0
   -2.9946    2.3730    5.7503 H   0  0  0  0  0  0  0  0  0  0  0  0
   -1.9350    4.1309    2.1102 H   0  0  0  0  0  0  0  0  0  0  0  0
   -2.5389    5.3517    3.0865 H   0  0  0  0  0  0  0  0  0  0  0  0
   -3.6001    4.0600    2.6809 H   0  0  0  0  0  0  0  0  0  0  0  0
    1.1208    6.5102    5.7728 H   0  0  0  0  0  0  0  0  0  0  0  0
    1.1861    6.5269    8.0530 H   0  0  0  0  0  0  0  0  0  0  0  0
    0.0134    5.3974    8.3148 H   0  0  0  0  0  0  0  0  0  0  0  0
    3.2886    3.3067   10.1929 H   0  0  0  0  0  0  0  0  0  0  0  0
    5.1861    2.7127    8.8277 H   0  0  0  0  0  0  0  0  0  0  0  0
    4.9544    1.6257   10.1565 H   0  0  0  0  0  0  0  0  0  0  0  0
    5.2769    0.1435    8.3326 H   0  0  0  0  0  0  0  0  0  0  0  0
    3.5712    0.0919    8.6188 H   0  0  0  0  0  0  0  0  0  0  0  0
    5.5465    1.8737    5.3225 H   0  0  0  0  0  0  0  0  0  0  0  0
    6.3145    1.2972    6.7049 H   0  0  0  0  0  0  0  0  0  0  0  0
    5.6145    2.8826    6.7095 H   0  0  0  0  0  0  0  0  0  0  0  0
    3.0126   -0.6345    6.4216 H   0  0  0  0  0  0  0  0  0  0  0  0
    3.5372    0.1899    4.9817 H   0  0  0  0  0  0  0  0  0  0  0  0
    4.7151   -1.6430    5.3286 H   0  0  0  0  0  0  0  0  0  0  0  0
    2.1322    1.3836    6.6410 H   0  0  0  0  0  0  0  0  0  0  0  0
    3.6651    2.5219    4.7720 H   0  0  0  0  0  0  0  0  0  0  0  0
    2.3000    2.4371    3.1607 H   0  0  0  0  0  0  0  0  0  0  0  0
    1.6217    1.2703    4.0532 H   0  0  0  0  0  0  0  0  0  0  0  0
    0.5778    3.9383    2.9717 H   0  0  0  0  0  0  0  0  0  0  0  0
   -0.7804    1.2466    3.0680 H   0  0  0  0  0  0  0  0  0  0  0  0
    0.4239    1.7781    1.8744 H   0  0  0  0  0  0  0  0  0  0  0  0
   -1.0999    2.5470    1.9513 H   0  0  0  0  0  0  0  0  0  0  0  0
    3.6459    5.9382    6.3900 H   0  0  0  0  0  0  0  0  0  0  0  0
    4.8479    4.9739    5.5793 H   0  0  0  0  0  0  0  0  0  0  0  0
    4.1797    4.3812    7.0124 H   0  0  0  0  0  0  0  0  0  0  0  0
    3.2614    5.9364    3.8727 H   0  0  0  0  0  0  0  0  0  0  0  0
    2.5531    4.6085    3.0016 H   0  0  0  0  0  0  0  0  0  0  0  0
    4.1575    4.4699    3.5955 H   0  0  0  0  0  0  0  0  0  0  0  0
    1.2615    4.8225    4.7675 H   0  0  0  0  0  0  0  0  0  0  0  0
   -2.9168    4.0828    6.6786 H   0  0  0  0  0  0  0  0  0  0  0  0
   -2.5690    2.7561    7.8251 H   0  0  0  0  0  0  0  0  0  0  0  0
   -2.5900    5.3010   10.3422 H   0  0  0  0  0  0  0  0  0  0  0  0
   -1.1005    4.5947    9.6857 H   0  0  0  0  0  0  0  0  0  0  0  0
   -2.4697    3.5022   10.0770 H   0  0  0  0  0  0  0  0  0  0  0  0
   -1.3074    1.7858    6.4837 H   0  0  0  0  0  0  0  0  0  0  0  0
   -2.6201    0.4850    5.2429 H   0  0  0  0  0  0  0  0  0  0  0  0
   -2.1997    0.1209    6.9285 H   0  0  0  0  0  0  0  0  0  0  0  0
   -2.7704   -1.1738    5.7932 H   0  0  0  0  0  0  0  0  0  0  0  0
   -0.8038    1.0958    8.3713 H   0  0  0  0  0  0  0  0  0  0  0  0
    0.6758    0.4042    7.8354 H   0  0  0  0  0  0  0  0  0  0  0  0
    0.1838    3.1248    8.9637 H   0  0  0  0  0  0  0  0  0  0  0  0
   -0.2449    3.0480   11.4584 H   0  0  0  0  0  0  0  0  0  0  0  0
    1.2829    3.8426   11.1253 H   0  0  0  0  0  0  0  0  0  0  0  0
    1.2044    2.5454   12.2994 H   0  0  0  0  0  0  0  0  0  0  0  0
   -0.6666    0.5820   10.6454 H   0  0  0  0  0  0  0  0  0  0  0  0
    0.7197    0.1987   11.6425 H   0  0  0  0  0  0  0  0  0  0  0  0
    0.7014   -0.3282    9.9801 H   0  0  0  0  0  0  0  0  0  0  0  0
  1  2  2  0
  1 43  1  0
  1 44  1  0
  2  3  1  0
  4  2  1  6
  3 45  1  0
  3 46  1  0
  3 47  1  0
  4 21  1  0
  4 27  1  0
  4  5  1  0
  5  6  1  0
  6 26  1  0
  6  7  1  0
  6 48  1  6
  7  8  1  0
  7 49  1  0
  7 50  1  0
  8  9  2  0
 10  8  1  6
 10 18  1  0
 10 38  1  0
 10 11  1  0
 11 42  1  0
 11 12  1  0
 11 51  1  1
 12 13  1  0
 12 52  1  0
 12 53  1  0
 13 14  1  0
 13 54  1  0
 13 55  1  0
 14 15  1  6
 14 16  1  0
 14 18  1  0
 15 56  1  0
 15 57  1  0
 15 58  1  0
 16 17  1  0
 16 59  1  0
 16 60  1  0
 17 61  1  0
 18 19  1  0
 18 62  1  6
 19 20  1  0
 19 23  1  0
 19 63  1  6
 20 21  1  0
 20 64  1  0
 20 65  1  0
 21 22  1  0
 21 66  1  6
 22 67  1  0
 22 68  1  0
 22 69  1  0
 23 24  1  0
 23 25  1  0
 23 26  1  0
 24 70  1  0
 24 71  1  0
 24 72  1  0
 25 73  1  0
 25 74  1  0
 25 75  1  0
 26 27  1  0
 26 76  1  0
 27 28  1  1
 27 32  1  0
 28 29  1  0
 29 30  1  0
 29 77  1  0
 29 78  1  0
 30 31  1  0
 31 79  1  0
 31 80  1  0
 31 81  1  0
 32 33  1  0
 32 37  1  0
 32 82  1  1
 33 34  1  0
 34 35  1  0
 34 36  2  0
 35 83  1  0
 35 84  1  0
 35 85  1  0
 37 38  1  0
 37 86  1  0
 37 87  1  0
 38 39  1  0
 38 88  1  1
 39 40  1  0
 39 41  1  0
 39 42  1  0
 40 89  1  0
 40 90  1  0
 40 91  1  0
 41 92  1  0
 41 93  1  0
 41 94  1  0
M  END
>  <i_m_ct_stereo_status>  (247) 
1

>  <s_m_source_file>  (247) 
/var/tmp/pbs.5076255.sched01/tmpy0mqr2dw/78t3ouse6d.sdf

>  <i_m_source_file_index>  (247) 
22

>  <i_lp_mmshare_version>  (247) 
48012

>  <i_f3d_flags>  (247) 
0

>  <s_epik_input>  (247) 
Tz1DMVtDSDJdW0NASF0oTzIpW0NAQEhdKEMzKFtDSDNdKVtDSDNdKVtDQF0oT1tDSDJdT1tDSDNdKShbQ0BASF0oT0MoPU8pW0NIM10pW0NIMl1bQ0BIXTRDKE81KShbQ0gzXSlbQ0gzXSlbQ0BdMihDKD1bQ0gyXSlbQ0gzXSlbQ0BIXShbQ0gzXSlbQ0gyXVtDQEBIXTNbQ0BIXTZbQ0BdKFtDSDNdKShbQ0gyXVtPSF0pW0NIMl1bQ0gyXVtDQEhdNVtDQF0xNDY=

>  <s_epik_cmdline>  (247) 
J2VwaWtfcHl0aG9uJywgJy1waHQnLCAnMi4wJywgJy1waCcsICc3LjAnLCAnLXRuJywgJzgnLCAnLW1hJywgJzIwMCcsICctaW1hZScsICc8aW5maWxlLm1hZT4nLCAnLW9tYWUnLCAnPG91dGZpbGUubWFlPic=

>  <r_lp_tautomer_probability>  (247) 
1

>  <r_epik_Ionization_Penalty>  (247) 
5.62001e-07

>  <r_epik_Ionization_Penalty_Charging>  (247) 
0

>  <r_epik_Ionization_Penalty_Neutral>  (247) 
5.62001e-07

>  <r_epik_State_Penalty>  (247) 
-0

>  <r_epik_Charging_Adjusted_Penalty>  (247) 
0

>  <i_epik_Tot_Q>  (247) 
0

>  <i_epik_Tot_abs_Q>  (247) 
0

>  <s_epik_Chemistry_Notes>  (247) 
This compound has an ester and may undergo hydrolysis at high or low pH. This compound contains an acetal/aminal-like group ( X-CH(R)-Y where X, Y are N, S, or O) that may be acid/base labile, releasing an aldehyde.

>  <s_lp_Force_Field>  (247) 
OPLS3e

>  <r_lp_Energy>  (247) 
361.123

>  <b_lp_Chiralities_Consistent>  (247) 
1

>  <s_lp_Variant>  (247) 
74:0-1

>  <s_i_glide_gridfile>  (247) 
pfpi4k_grid

>  <i_i_glide_lignum>  (247) 
22

>  <i_i_glide_rotatable_bonds>  (247) 
8

>  <r_i_docking_score>  (247) 
-0.614183

>  <r_i_glide_ligand_efficiency>  (247) 
-0.0146234

>  <r_i_glide_ligand_efficiency_sa>  (247) 
-0.0508313

>  <r_i_glide_ligand_efficiency_ln>  (247) 
-0.129638

>  <r_i_glide_gscore>  (247) 
-0.614183

>  <r_i_glide_lipo>  (247) 
-0.0715703

>  <r_i_glide_hbond>  (247) 
0

>  <r_i_glide_metal>  (247) 
-0

>  <r_i_glide_rewards>  (247) 
-0.103659

>  <r_i_glide_evdw>  (247) 
-19.1976

>  <r_i_glide_ecoul>  (247) 
0.843233

>  <r_i_glide_erotb>  (247) 
0.194811

>  <r_i_glide_esite>  (247) 
-0.0301533

>  <r_i_glide_emodel>  (247) 
-8.13511

>  <r_i_glide_energy>  (247) 
-18.3543

>  <r_i_glide_einternal>  (247) 
13.2058

>  <r_i_glide_intrahb_reward>  (247) 
-0

>  <i_i_glide_confnum>  (247) 
2

>  <i_i_glide_posenum>  (247) 
13

>  <r_i_glide_eff_state_penalty>  (247) 
0

>  <ligand_id>  (247) 
74

>  <original_smiles>  (247) 
C=C(C)C12OC3CC(=O)C45C6CCC(C)(CO)C4C(CC1C)C(C)(C)C3C2(OCOC)C(OC(C)=O)CC5C(C)(C)O6

>  <smiles>  (247) 
[H]OC([H])([H])C1(C([H])([H])[H])C([H])([H])C([H])([H])C2([H])OC(C([H])([H])[H])(C([H])([H])[H])C3([H])C([H])([H])C([H])(OC(=O)C([H])([H])[H])C4(OC([H])([H])OC([H])([H])[H])C5(C(=C([H])[H])C([H])([H])[H])OC6([H])C([H])([H])C(=O)C23C1([H])C([H])(C([H])([H])C5([H])C([H])([H])[H])C(C([H])([H])[H])(C([H])([H])[H])C64[H]

$$$$
75:0:0
     RDKit          3D

 73 78  0  0  1  0  0  0  0  0999 V2000
    0.6677   -4.8890    4.0963 C   0  0  0  0  0  0  0  0  0  0  0  0
    0.6754   -3.4892    3.7940 O   0  0  0  0  0  0  0  0  0  0  0  0
    0.6781   -2.4667    4.8119 C   0  0  1  0  0  0  0  0  0  0  0  0
   -0.5584   -2.8323    5.7091 C   0  0  0  0  0  0  0  0  0  0  0  0
    1.9834   -2.6443    5.6755 C   0  0  1  0  0  0  0  0  0  0  0  0
    3.0675   -3.2597    5.0097 O   0  0  0  0  0  0  0  0  0  0  0  0
    2.5347   -1.5011    6.5697 C   0  0  0  0  0  0  0  0  0  0  0  0
    2.2757    0.0169    6.2853 C   0  0  2  0  0  0  0  0  0  0  0  0
    2.8745    0.5307    7.4715 O   0  0  0  0  0  0  0  0  0  0  0  0
    0.7049    0.3356    6.8174 C   0  0  1  0  0  0  0  0  0  0  0  0
   -0.3207    1.5862    7.0962 C   0  0  0  0  0  0  0  0  0  0  0  0
   -0.6426    2.9269    6.2061 C   0  0  1  0  0  0  0  0  0  0  0  0
    0.5292    3.7046    6.5854 C   0  0  0  0  0  0  0  0  0  0  0  0
    1.5536    2.8998    5.8437 C   0  0  0  0  0  0  0  0  0  0  0  0
    1.1436    1.7773    4.6872 C   0  0  2  0  0  0  0  0  0  0  0  0
    0.2658    0.3008    4.7458 C   0  0  2  0  0  0  0  0  0  0  0  0
   -0.1274   -0.2005    5.9372 O   0  0  0  0  0  0  0  0  0  0  0  0
    0.4885   -1.0867    3.9808 C   0  0  1  0  0  0  0  0  0  0  0  0
    1.1536   -1.0896    2.5889 C   0  0  1  0  0  0  0  0  0  0  0  0
    0.6281   -0.1358    1.6829 O   0  0  0  0  0  0  0  0  0  0  0  0
    2.6735   -1.2298    2.6063 C   0  0  1  0  0  0  0  0  0  0  0  0
    3.1434   -1.1728    1.2642 O   0  0  0  0  0  0  0  0  0  0  0  0
    3.5816   -0.4981    3.6763 C   0  0  1  0  0  0  0  0  0  0  0  0
    4.5788    0.1391    2.8902 O   0  0  0  0  0  0  0  0  0  0  0  0
    3.0946    0.5148    4.8215 C   0  0  2  0  0  0  0  0  0  0  0  0
    4.5108    0.8726    5.4656 C   0  0  0  0  0  0  0  0  0  0  0  0
    2.5101    1.8082    4.0423 C   0  0  2  0  0  0  0  0  0  0  0  0
    3.5120    2.8139    4.1299 O   0  0  0  0  0  0  0  0  0  0  0  0
    1.5973    2.4196    2.9106 C   0  0  0  0  0  0  0  0  0  0  0  0
    0.2470    2.3389    3.6605 C   0  0  2  0  0  0  0  0  0  0  0  0
   -0.7998    3.1377    4.5642 C   0  0  0  0  0  0  0  0  0  0  0  0
   -2.2517    2.6893    4.2632 C   0  0  0  0  0  0  0  0  0  0  0  0
   -0.7530    4.6166    4.1222 C   0  0  0  0  0  0  0  0  0  0  0  0
    0.9501   -5.4282    3.1933 H   0  0  0  0  0  0  0  0  0  0  0  0
   -0.3216   -5.2500    4.3735 H   0  0  0  0  0  0  0  0  0  0  0  0
    1.3698   -5.1778    4.8761 H   0  0  0  0  0  0  0  0  0  0  0  0
   -0.5834   -2.2988    6.6567 H   0  0  0  0  0  0  0  0  0  0  0  0
   -0.5672   -3.8724    6.0302 H   0  0  0  0  0  0  0  0  0  0  0  0
   -1.4994   -2.6390    5.2011 H   0  0  0  0  0  0  0  0  0  0  0  0
    1.7424   -3.4371    6.3867 H   0  0  0  0  0  0  0  0  0  0  0  0
    3.3752   -2.6882    4.3215 H   0  0  0  0  0  0  0  0  0  0  0  0
    2.1573   -1.7214    7.5693 H   0  0  0  0  0  0  0  0  0  0  0  0
    3.6083   -1.6626    6.6774 H   0  0  0  0  0  0  0  0  0  0  0  0
    3.7952    0.3132    7.4551 H   0  0  0  0  0  0  0  0  0  0  0  0
    0.5813   -0.2574    7.7236 H   0  0  0  0  0  0  0  0  0  0  0  0
   -1.3049    1.1398    7.2556 H   0  0  0  0  0  0  0  0  0  0  0  0
   -0.0799    1.9007    8.1133 H   0  0  0  0  0  0  0  0  0  0  0  0
   -1.5060    3.4102    6.6750 H   0  0  0  0  0  0  0  0  0  0  0  0
    0.4754    4.7508    6.2875 H   0  0  0  0  0  0  0  0  0  0  0  0
    0.7386    3.7415    7.6562 H   0  0  0  0  0  0  0  0  0  0  0  0
    1.9830    3.7912    5.3868 H   0  0  0  0  0  0  0  0  0  0  0  0
    2.3276    2.5973    6.5358 H   0  0  0  0  0  0  0  0  0  0  0  0
   -0.7656    0.4968    4.4661 H   0  0  0  0  0  0  0  0  0  0  0  0
   -0.5428   -1.2634    3.6735 H   0  0  0  0  0  0  0  0  0  0  0  0
    0.8092   -1.9878    2.0816 H   0  0  0  0  0  0  0  0  0  0  0  0
    0.6821   -0.4328    0.7637 H   0  0  0  0  0  0  0  0  0  0  0  0
    2.8181   -2.2870    2.8073 H   0  0  0  0  0  0  0  0  0  0  0  0
    2.3991   -1.0562    0.6871 H   0  0  0  0  0  0  0  0  0  0  0  0
    4.1732   -1.2630    4.1733 H   0  0  0  0  0  0  0  0  0  0  0  0
    4.1543    0.8348    2.3923 H   0  0  0  0  0  0  0  0  0  0  0  0
    5.2945    1.2098    4.7907 H   0  0  0  0  0  0  0  0  0  0  0  0
    4.9472    0.0176    5.9782 H   0  0  0  0  0  0  0  0  0  0  0  0
    4.4699    1.6982    6.1735 H   0  0  0  0  0  0  0  0  0  0  0  0
    3.9757    2.8229    3.2998 H   0  0  0  0  0  0  0  0  0  0  0  0
    1.8088    3.4647    2.6776 H   0  0  0  0  0  0  0  0  0  0  0  0
    1.6614    1.8968    1.9659 H   0  0  0  0  0  0  0  0  0  0  0  0
   -0.2968    1.7081    2.9573 H   0  0  0  0  0  0  0  0  0  0  0  0
   -2.4682    2.6760    3.1964 H   0  0  0  0  0  0  0  0  0  0  0  0
   -2.9683    3.3689    4.7322 H   0  0  0  0  0  0  0  0  0  0  0  0
   -2.4744    1.7060    4.6653 H   0  0  0  0  0  0  0  0  0  0  0  0
   -1.1350    4.7405    3.1070 H   0  0  0  0  0  0  0  0  0  0  0  0
    0.2688    5.0001    4.1042 H   0  0  0  0  0  0  0  0  0  0  0  0
   -1.3356    5.2477    4.7946 H   0  0  0  0  0  0  0  0  0  0  0  0
  1  2  1  0
  1 34  1  0
  1 35  1  0
  1 36  1  0
  3  2  1  6
  3 18  1  0
  3  4  1  0
  3  5  1  0
  4 37  1  0
  4 38  1  0
  4 39  1  0
  5  6  1  0
  5  7  1  0
  5 40  1  1
  6 41  1  0
  7  8  1  0
  7 42  1  0
  7 43  1  0
  8 25  1  0
  8  9  1  1
  8 10  1  0
  9 44  1  0
 10 17  1  0
 10 11  1  0
 10 45  1  1
 11 12  1  0
 11 46  1  0
 11 47  1  0
 12 31  1  0
 12 13  1  0
 12 48  1  1
 13 14  1  0
 13 49  1  0
 13 50  1  0
 15 14  1  1
 14 51  1  0
 14 52  1  0
 15 27  1  0
 15 30  1  0
 15 16  1  0
 16 17  1  0
 16 18  1  0
 16 53  1  6
 18 19  1  0
 18 54  1  6
 19 20  1  0
 19 21  1  0
 19 55  1  6
 20 56  1  0
 21 22  1  0
 21 23  1  0
 21 57  1  1
 22 58  1  0
 23 24  1  0
 23 25  1  0
 23 59  1  1
 24 60  1  0
 25 26  1  1
 25 27  1  0
 26 61  1  0
 26 62  1  0
 26 63  1  0
 27 28  1  1
 27 29  1  0
 28 64  1  0
 29 30  1  0
 29 65  1  0
 29 66  1  0
 30 31  1  0
 30 67  1  6
 31 32  1  0
 31 33  1  0
 32 68  1  0
 32 69  1  0
 32 70  1  0
 33 71  1  0
 33 72  1  0
 33 73  1  0
M  END
>  <i_m_ct_stereo_status>  (248) 
1

>  <s_m_source_file>  (248) 
/var/tmp/pbs.5076255.sched01/tmpy0mqr2dw/78t3ouse6d.sdf

>  <i_m_source_file_index>  (248) 
23

>  <i_lp_mmshare_version>  (248) 
48012

>  <i_f3d_flags>  (248) 
0

>  <s_epik_input>  (248) 
W0NAXTEyM1tDQEhdNFtDQEBIXTVbQ0BAXShbQ0gzXSkoT1tDSDNdKVtDQEBIXShbT0hdKVtDSDJdW0NAXTYoW09IXSlbQ0BIXShPNClbQ0gyXVtDQEBIXShbQ0gyXVtDSDJdMSlDKFtDSDNdKShbQ0gzXSlbQ0BASF0zW0NIMl1bQ0BdMihbT0hdKVtDQF02KFtDSDNdKVtDQEhdKFtPSF0pW0NASF0oW09IXSlbQ0BASF01W09IXQ==

>  <s_epik_cmdline>  (248) 
J2VwaWtfcHl0aG9uJywgJy1waHQnLCAnMi4wJywgJy1waCcsICc3LjAnLCAnLXRuJywgJzgnLCAnLW1hJywgJzIwMCcsICctaW1hZScsICc8aW5maWxlLm1hZT4nLCAnLW9tYWUnLCAnPG91dGZpbGUubWFlPic=

>  <r_lp_tautomer_probability>  (248) 
1

>  <r_epik_Ionization_Penalty>  (248) 
1.0328e-06

>  <r_epik_Ionization_Penalty_Charging>  (248) 
0

>  <r_epik_Ionization_Penalty_Neutral>  (248) 
1.0328e-06

>  <r_epik_State_Penalty>  (248) 
-0

>  <r_epik_Charging_Adjusted_Penalty>  (248) 
0

>  <i_epik_Tot_Q>  (248) 
0

>  <i_epik_Tot_abs_Q>  (248) 
0

>  <s_lp_Force_Field>  (248) 
OPLS3e

>  <r_lp_Energy>  (248) 
440.473

>  <b_lp_Chiralities_Consistent>  (248) 
1

>  <s_lp_Variant>  (248) 
75:0-1

>  <s_i_glide_gridfile>  (248) 
pfpi4k_grid

>  <i_i_glide_lignum>  (248) 
23

>  <i_i_glide_rotatable_bonds>  (248) 
7

>  <r_i_docking_score>  (248) 
-2.31964

>  <r_i_glide_ligand_efficiency>  (248) 
-0.070292

>  <r_i_glide_ligand_efficiency_sa>  (248) 
-0.225464

>  <r_i_glide_ligand_efficiency_ln>  (248) 
-0.515875

>  <r_i_glide_gscore>  (248) 
-2.31964

>  <r_i_glide_lipo>  (248) 
-0.0374767

>  <r_i_glide_hbond>  (248) 
0

>  <r_i_glide_metal>  (248) 
-0

>  <r_i_glide_rewards>  (248) 
-0.214225

>  <r_i_glide_evdw>  (248) 
-15.3869

>  <r_i_glide_ecoul>  (248) 
-8.65728

>  <r_i_glide_erotb>  (248) 
0

>  <r_i_glide_esite>  (248) 
0

>  <r_i_glide_emodel>  (248) 
-26.3344

>  <r_i_glide_energy>  (248) 
-24.0442

>  <r_i_glide_einternal>  (248) 
2.4204

>  <r_i_glide_intrahb_reward>  (248) 
-0

>  <i_i_glide_confnum>  (248) 
1

>  <i_i_glide_posenum>  (248) 
7

>  <r_i_glide_eff_state_penalty>  (248) 
0

>  <ligand_id>  (248) 
75

>  <original_smiles>  (248) 
COC1(C)C(O)CC2(O)C3CC4CCC56C(O3)C1C(O)C(O)C(O)C2(C)C5(O)CC6C4(C)C

>  <smiles>  (248) 
[H]OC1([H])C([H])(O[H])C2([H])C3([H])OC4([H])C([H])([H])C5([H])C([H])([H])C([H])([H])C36C([H])(C([H])([H])C6(O[H])C(C([H])([H])[H])(C1([H])O[H])C4(O[H])C([H])([H])C([H])(O[H])C2(OC([H])([H])[H])C([H])([H])[H])C5(C([H])([H])[H])C([H])([H])[H]

$$$$
75:0:1
     RDKit          3D

 73 78  0  0  1  0  0  0  0  0999 V2000
    0.6663   -4.8921    4.1258 C   0  0  0  0  0  0  0  0  0  0  0  0
    0.6731   -3.4929    3.8144 O   0  0  0  0  0  0  0  0  0  0  0  0
    0.6690   -2.4654    4.8280 C   0  0  1  0  0  0  0  0  0  0  0  0
   -0.5697   -2.8270    5.7228 C   0  0  0  0  0  0  0  0  0  0  0  0
    1.9712   -2.6338    5.6979 C   0  0  1  0  0  0  0  0  0  0  0  0
    3.0584   -3.2502    5.0378 O   0  0  0  0  0  0  0  0  0  0  0  0
    2.5156   -1.4854    6.5867 C   0  0  0  0  0  0  0  0  0  0  0  0
    2.2584    0.0279    6.2925 C   0  0  2  0  0  0  0  0  0  0  0  0
    2.8727    0.5287    7.4777 O   0  0  0  0  0  0  0  0  0  0  0  0
    0.6840    0.3492    6.8184 C   0  0  1  0  0  0  0  0  0  0  0  0
   -0.3470    1.5985    7.0887 C   0  0  0  0  0  0  0  0  0  0  0  0
   -0.6682    2.9328    6.1905 C   0  0  1  0  0  0  0  0  0  0  0  0
    0.5008    3.7153    6.5688 C   0  0  0  0  0  0  0  0  0  0  0  0
    1.5283    2.9102    5.8328 C   0  0  0  0  0  0  0  0  0  0  0  0
    1.1256    1.7807    4.6816 C   0  0  2  0  0  0  0  0  0  0  0  0
    0.2491    0.3016    4.7446 C   0  0  2  0  0  0  0  0  0  0  0  0
   -0.1471   -0.1916    5.9398 O   0  0  0  0  0  0  0  0  0  0  0  0
    0.4800   -1.0887    3.9886 C   0  0  1  0  0  0  0  0  0  0  0  0
    1.1516   -1.0998    2.5986 C   0  0  1  0  0  0  0  0  0  0  0  0
    0.6256   -0.1527    1.6866 O   0  0  0  0  0  0  0  0  0  0  0  0
    2.6711   -1.2341    2.6204 C   0  0  1  0  0  0  0  0  0  0  0  0
    3.1447   -1.1870    1.2783 O   0  0  0  0  0  0  0  0  0  0  0  0
    3.5727   -0.4961    3.6921 C   0  0  1  0  0  0  0  0  0  0  0  0
    4.5689    0.1409    2.9036 O   0  0  0  0  0  0  0  0  0  0  0  0
    3.0793    0.5235    4.8284 C   0  0  2  0  0  0  0  0  0  0  0  0
    4.4920    0.8874    5.4745 C   0  0  0  0  0  0  0  0  0  0  0  0
    2.4926    1.8097    4.0409 C   0  0  2  0  0  0  0  0  0  0  0  0
    3.4934    2.8203    4.1276 O   0  0  0  0  0  0  0  0  0  0  0  0
    1.5839    2.4146    2.9029 C   0  0  0  0  0  0  0  0  0  0  0  0
    0.2292    2.3320    3.6486 C   0  0  2  0  0  0  0  0  0  0  0  0
   -0.8205    3.1329    4.5451 C   0  0  0  0  0  0  0  0  0  0  0  0
   -2.2700    2.6806    4.2416 C   0  0  0  0  0  0  0  0  0  0  0  0
   -0.7772    4.6092    4.0956 C   0  0  0  0  0  0  0  0  0  0  0  0
    0.9565   -5.4356    3.2296 H   0  0  0  0  0  0  0  0  0  0  0  0
   -0.3251   -5.2526    4.3979 H   0  0  0  0  0  0  0  0  0  0  0  0
    1.3620   -5.1744    4.9138 H   0  0  0  0  0  0  0  0  0  0  0  0
   -0.5950   -2.2910    6.6699 H   0  0  0  0  0  0  0  0  0  0  0  0
   -0.5797   -3.8658    6.0466 H   0  0  0  0  0  0  0  0  0  0  0  0
   -1.5096   -2.6392    5.2136 H   0  0  0  0  0  0  0  0  0  0  0  0
    1.7330   -3.4243    6.4128 H   0  0  0  0  0  0  0  0  0  0  0  0
    3.3715   -2.6777    4.3542 H   0  0  0  0  0  0  0  0  0  0  0  0
    2.1374   -1.6982    7.5871 H   0  0  0  0  0  0  0  0  0  0  0  0
    3.5889   -1.6358    6.7009 H   0  0  0  0  0  0  0  0  0  0  0  0
    2.7453    1.4644    7.4951 H   0  0  0  0  0  0  0  0  0  0  0  0
    0.5543   -0.2411    7.7255 H   0  0  0  0  0  0  0  0  0  0  0  0
   -1.3320    1.1508    7.2482 H   0  0  0  0  0  0  0  0  0  0  0  0
   -0.1125    1.9179    8.1064 H   0  0  0  0  0  0  0  0  0  0  0  0
   -1.5337    3.4148    6.6527 H   0  0  0  0  0  0  0  0  0  0  0  0
    0.4434    4.7600    6.2656 H   0  0  0  0  0  0  0  0  0  0  0  0
    0.7042    3.7598    7.6396 H   0  0  0  0  0  0  0  0  0  0  0  0
    1.9512    3.8025    5.3677 H   0  0  0  0  0  0  0  0  0  0  0  0
    2.3078    2.6194    6.5249 H   0  0  0  0  0  0  0  0  0  0  0  0
   -0.7815    0.4924    4.4599 H   0  0  0  0  0  0  0  0  0  0  0  0
   -0.5478   -1.2735    3.6767 H   0  0  0  0  0  0  0  0  0  0  0  0
    0.8116   -2.0003    2.0941 H   0  0  0  0  0  0  0  0  0  0  0  0
    0.6878   -0.4478    0.7690 H   0  0  0  0  0  0  0  0  0  0  0  0
    2.8193   -2.2906    2.8274 H   0  0  0  0  0  0  0  0  0  0  0  0
    2.4053   -1.0530    0.6999 H   0  0  0  0  0  0  0  0  0  0  0  0
    4.1635   -1.2553    4.1947 H   0  0  0  0  0  0  0  0  0  0  0  0
    4.1530    0.8612    2.4330 H   0  0  0  0  0  0  0  0  0  0  0  0
    5.2827    1.2196    4.8033 H   0  0  0  0  0  0  0  0  0  0  0  0
    4.9217    0.0380    6.0030 H   0  0  0  0  0  0  0  0  0  0  0  0
    4.4509    1.7154    6.1794 H   0  0  0  0  0  0  0  0  0  0  0  0
    3.9652    2.8233    3.3017 H   0  0  0  0  0  0  0  0  0  0  0  0
    1.7941    3.4594    2.6662 H   0  0  0  0  0  0  0  0  0  0  0  0
    1.6531    1.8883    1.9606 H   0  0  0  0  0  0  0  0  0  0  0  0
   -0.3102    1.6974    2.9472 H   0  0  0  0  0  0  0  0  0  0  0  0
   -2.4849    2.6635    3.1747 H   0  0  0  0  0  0  0  0  0  0  0  0
   -2.9861    3.3596    4.7076 H   0  0  0  0  0  0  0  0  0  0  0  0
   -2.4938    1.6978    4.6462 H   0  0  0  0  0  0  0  0  0  0  0  0
   -1.1558    4.7266    3.0800 H   0  0  0  0  0  0  0  0  0  0  0  0
    0.2453    4.9952    4.0792 H   0  0  0  0  0  0  0  0  0  0  0  0
   -1.3623    5.2420    4.7630 H   0  0  0  0  0  0  0  0  0  0  0  0
  1  2  1  0
  1 34  1  0
  1 35  1  0
  1 36  1  0
  3  2  1  6
  3 18  1  0
  3  4  1  0
  3  5  1  0
  4 37  1  0
  4 38  1  0
  4 39  1  0
  5  6  1  0
  5  7  1  0
  5 40  1  1
  6 41  1  0
  7  8  1  0
  7 42  1  0
  7 43  1  0
  8 25  1  0
  8  9  1  1
  8 10  1  0
  9 44  1  0
 10 17  1  0
 10 11  1  0
 10 45  1  1
 11 12  1  0
 11 46  1  0
 11 47  1  0
 12 31  1  0
 12 13  1  0
 12 48  1  1
 13 14  1  0
 13 49  1  0
 13 50  1  0
 15 14  1  1
 14 51  1  0
 14 52  1  0
 15 27  1  0
 15 30  1  0
 15 16  1  0
 16 17  1  0
 16 18  1  0
 16 53  1  6
 18 19  1  0
 18 54  1  6
 19 20  1  0
 19 21  1  0
 19 55  1  6
 20 56  1  0
 21 22  1  0
 21 23  1  0
 21 57  1  1
 22 58  1  0
 23 24  1  0
 23 25  1  0
 23 59  1  1
 24 60  1  0
 25 26  1  1
 25 27  1  0
 26 61  1  0
 26 62  1  0
 26 63  1  0
 27 28  1  1
 27 29  1  0
 28 64  1  0
 29 30  1  0
 29 65  1  0
 29 66  1  0
 30 31  1  0
 30 67  1  6
 31 32  1  0
 31 33  1  0
 32 68  1  0
 32 69  1  0
 32 70  1  0
 33 71  1  0
 33 72  1  0
 33 73  1  0
M  END
>  <i_m_ct_stereo_status>  (249) 
1

>  <s_m_source_file>  (249) 
/var/tmp/pbs.5076255.sched01/tmpy0mqr2dw/78t3ouse6d.sdf

>  <i_m_source_file_index>  (249) 
23

>  <i_lp_mmshare_version>  (249) 
48012

>  <i_f3d_flags>  (249) 
0

>  <s_epik_input>  (249) 
W0NAXTEyM1tDQEhdNFtDQEBIXTVbQ0BAXShbQ0gzXSkoT1tDSDNdKVtDQEBIXShbT0hdKVtDSDJdW0NAXTYoW09IXSlbQ0BIXShPNClbQ0gyXVtDQEBIXShbQ0gyXVtDSDJdMSlDKFtDSDNdKShbQ0gzXSlbQ0BASF0zW0NIMl1bQ0BdMihbT0hdKVtDQF02KFtDSDNdKVtDQEhdKFtPSF0pW0NASF0oW09IXSlbQ0BASF01W09IXQ==

>  <s_epik_cmdline>  (249) 
J2VwaWtfcHl0aG9uJywgJy1waHQnLCAnMi4wJywgJy1waCcsICc3LjAnLCAnLXRuJywgJzgnLCAnLW1hJywgJzIwMCcsICctaW1hZScsICc8aW5maWxlLm1hZT4nLCAnLW9tYWUnLCAnPG91dGZpbGUubWFlPic=

>  <r_lp_tautomer_probability>  (249) 
1

>  <r_epik_Ionization_Penalty>  (249) 
1.0328e-06

>  <r_epik_Ionization_Penalty_Charging>  (249) 
0

>  <r_epik_Ionization_Penalty_Neutral>  (249) 
1.0328e-06

>  <r_epik_State_Penalty>  (249) 
-0

>  <r_epik_Charging_Adjusted_Penalty>  (249) 
0

>  <i_epik_Tot_Q>  (249) 
0

>  <i_epik_Tot_abs_Q>  (249) 
0

>  <s_lp_Force_Field>  (249) 
OPLS3e

>  <r_lp_Energy>  (249) 
440.473

>  <b_lp_Chiralities_Consistent>  (249) 
1

>  <s_lp_Variant>  (249) 
75:0-1

>  <s_i_glide_gridfile>  (249) 
pfpi4k_grid

>  <i_i_glide_lignum>  (249) 
23

>  <i_i_glide_rotatable_bonds>  (249) 
7

>  <r_i_docking_score>  (249) 
-2.31731

>  <r_i_glide_ligand_efficiency>  (249) 
-0.0702214

>  <r_i_glide_ligand_efficiency_sa>  (249) 
-0.225238

>  <r_i_glide_ligand_efficiency_ln>  (249) 
-0.515357

>  <r_i_glide_gscore>  (249) 
-2.31731

>  <r_i_glide_lipo>  (249) 
-0.0355532

>  <r_i_glide_hbond>  (249) 
0

>  <r_i_glide_metal>  (249) 
-0

>  <r_i_glide_rewards>  (249) 
-0.214225

>  <r_i_glide_evdw>  (249) 
-15.5482

>  <r_i_glide_ecoul>  (249) 
-8.60078

>  <r_i_glide_erotb>  (249) 
0

>  <r_i_glide_esite>  (249) 
0

>  <r_i_glide_emodel>  (249) 
-26.4155

>  <r_i_glide_energy>  (249) 
-24.149

>  <r_i_glide_einternal>  (249) 
2.45729

>  <r_i_glide_intrahb_reward>  (249) 
-0

>  <i_i_glide_confnum>  (249) 
2

>  <i_i_glide_posenum>  (249) 
1

>  <r_i_glide_eff_state_penalty>  (249) 
0

>  <ligand_id>  (249) 
75

>  <original_smiles>  (249) 
COC1(C)C(O)CC2(O)C3CC4CCC56C(O3)C1C(O)C(O)C(O)C2(C)C5(O)CC6C4(C)C

>  <smiles>  (249) 
[H]OC1([H])C([H])(O[H])C2([H])C3([H])OC4([H])C([H])([H])C5([H])C([H])([H])C([H])([H])C36C([H])(C([H])([H])C6(O[H])C(C([H])([H])[H])(C1([H])O[H])C4(O[H])C([H])([H])C([H])(O[H])C2(OC([H])([H])[H])C([H])([H])[H])C5(C([H])([H])[H])C([H])([H])[H]

$$$$
75:0:2
     RDKit          3D

 73 78  0  0  1  0  0  0  0  0999 V2000
    6.3322    1.0203    6.3733 C   0  0  0  0  0  0  0  0  0  0  0  0
    5.2087    1.7716    5.9088 O   0  0  0  0  0  0  0  0  0  0  0  0
    3.8496    1.4773    6.2972 C   0  0  1  0  0  0  0  0  0  0  0  0
    3.7148   -0.0678    6.0598 C   0  0  0  0  0  0  0  0  0  0  0  0
    3.7335    1.7445    7.8471 C   0  0  1  0  0  0  0  0  0  0  0  0
    4.6604    2.6780    8.3640 O   0  0  0  0  0  0  0  0  0  0  0  0
    2.3565    1.9676    8.5383 C   0  0  0  0  0  0  0  0  0  0  0  0
    1.0925    2.5170    7.7874 C   0  0  2  0  0  0  0  0  0  0  0  0
    0.2024    2.3614    8.8752 O   0  0  0  0  0  0  0  0  0  0  0  0
    0.4653    1.2141    6.9170 C   0  0  1  0  0  0  0  0  0  0  0  0
   -0.8431    0.7791    6.0314 C   0  0  0  0  0  0  0  0  0  0  0  0
   -1.6953    1.6072    4.9025 C   0  0  1  0  0  0  0  0  0  0  0  0
   -2.4672    2.4432    5.8096 C   0  0  0  0  0  0  0  0  0  0  0  0
   -1.3555    3.3253    6.2706 C   0  0  0  0  0  0  0  0  0  0  0  0
    0.1174    3.3726    5.5141 C   0  0  2  0  0  0  0  0  0  0  0  0
    1.3522    2.2156    5.2817 C   0  0  2  0  0  0  0  0  0  0  0  0
    1.2749    1.0176    5.8967 O   0  0  0  0  0  0  0  0  0  0  0  0
    2.9469    2.3673    5.2911 C   0  0  1  0  0  0  0  0  0  0  0  0
    3.5758    3.7176    4.9215 C   0  0  1  0  0  0  0  0  0  0  0  0
    3.0993    4.2869    3.7380 O   0  0  0  0  0  0  0  0  0  0  0  0
    3.8108    4.6801    6.0762 C   0  0  1  0  0  0  0  0  0  0  0  0
    4.3828    5.8798    5.5705 O   0  0  0  0  0  0  0  0  0  0  0  0
    2.7475    4.8794    7.2209 C   0  0  1  0  0  0  0  0  0  0  0  0
    2.5803    6.2882    7.2221 O   0  0  0  0  0  0  0  0  0  0  0  0
    1.3123    4.1869    7.3348 C   0  0  2  0  0  0  0  0  0  0  0  0
    0.8208    4.8735    8.6913 C   0  0  0  0  0  0  0  0  0  0  0  0
    0.4615    4.7378    6.0746 C   0  0  2  0  0  0  0  0  0  0  0  0
   -0.3828    5.7303    6.6198 O   0  0  0  0  0  0  0  0  0  0  0  0
    0.3225    5.0418    4.5340 C   0  0  0  0  0  0  0  0  0  0  0  0
   -0.0239    3.6102    4.0616 C   0  0  2  0  0  0  0  0  0  0  0  0
   -1.1902    2.6056    3.6831 C   0  0  0  0  0  0  0  0  0  0  0  0
   -0.7550    1.6564    2.5457 C   0  0  0  0  0  0  0  0  0  0  0  0
   -2.3233    3.4427    3.0583 C   0  0  0  0  0  0  0  0  0  0  0  0
    7.2393    1.5902    6.1765 H   0  0  0  0  0  0  0  0  0  0  0  0
    6.4341    0.0780    5.8316 H   0  0  0  0  0  0  0  0  0  0  0  0
    6.2986    0.8116    7.4421 H   0  0  0  0  0  0  0  0  0  0  0  0
    2.8171   -0.5039    6.5018 H   0  0  0  0  0  0  0  0  0  0  0  0
    4.4962   -0.6585    6.5385 H   0  0  0  0  0  0  0  0  0  0  0  0
    3.7209   -0.3182    5.0001 H   0  0  0  0  0  0  0  0  0  0  0  0
    4.1225    0.8426    8.3290 H   0  0  0  0  0  0  0  0  0  0  0  0
    4.4559    3.5391    8.0144 H   0  0  0  0  0  0  0  0  0  0  0  0
    2.1003    0.9929    8.9567 H   0  0  0  0  0  0  0  0  0  0  0  0
    2.5319    2.5800    9.4278 H   0  0  0  0  0  0  0  0  0  0  0  0
   -0.6484    2.7166    8.6285 H   0  0  0  0  0  0  0  0  0  0  0  0
    0.5996    0.3397    7.5590 H   0  0  0  0  0  0  0  0  0  0  0  0
   -0.5673   -0.1476    5.5242 H   0  0  0  0  0  0  0  0  0  0  0  0
   -1.5417    0.4016    6.7739 H   0  0  0  0  0  0  0  0  0  0  0  0
   -2.3830    0.8916    4.4572 H   0  0  0  0  0  0  0  0  0  0  0  0
   -3.2914    2.9647    5.3187 H   0  0  0  0  0  0  0  0  0  0  0  0
   -2.9416    1.9209    6.6418 H   0  0  0  0  0  0  0  0  0  0  0  0
   -1.9213    4.2203    6.0466 H   0  0  0  0  0  0  0  0  0  0  0  0
   -1.3368    3.3266    7.3470 H   0  0  0  0  0  0  0  0  0  0  0  0
    1.2364    1.7617    4.3018 H   0  0  0  0  0  0  0  0  0  0  0  0
    3.1938    1.8288    4.3722 H   0  0  0  0  0  0  0  0  0  0  0  0
    4.5956    3.4986    4.5632 H   0  0  0  0  0  0  0  0  0  0  0  0
    2.1610    4.4091    3.8002 H   0  0  0  0  0  0  0  0  0  0  0  0
    4.6937    4.2764    6.5697 H   0  0  0  0  0  0  0  0  0  0  0  0
    3.7891    6.2256    4.9141 H   0  0  0  0  0  0  0  0  0  0  0  0
    3.2653    4.7179    8.1585 H   0  0  0  0  0  0  0  0  0  0  0  0
    3.4470    6.6724    7.1282 H   0  0  0  0  0  0  0  0  0  0  0  0
    0.8774    5.9562    8.7397 H   0  0  0  0  0  0  0  0  0  0  0  0
    1.3997    4.5243    9.5485 H   0  0  0  0  0  0  0  0  0  0  0  0
   -0.2264    4.6895    8.9005 H   0  0  0  0  0  0  0  0  0  0  0  0
    0.1905    6.4671    6.8127 H   0  0  0  0  0  0  0  0  0  0  0  0
   -0.5178    5.7054    4.3121 H   0  0  0  0  0  0  0  0  0  0  0  0
    1.1877    5.5414    4.1168 H   0  0  0  0  0  0  0  0  0  0  0  0
    0.8100    3.4781    3.3737 H   0  0  0  0  0  0  0  0  0  0  0  0
   -0.2991    2.1759    1.7040 H   0  0  0  0  0  0  0  0  0  0  0  0
   -1.6177    1.1197    2.1482 H   0  0  0  0  0  0  0  0  0  0  0  0
   -0.0591    0.8913    2.8784 H   0  0  0  0  0  0  0  0  0  0  0  0
   -2.0216    3.8674    2.1000 H   0  0  0  0  0  0  0  0  0  0  0  0
   -2.5914    4.2912    3.6912 H   0  0  0  0  0  0  0  0  0  0  0  0
   -3.2259    2.8505    2.8841 H   0  0  0  0  0  0  0  0  0  0  0  0
  1  2  1  0
  1 34  1  0
  1 35  1  0
  1 36  1  0
  3  2  1  6
  3 18  1  0
  3  4  1  0
  3  5  1  0
  4 37  1  0
  4 38  1  0
  4 39  1  0
  5  6  1  0
  5  7  1  0
  5 40  1  1
  6 41  1  0
  7  8  1  0
  7 42  1  0
  7 43  1  0
  8 25  1  0
  8  9  1  1
  8 10  1  0
  9 44  1  0
 10 17  1  0
 10 11  1  0
 10 45  1  1
 11 12  1  0
 11 46  1  0
 11 47  1  0
 12 31  1  0
 12 13  1  0
 12 48  1  6
 13 14  1  0
 13 49  1  0
 13 50  1  0
 15 14  1  1
 14 51  1  0
 14 52  1  0
 15 27  1  0
 15 30  1  0
 15 16  1  0
 16 17  1  0
 16 18  1  0
 16 53  1  6
 18 19  1  0
 18 54  1  6
 19 20  1  0
 19 21  1  0
 19 55  1  6
 20 56  1  0
 21 22  1  0
 21 23  1  0
 21 57  1  1
 22 58  1  0
 23 24  1  0
 23 25  1  0
 23 59  1  1
 24 60  1  0
 25 26  1  1
 25 27  1  0
 26 61  1  0
 26 62  1  0
 26 63  1  0
 27 28  1  1
 27 29  1  0
 28 64  1  0
 29 30  1  0
 29 65  1  0
 29 66  1  0
 30 31  1  0
 30 67  1  6
 31 32  1  0
 31 33  1  0
 32 68  1  0
 32 69  1  0
 32 70  1  0
 33 71  1  0
 33 72  1  0
 33 73  1  0
M  END
>  <i_m_ct_stereo_status>  (250) 
1

>  <s_m_source_file>  (250) 
/var/tmp/pbs.5076255.sched01/tmpy0mqr2dw/78t3ouse6d.sdf

>  <i_m_source_file_index>  (250) 
23

>  <i_lp_mmshare_version>  (250) 
48012

>  <i_f3d_flags>  (250) 
0

>  <s_epik_input>  (250) 
W0NAXTEyM1tDQEhdNFtDQEBIXTVbQ0BAXShbQ0gzXSkoT1tDSDNdKVtDQEBIXShbT0hdKVtDSDJdW0NAXTYoW09IXSlbQ0BIXShPNClbQ0gyXVtDQEBIXShbQ0gyXVtDSDJdMSlDKFtDSDNdKShbQ0gzXSlbQ0BASF0zW0NIMl1bQ0BdMihbT0hdKVtDQF02KFtDSDNdKVtDQEhdKFtPSF0pW0NASF0oW09IXSlbQ0BASF01W09IXQ==

>  <s_epik_cmdline>  (250) 
J2VwaWtfcHl0aG9uJywgJy1waHQnLCAnMi4wJywgJy1waCcsICc3LjAnLCAnLXRuJywgJzgnLCAnLW1hJywgJzIwMCcsICctaW1hZScsICc8aW5maWxlLm1hZT4nLCAnLW9tYWUnLCAnPG91dGZpbGUubWFlPic=

>  <r_lp_tautomer_probability>  (250) 
1

>  <r_epik_Ionization_Penalty>  (250) 
1.0328e-06

>  <r_epik_Ionization_Penalty_Charging>  (250) 
0

>  <r_epik_Ionization_Penalty_Neutral>  (250) 
1.0328e-06

>  <r_epik_State_Penalty>  (250) 
-0

>  <r_epik_Charging_Adjusted_Penalty>  (250) 
0

>  <i_epik_Tot_Q>  (250) 
0

>  <i_epik_Tot_abs_Q>  (250) 
0

>  <s_lp_Force_Field>  (250) 
OPLS3e

>  <r_lp_Energy>  (250) 
440.473

>  <b_lp_Chiralities_Consistent>  (250) 
1

>  <s_lp_Variant>  (250) 
75:0-1

>  <s_i_glide_gridfile>  (250) 
pfpi4k_grid

>  <i_i_glide_lignum>  (250) 
23

>  <i_i_glide_rotatable_bonds>  (250) 
7

>  <r_i_docking_score>  (250) 
-1.71607

>  <r_i_glide_ligand_efficiency>  (250) 
-0.052002

>  <r_i_glide_ligand_efficiency_sa>  (250) 
-0.166798

>  <r_i_glide_ligand_efficiency_ln>  (250) 
-0.381644

>  <r_i_glide_gscore>  (250) 
-1.71607

>  <r_i_glide_lipo>  (250) 
-0.15735

>  <r_i_glide_hbond>  (250) 
0

>  <r_i_glide_metal>  (250) 
-0

>  <r_i_glide_rewards>  (250) 
-0.714225

>  <r_i_glide_evdw>  (250) 
-16.9269

>  <r_i_glide_ecoul>  (250) 
0.0123747

>  <r_i_glide_erotb>  (250) 
0

>  <r_i_glide_esite>  (250) 
0

>  <r_i_glide_emodel>  (250) 
-23.9644

>  <r_i_glide_energy>  (250) 
-16.9146

>  <r_i_glide_einternal>  (250) 
1.01707

>  <r_i_glide_intrahb_reward>  (250) 
-0.5

>  <i_i_glide_confnum>  (250) 
2

>  <i_i_glide_posenum>  (250) 
39

>  <r_i_glide_eff_state_penalty>  (250) 
0

>  <ligand_id>  (250) 
75

>  <original_smiles>  (250) 
COC1(C)C(O)CC2(O)C3CC4CCC56C(O3)C1C(O)C(O)C(O)C2(C)C5(O)CC6C4(C)C

>  <smiles>  (250) 
[H]OC1([H])C([H])(O[H])C2([H])C3([H])OC4([H])C([H])([H])C5([H])C([H])([H])C([H])([H])C36C([H])(C([H])([H])C6(O[H])C(C([H])([H])[H])(C1([H])O[H])C4(O[H])C([H])([H])C([H])(O[H])C2(OC([H])([H])[H])C([H])([H])[H])C5(C([H])([H])[H])C([H])([H])[H]

$$$$
76:0:0
     RDKit          3D

 44 48  0  0  1  0  0  0  0  0999 V2000
   -0.3087   -5.1655    8.6165 C   0  0  0  0  0  0  0  0  0  0  0  0
    0.1569   -6.5335    8.5849 N   0  0  0  0  0  0  0  0  0  0  0  0
    0.2217   -7.2733    9.7273 N   0  0  0  0  0  0  0  0  0  0  0  0
    0.7157   -8.4604    9.3569 C   0  0  0  0  0  0  0  0  0  0  0  0
    0.9296   -8.4979    7.9629 C   0  0  0  0  0  0  0  0  0  0  0  0
    0.5568   -7.2966    7.5258 C   0  0  0  0  0  0  0  0  0  0  0  0
    0.6476   -7.1474    6.0717 C   0  0  0  0  0  0  0  0  0  0  0  0
    1.1483   -8.4909    5.6679 N   0  0  0  0  0  0  0  0  0  0  0  0
    1.3836   -8.8049    4.3688 C   0  0  0  0  0  0  0  0  0  0  0  0
    1.0746   -8.0246    3.4783 O   0  0  0  0  0  0  0  0  0  0  0  0
    2.1197  -10.1467    4.0299 C   0  0  1  0  0  0  0  0  0  0  0  0
    1.2036  -11.3715    4.3328 C   0  0  0  0  0  0  0  0  0  0  0  0
    0.6327  -11.2257    2.8985 C   0  0  0  0  0  0  0  0  0  0  0  0
    2.0325  -10.7307    2.6159 C   0  0  1  0  0  0  0  0  0  0  0  0
    2.6871   -9.7650    1.6826 C   0  0  0  0  0  0  0  0  0  0  0  0
    3.8776   -9.3963    2.5225 N   0  0  1  0  0  0  0  0  0  0  0  0
    4.2029   -7.9463    2.4832 C   0  0  0  0  0  0  0  0  0  0  0  0
    4.8008   -7.4541    1.1884 C   0  0  0  0  0  0  0  0  0  0  0  0
    5.6748   -7.6136    2.4142 C   0  0  0  0  0  0  0  0  0  0  0  0
    3.6349   -9.9159    3.9307 C   0  0  0  0  0  0  0  0  0  0  0  0
    1.3398   -9.3801    6.8488 C   0  0  0  0  0  0  0  0  0  0  0  0
   -0.1353   -4.7049    7.6428 H   0  0  0  0  0  0  0  0  0  0  0  0
    0.2392   -4.6092    9.3777 H   0  0  0  0  0  0  0  0  0  0  0  0
   -1.3749   -5.1448    8.8392 H   0  0  0  0  0  0  0  0  0  0  0  0
    0.8631   -9.2424   10.0892 H   0  0  0  0  0  0  0  0  0  0  0  0
   -0.3238   -6.9219    5.6310 H   0  0  0  0  0  0  0  0  0  0  0  0
    1.3516   -6.3573    5.8131 H   0  0  0  0  0  0  0  0  0  0  0  0
    1.7647  -12.2880    4.5425 H   0  0  0  0  0  0  0  0  0  0  0  0
    0.3701  -11.2479    5.0223 H   0  0  0  0  0  0  0  0  0  0  0  0
    0.3820  -12.1898    2.4591 H   0  0  0  0  0  0  0  0  0  0  0  0
   -0.1579  -10.4820    2.8037 H   0  0  0  0  0  0  0  0  0  0  0  0
    2.6193  -11.6602    2.5408 H   0  0  0  0  0  0  0  0  0  0  0  0
    2.9978  -10.2300    0.7441 H   0  0  0  0  0  0  0  0  0  0  0  0
    2.0626   -8.9050    1.4291 H   0  0  0  0  0  0  0  0  0  0  0  0
    3.5314   -7.2966    3.0396 H   0  0  0  0  0  0  0  0  0  0  0  0
    4.9885   -8.1437    0.3683 H   0  0  0  0  0  0  0  0  0  0  0  0
    4.5627   -6.4354    0.8979 H   0  0  0  0  0  0  0  0  0  0  0  0
    5.9931   -6.6928    2.8945 H   0  0  0  0  0  0  0  0  0  0  0  0
    6.4263   -8.4000    2.3681 H   0  0  0  0  0  0  0  0  0  0  0  0
    4.0212   -9.2281    4.6845 H   0  0  0  0  0  0  0  0  0  0  0  0
    4.1795  -10.8560    4.0573 H   0  0  0  0  0  0  0  0  0  0  0  0
    2.3765   -9.7225    6.9337 H   0  0  0  0  0  0  0  0  0  0  0  0
    0.6709  -10.2421    6.8441 H   0  0  0  0  0  0  0  0  0  0  0  0
    4.6677   -9.9047    2.1341 H   0  0  0  0  0  0  0  0  0  0  0  0
  1  2  1  0
  1 22  1  0
  1 23  1  0
  1 24  1  0
  2  6  1  0
  2  3  1  0
  3  4  2  0
  4  5  1  0
  4 25  1  0
  5 21  1  0
  5  6  2  0
  6  7  1  0
  7  8  1  0
  7 26  1  0
  7 27  1  0
  8  9  1  0
  8 21  1  0
  9 10  2  0
 11  9  1  6
 11 14  1  0
 11 20  1  0
 11 12  1  0
 12 13  1  0
 12 28  1  0
 12 29  1  0
 13 14  1  0
 13 30  1  0
 13 31  1  0
 14 15  1  0
 14 32  1  1
 15 16  1  0
 15 33  1  0
 15 34  1  0
 16 17  1  0
 16 20  1  0
 16 44  1  6
 17 19  1  0
 17 18  1  0
 17 35  1  0
 18 19  1  0
 18 36  1  0
 18 37  1  0
 19 38  1  0
 19 39  1  0
 20 40  1  0
 20 41  1  0
 21 42  1  0
 21 43  1  0
M  CHG  1  16   1
M  END
>  <i_m_ct_stereo_status>  (251) 
1

>  <s_m_source_file>  (251) 
/var/tmp/pbs.5076255.sched01/tmpy0mqr2dw/78t3ouse6d.sdf

>  <i_m_source_file_index>  (251) 
25

>  <i_lp_mmshare_version>  (251) 
48012

>  <i_f3d_flags>  (251) 
0

>  <s_epik_input>  (251) 
W2NIXTFubihbQ0gzXSljKGMxMilbQ0gyXU4oW0NIMl0yKUMoPU8pW0NAXTM0W0NAQEhdKFtDSDJdW0NIMl0zKVtDSDJdTihbQ0gyXTQpW0NIXTVbQ0gyXVtDSDJdNQ==

>  <s_epik_cmdline>  (251) 
J2VwaWtfcHl0aG9uJywgJy1waHQnLCAnMi4wJywgJy1waCcsICc3LjAnLCAnLXRuJywgJzgnLCAnLW1hJywgJzIwMCcsICctaW1hZScsICc8aW5maWxlLm1hZT4nLCAnLW9tYWUnLCAnPG91dGZpbGUubWFlPic=

>  <r_lp_tautomer_probability>  (251) 
1

>  <r_epik_Ionization_Penalty>  (251) 
0.00199449

>  <r_epik_Ionization_Penalty_Charging>  (251) 
0.00175721

>  <r_epik_Ionization_Penalty_Neutral>  (251) 
0.000237289

>  <r_epik_State_Penalty>  (251) 
-0

>  <r_epik_Charging_Adjusted_Penalty>  (251) 
0.00175721

>  <i_epik_Tot_Q>  (251) 
1

>  <i_epik_Tot_abs_Q>  (251) 
1

>  <s_lp_Force_Field>  (251) 
OPLS3e

>  <r_lp_Energy>  (251) 
65.7305

>  <b_lp_Chiralities_Consistent>  (251) 
1

>  <s_lp_Variant>  (251) 
76:0-1

>  <s_i_glide_gridfile>  (251) 
pfpi4k_grid

>  <i_i_glide_lignum>  (251) 
25

>  <i_i_glide_rotatable_bonds>  (251) 
3

>  <r_i_docking_score>  (251) 
-3.42219

>  <r_i_glide_ligand_efficiency>  (251) 
-0.162961

>  <r_i_glide_ligand_efficiency_sa>  (251) 
-0.449598

>  <r_i_glide_ligand_efficiency_ln>  (251) 
-0.846129

>  <r_i_glide_gscore>  (251) 
-3.42219

>  <r_i_glide_lipo>  (251) 
-0.379303

>  <r_i_glide_hbond>  (251) 
-0.32

>  <r_i_glide_metal>  (251) 
-0

>  <r_i_glide_rewards>  (251) 
-1.44968

>  <r_i_glide_evdw>  (251) 
-17.8

>  <r_i_glide_ecoul>  (251) 
-6.32714

>  <r_i_glide_erotb>  (251) 
0.660227

>  <r_i_glide_esite>  (251) 
-0.0943596

>  <r_i_glide_emodel>  (251) 
-31.2793

>  <r_i_glide_energy>  (251) 
-24.1271

>  <r_i_glide_einternal>  (251) 
1.16658

>  <r_i_glide_intrahb_reward>  (251) 
-0

>  <i_i_glide_confnum>  (251) 
1

>  <i_i_glide_posenum>  (251) 
3

>  <r_i_glide_eff_state_penalty>  (251) 
0

>  <ligand_id>  (251) 
76

>  <original_smiles>  (251) 
Cn1ncc2c1CN(C(=O)C13CCC1CN(C1CC1)C3)C2

>  <smiles>  (251) 
[H]c1nn(C([H])([H])[H])c2c1C([H])([H])N(C(=O)C13C([H])([H])C([H])([H])C1([H])C([H])([H])[N+]([H])(C1([H])C([H])([H])C1([H])[H])C3([H])[H])C2([H])[H]

$$$$
76:0:1
     RDKit          3D

 44 48  0  0  1  0  0  0  0  0999 V2000
   -2.1827   -4.3545    7.6139 C   0  0  0  0  0  0  0  0  0  0  0  0
   -1.0030   -4.0609    6.8337 N   0  0  0  0  0  0  0  0  0  0  0  0
   -0.4781   -2.8105    6.7656 N   0  0  0  0  0  0  0  0  0  0  0  0
    0.5985   -2.9129    5.9691 C   0  0  0  0  0  0  0  0  0  0  0  0
    0.7634   -4.2518    5.5136 C   0  0  0  0  0  0  0  0  0  0  0  0
   -0.2588   -4.8978    6.0522 C   0  0  0  0  0  0  0  0  0  0  0  0
   -0.3010   -6.3126    5.7358 C   0  0  0  0  0  0  0  0  0  0  0  0
    0.8997   -6.4757    4.8860 N   0  0  0  0  0  0  0  0  0  0  0  0
    1.3159   -7.6534    4.3394 C   0  0  0  0  0  0  0  0  0  0  0  0
    2.3404   -7.7009    3.6774 O   0  0  0  0  0  0  0  0  0  0  0  0
    0.4370   -8.9383    4.5469 C   0  0  1  0  0  0  0  0  0  0  0  0
   -0.6039   -9.0341    3.3906 C   0  0  0  0  0  0  0  0  0  0  0  0
    0.4521   -9.8370    2.5715 C   0  0  0  0  0  0  0  0  0  0  0  0
    0.8851  -10.2781    3.9573 C   0  0  1  0  0  0  0  0  0  0  0  0
    2.1589  -10.6421    4.6726 C   0  0  0  0  0  0  0  0  0  0  0  0
    1.7859  -10.2582    6.0740 N   0  0  1  0  0  0  0  0  0  0  0  0
    2.8748   -9.5173    6.7742 C   0  0  0  0  0  0  0  0  0  0  0  0
    3.8835  -10.4047    7.4544 C   0  0  0  0  0  0  0  0  0  0  0  0
    2.8574   -9.6592    8.2796 C   0  0  0  0  0  0  0  0  0  0  0  0
    0.5094   -9.4640    5.9947 C   0  0  0  0  0  0  0  0  0  0  0  0
    1.6099   -5.1734    4.6995 C   0  0  0  0  0  0  0  0  0  0  0  0
   -2.5328   -5.3555    7.3769 H   0  0  0  0  0  0  0  0  0  0  0  0
   -2.9753   -3.6587    7.3506 H   0  0  0  0  0  0  0  0  0  0  0  0
   -1.9601   -4.3084    8.6816 H   0  0  0  0  0  0  0  0  0  0  0  0
    1.1889   -2.0334    5.7683 H   0  0  0  0  0  0  0  0  0  0  0  0
   -0.2238   -6.8120    6.6989 H   0  0  0  0  0  0  0  0  0  0  0  0
   -1.2217   -6.5847    5.2109 H   0  0  0  0  0  0  0  0  0  0  0  0
   -1.5047   -9.5955    3.6368 H   0  0  0  0  0  0  0  0  0  0  0  0
   -0.8621   -8.0987    2.8983 H   0  0  0  0  0  0  0  0  0  0  0  0
    0.0275  -10.6426    1.9709 H   0  0  0  0  0  0  0  0  0  0  0  0
    1.1716   -9.2375    2.0128 H   0  0  0  0  0  0  0  0  0  0  0  0
    0.1573  -11.0687    4.1895 H   0  0  0  0  0  0  0  0  0  0  0  0
    2.3944  -11.7077    4.6134 H   0  0  0  0  0  0  0  0  0  0  0  0
    3.0185  -10.0799    4.3012 H   0  0  0  0  0  0  0  0  0  0  0  0
    3.1839   -8.5746    6.3303 H   0  0  0  0  0  0  0  0  0  0  0  0
    3.7843  -11.4860    7.4252 H   0  0  0  0  0  0  0  0  0  0  0  0
    4.9007  -10.0317    7.5092 H   0  0  0  0  0  0  0  0  0  0  0  0
    3.2383   -8.8256    8.8617 H   0  0  0  0  0  0  0  0  0  0  0  0
    2.1158  -10.2705    8.7873 H   0  0  0  0  0  0  0  0  0  0  0  0
    0.5572   -8.7195    6.7791 H   0  0  0  0  0  0  0  0  0  0  0  0
   -0.3544  -10.0934    6.2210 H   0  0  0  0  0  0  0  0  0  0  0  0
    1.6335   -4.8793    3.6496 H   0  0  0  0  0  0  0  0  0  0  0  0
    2.6384   -5.2254    5.0610 H   0  0  0  0  0  0  0  0  0  0  0  0
    1.5942  -11.1038    6.6251 H   0  0  0  0  0  0  0  0  0  0  0  0
  1  2  1  0
  1 22  1  0
  1 23  1  0
  1 24  1  0
  2  6  1  0
  2  3  1  0
  3  4  2  0
  4  5  1  0
  4 25  1  0
  5 21  1  0
  5  6  2  0
  6  7  1  0
  7  8  1  0
  7 26  1  0
  7 27  1  0
  8  9  1  0
  8 21  1  0
  9 10  2  0
 11  9  1  1
 11 14  1  0
 11 20  1  0
 11 12  1  0
 12 13  1  0
 12 28  1  0
 12 29  1  0
 13 14  1  0
 13 30  1  0
 13 31  1  0
 14 15  1  0
 14 32  1  1
 15 16  1  0
 15 33  1  0
 15 34  1  0
 16 17  1  0
 16 20  1  0
 16 44  1  1
 17 19  1  0
 17 18  1  0
 17 35  1  0
 18 19  1  0
 18 36  1  0
 18 37  1  0
 19 38  1  0
 19 39  1  0
 20 40  1  0
 20 41  1  0
 21 42  1  0
 21 43  1  0
M  CHG  1  16   1
M  END
>  <i_m_ct_stereo_status>  (252) 
1

>  <s_m_source_file>  (252) 
/var/tmp/pbs.5076255.sched01/tmpy0mqr2dw/78t3ouse6d.sdf

>  <i_m_source_file_index>  (252) 
25

>  <i_lp_mmshare_version>  (252) 
48012

>  <i_f3d_flags>  (252) 
0

>  <s_epik_input>  (252) 
W2NIXTFubihbQ0gzXSljKGMxMilbQ0gyXU4oW0NIMl0yKUMoPU8pW0NAXTM0W0NAQEhdKFtDSDJdW0NIMl0zKVtDSDJdTihbQ0gyXTQpW0NIXTVbQ0gyXVtDSDJdNQ==

>  <s_epik_cmdline>  (252) 
J2VwaWtfcHl0aG9uJywgJy1waHQnLCAnMi4wJywgJy1waCcsICc3LjAnLCAnLXRuJywgJzgnLCAnLW1hJywgJzIwMCcsICctaW1hZScsICc8aW5maWxlLm1hZT4nLCAnLW9tYWUnLCAnPG91dGZpbGUubWFlPic=

>  <r_lp_tautomer_probability>  (252) 
1

>  <r_epik_Ionization_Penalty>  (252) 
0.00199449

>  <r_epik_Ionization_Penalty_Charging>  (252) 
0.00175721

>  <r_epik_Ionization_Penalty_Neutral>  (252) 
0.000237289

>  <r_epik_State_Penalty>  (252) 
-0

>  <r_epik_Charging_Adjusted_Penalty>  (252) 
0.00175721

>  <i_epik_Tot_Q>  (252) 
1

>  <i_epik_Tot_abs_Q>  (252) 
1

>  <s_lp_Force_Field>  (252) 
OPLS3e

>  <r_lp_Energy>  (252) 
65.7305

>  <b_lp_Chiralities_Consistent>  (252) 
1

>  <s_lp_Variant>  (252) 
76:0-1

>  <s_i_glide_gridfile>  (252) 
pfpi4k_grid

>  <i_i_glide_lignum>  (252) 
25

>  <i_i_glide_rotatable_bonds>  (252) 
3

>  <r_i_docking_score>  (252) 
-3.12

>  <r_i_glide_ligand_efficiency>  (252) 
-0.148572

>  <r_i_glide_ligand_efficiency_sa>  (252) 
-0.409898

>  <r_i_glide_ligand_efficiency_ln>  (252) 
-0.771414

>  <r_i_glide_gscore>  (252) 
-3.12

>  <r_i_glide_lipo>  (252) 
-0.063931

>  <r_i_glide_hbond>  (252) 
-0.2

>  <r_i_glide_metal>  (252) 
-0

>  <r_i_glide_rewards>  (252) 
-1.44968

>  <r_i_glide_evdw>  (252) 
-16.2495

>  <r_i_glide_ecoul>  (252) 
-7.42817

>  <r_i_glide_erotb>  (252) 
0.660227

>  <r_i_glide_esite>  (252) 
-0.139915

>  <r_i_glide_emodel>  (252) 
-30.2822

>  <r_i_glide_energy>  (252) 
-23.6777

>  <r_i_glide_einternal>  (252) 
0.454005

>  <r_i_glide_intrahb_reward>  (252) 
-0

>  <i_i_glide_confnum>  (252) 
1

>  <i_i_glide_posenum>  (252) 
5

>  <r_i_glide_eff_state_penalty>  (252) 
0

>  <ligand_id>  (252) 
76

>  <original_smiles>  (252) 
Cn1ncc2c1CN(C(=O)C13CCC1CN(C1CC1)C3)C2

>  <smiles>  (252) 
[H]c1nn(C([H])([H])[H])c2c1C([H])([H])N(C(=O)C13C([H])([H])C([H])([H])C1([H])C([H])([H])[N+]([H])(C1([H])C([H])([H])C1([H])[H])C3([H])[H])C2([H])[H]

$$$$
76:0:2
     RDKit          3D

 44 48  0  0  1  0  0  0  0  0999 V2000
    1.2679   -1.5282    5.9342 C   0  0  0  0  0  0  0  0  0  0  0  0
    0.5171   -2.6826    6.3792 N   0  0  0  0  0  0  0  0  0  0  0  0
   -0.1858   -2.6646    7.5467 N   0  0  0  0  0  0  0  0  0  0  0  0
   -0.7320   -3.8834    7.6598 C   0  0  0  0  0  0  0  0  0  0  0  0
   -0.4030   -4.6876    6.5398 C   0  0  0  0  0  0  0  0  0  0  0  0
    0.3696   -3.9083    5.7869 C   0  0  0  0  0  0  0  0  0  0  0  0
    0.8379   -4.5618    4.5624 C   0  0  0  0  0  0  0  0  0  0  0  0
    0.2232   -5.9130    4.6844 N   0  0  0  0  0  0  0  0  0  0  0  0
    0.3665   -6.8729    3.7501 C   0  0  0  0  0  0  0  0  0  0  0  0
    1.0188   -6.6600    2.7293 O   0  0  0  0  0  0  0  0  0  0  0  0
   -0.3340   -8.2599    3.9666 C   0  0  1  0  0  0  0  0  0  0  0  0
   -1.8348   -8.1459    3.5743 C   0  0  0  0  0  0  0  0  0  0  0  0
   -1.4165   -8.4996    2.1204 C   0  0  0  0  0  0  0  0  0  0  0  0
   -0.3450   -9.2986    2.8421 C   0  0  1  0  0  0  0  0  0  0  0  0
    1.0881   -9.6937    2.6156 C   0  0  0  0  0  0  0  0  0  0  0  0
    1.5430   -9.7766    4.0467 N   0  0  1  0  0  0  0  0  0  0  0  0
    2.8897   -9.1883    4.2585 C   0  0  0  0  0  0  0  0  0  0  0  0
    4.0492  -10.0905    3.9047 C   0  0  0  0  0  0  0  0  0  0  0  0
    3.7072   -9.8379    5.3536 C   0  0  0  0  0  0  0  0  0  0  0  0
    0.4775   -9.1471    4.9188 C   0  0  0  0  0  0  0  0  0  0  0  0
   -0.5828   -6.0271    5.9289 C   0  0  0  0  0  0  0  0  0  0  0  0
    1.9017   -1.8084    5.0911 H   0  0  0  0  0  0  0  0  0  0  0  0
    1.8992   -1.1549    6.7399 H   0  0  0  0  0  0  0  0  0  0  0  0
    0.5811   -0.7430    5.6147 H   0  0  0  0  0  0  0  0  0  0  0  0
   -1.3343   -4.1189    8.5253 H   0  0  0  0  0  0  0  0  0  0  0  0
    0.4884   -4.0281    3.6793 H   0  0  0  0  0  0  0  0  0  0  0  0
    1.9252   -4.6243    4.5406 H   0  0  0  0  0  0  0  0  0  0  0  0
   -2.4739   -8.8884    4.0578 H   0  0  0  0  0  0  0  0  0  0  0  0
   -2.2626   -7.1480    3.6380 H   0  0  0  0  0  0  0  0  0  0  0  0
   -2.1508   -9.1108    1.6031 H   0  0  0  0  0  0  0  0  0  0  0  0
   -1.0401   -7.6775    1.5097 H   0  0  0  0  0  0  0  0  0  0  0  0
   -0.8741  -10.2123    3.1522 H   0  0  0  0  0  0  0  0  0  0  0  0
    1.1821  -10.6593    2.1105 H   0  0  0  0  0  0  0  0  0  0  0  0
    1.6508   -8.9567    2.0385 H   0  0  0  0  0  0  0  0  0  0  0  0
    2.9759   -8.1172    4.0900 H   0  0  0  0  0  0  0  0  0  0  0  0
    3.8718  -11.0995    3.5356 H   0  0  0  0  0  0  0  0  0  0  0  0
    4.9519   -9.6088    3.5315 H   0  0  0  0  0  0  0  0  0  0  0  0
    4.3975   -9.1987    5.9040 H   0  0  0  0  0  0  0  0  0  0  0  0
    3.3141  -10.6875    5.9114 H   0  0  0  0  0  0  0  0  0  0  0  0
    0.9243   -8.5987    5.7523 H   0  0  0  0  0  0  0  0  0  0  0  0
   -0.1569   -9.9270    5.3519 H   0  0  0  0  0  0  0  0  0  0  0  0
   -0.1992   -6.8169    6.5747 H   0  0  0  0  0  0  0  0  0  0  0  0
   -1.6305   -6.2228    5.6846 H   0  0  0  0  0  0  0  0  0  0  0  0
    1.5992  -10.7525    4.3027 H   0  0  0  0  0  0  0  0  0  0  0  0
  1  2  1  0
  1 22  1  0
  1 23  1  0
  1 24  1  0
  2  6  1  0
  2  3  1  0
  3  4  2  0
  4  5  1  0
  4 25  1  0
  5 21  1  0
  5  6  2  0
  6  7  1  0
  7  8  1  0
  7 26  1  0
  7 27  1  0
  8  9  1  0
  8 21  1  0
  9 10  2  0
 11  9  1  6
 11 14  1  0
 11 20  1  0
 11 12  1  0
 12 13  1  0
 12 28  1  0
 12 29  1  0
 13 14  1  0
 13 30  1  0
 13 31  1  0
 14 15  1  0
 14 32  1  1
 15 16  1  0
 15 33  1  0
 15 34  1  0
 16 17  1  0
 16 20  1  0
 16 44  1  1
 17 19  1  0
 17 18  1  0
 17 35  1  0
 18 19  1  0
 18 36  1  0
 18 37  1  0
 19 38  1  0
 19 39  1  0
 20 40  1  0
 20 41  1  0
 21 42  1  0
 21 43  1  0
M  CHG  1  16   1
M  END
>  <i_m_ct_stereo_status>  (253) 
1

>  <s_m_source_file>  (253) 
/var/tmp/pbs.5076255.sched01/tmpy0mqr2dw/78t3ouse6d.sdf

>  <i_m_source_file_index>  (253) 
25

>  <i_lp_mmshare_version>  (253) 
48012

>  <i_f3d_flags>  (253) 
0

>  <s_epik_input>  (253) 
W2NIXTFubihbQ0gzXSljKGMxMilbQ0gyXU4oW0NIMl0yKUMoPU8pW0NAXTM0W0NAQEhdKFtDSDJdW0NIMl0zKVtDSDJdTihbQ0gyXTQpW0NIXTVbQ0gyXVtDSDJdNQ==

>  <s_epik_cmdline>  (253) 
J2VwaWtfcHl0aG9uJywgJy1waHQnLCAnMi4wJywgJy1waCcsICc3LjAnLCAnLXRuJywgJzgnLCAnLW1hJywgJzIwMCcsICctaW1hZScsICc8aW5maWxlLm1hZT4nLCAnLW9tYWUnLCAnPG91dGZpbGUubWFlPic=

>  <r_lp_tautomer_probability>  (253) 
1

>  <r_epik_Ionization_Penalty>  (253) 
0.00199449

>  <r_epik_Ionization_Penalty_Charging>  (253) 
0.00175721

>  <r_epik_Ionization_Penalty_Neutral>  (253) 
0.000237289

>  <r_epik_State_Penalty>  (253) 
-0

>  <r_epik_Charging_Adjusted_Penalty>  (253) 
0.00175721

>  <i_epik_Tot_Q>  (253) 
1

>  <i_epik_Tot_abs_Q>  (253) 
1

>  <s_lp_Force_Field>  (253) 
OPLS3e

>  <r_lp_Energy>  (253) 
65.7305

>  <b_lp_Chiralities_Consistent>  (253) 
1

>  <s_lp_Variant>  (253) 
76:0-1

>  <s_i_glide_gridfile>  (253) 
pfpi4k_grid

>  <i_i_glide_lignum>  (253) 
25

>  <i_i_glide_rotatable_bonds>  (253) 
3

>  <r_i_docking_score>  (253) 
-2.78506

>  <r_i_glide_ligand_efficiency>  (253) 
-0.132622

>  <r_i_glide_ligand_efficiency_sa>  (253) 
-0.365893

>  <r_i_glide_ligand_efficiency_ln>  (253) 
-0.6886

>  <r_i_glide_gscore>  (253) 
-2.78506

>  <r_i_glide_lipo>  (253) 
-0.126851

>  <r_i_glide_hbond>  (253) 
-0.0307885

>  <r_i_glide_metal>  (253) 
-0

>  <r_i_glide_rewards>  (253) 
-1.44968

>  <r_i_glide_evdw>  (253) 
-18.7837

>  <r_i_glide_ecoul>  (253) 
-5.46427

>  <r_i_glide_erotb>  (253) 
0.660227

>  <r_i_glide_esite>  (253) 
-0.0791381

>  <r_i_glide_emodel>  (253) 
-30.7982

>  <r_i_glide_energy>  (253) 
-24.2479

>  <r_i_glide_einternal>  (253) 
0.0352567

>  <r_i_glide_intrahb_reward>  (253) 
-0

>  <i_i_glide_confnum>  (253) 
4

>  <i_i_glide_posenum>  (253) 
36

>  <r_i_glide_eff_state_penalty>  (253) 
0

>  <ligand_id>  (253) 
76

>  <original_smiles>  (253) 
Cn1ncc2c1CN(C(=O)C13CCC1CN(C1CC1)C3)C2

>  <smiles>  (253) 
[H]c1nn(C([H])([H])[H])c2c1C([H])([H])N(C(=O)C13C([H])([H])C([H])([H])C1([H])C([H])([H])[N+]([H])(C1([H])C([H])([H])C1([H])[H])C3([H])[H])C2([H])[H]

$$$$
77:0:0
     RDKit          3D

 45 48  0  0  1  0  0  0  0  0999 V2000
    3.1339   -4.4769    3.1632 C   0  0  0  0  0  0  0  0  0  0  0  0
    4.1676   -3.5970    2.4428 C   0  0  2  0  0  0  0  0  0  0  0  0
    4.1677   -2.1567    2.9818 C   0  0  0  0  0  0  0  0  0  0  0  0
    5.3021   -1.3406    2.3465 C   0  0  0  0  0  0  0  0  0  0  0  0
    5.2503   -1.3836    0.8025 C   0  0  1  0  0  0  0  0  0  0  0  0
    6.3565   -0.7224    0.2124 O   0  0  0  0  0  0  0  0  0  0  0  0
    7.6195   -1.4704    0.5835 O   0  0  0  0  0  0  0  0  0  0  0  0
    7.5489   -2.7859    0.0502 C   0  0  2  0  0  0  0  0  0  0  0  0
    8.7924   -3.5201    0.5464 C   0  0  0  0  0  0  0  0  0  0  0  0
    7.5317   -2.8052   -1.4844 C   0  0  0  0  0  0  0  0  0  0  0  0
    6.1970   -2.3385   -2.0619 C   0  0  0  0  0  0  0  0  0  0  0  0
    5.0186   -2.9424   -1.3208 C   0  0  2  0  0  0  0  0  0  0  0  0
    3.6568   -2.4032   -1.8220 C   0  0  1  0  0  0  0  0  0  0  0  0
    3.4692   -2.4512   -3.3513 C   0  0  0  0  0  0  0  0  0  0  0  0
    2.5792   -3.2382   -1.1403 C   0  0  0  0  0  0  0  0  0  0  0  0
    2.6730   -3.1669    0.3839 C   0  0  0  0  0  0  0  0  0  0  0  0
    4.0550   -3.6275    0.8991 C   0  0  1  0  0  0  0  0  0  0  0  0
    5.1914   -2.8308    0.2248 C   0  0  2  0  0  0  0  0  0  0  0  0
    6.4199   -3.4854    0.5520 O   0  0  0  0  0  0  0  0  0  0  0  0
    2.1231   -4.0802    3.0788 H   0  0  0  0  0  0  0  0  0  0  0  0
    3.3670   -4.5491    4.2258 H   0  0  0  0  0  0  0  0  0  0  0  0
    3.1357   -5.4907    2.7626 H   0  0  0  0  0  0  0  0  0  0  0  0
    5.1368   -4.0220    2.6989 H   0  0  0  0  0  0  0  0  0  0  0  0
    3.2114   -1.6737    2.7826 H   0  0  0  0  0  0  0  0  0  0  0  0
    4.2864   -2.1647    4.0657 H   0  0  0  0  0  0  0  0  0  0  0  0
    5.2717   -0.3088    2.6905 H   0  0  0  0  0  0  0  0  0  0  0  0
    6.2492   -1.7350    2.6993 H   0  0  0  0  0  0  0  0  0  0  0  0
    4.3746   -0.8248    0.4933 H   0  0  0  0  0  0  0  0  0  0  0  0
    8.8334   -3.5323    1.6366 H   0  0  0  0  0  0  0  0  0  0  0  0
    9.7041   -3.0362    0.1871 H   0  0  0  0  0  0  0  0  0  0  0  0
    8.7981   -4.5613    0.2211 H   0  0  0  0  0  0  0  0  0  0  0  0
    8.3730   -2.2483   -1.8988 H   0  0  0  0  0  0  0  0  0  0  0  0
    7.6876   -3.8296   -1.8101 H   0  0  0  0  0  0  0  0  0  0  0  0
    6.1214   -1.2526   -2.0704 H   0  0  0  0  0  0  0  0  0  0  0  0
    6.1720   -2.6640   -3.0953 H   0  0  0  0  0  0  0  0  0  0  0  0
    5.0415   -4.0064   -1.5771 H   0  0  0  0  0  0  0  0  0  0  0  0
    3.5232   -1.3625   -1.5266 H   0  0  0  0  0  0  0  0  0  0  0  0
    3.6454   -3.4521   -3.7481 H   0  0  0  0  0  0  0  0  0  0  0  0
    4.1348   -1.7551   -3.8594 H   0  0  0  0  0  0  0  0  0  0  0  0
    2.4517   -2.1671   -3.6249 H   0  0  0  0  0  0  0  0  0  0  0  0
    1.5897   -2.9537   -1.4890 H   0  0  0  0  0  0  0  0  0  0  0  0
    2.6783   -4.2635   -1.4623 H   0  0  0  0  0  0  0  0  0  0  0  0
    2.4501   -2.1488    0.6961 H   0  0  0  0  0  0  0  0  0  0  0  0
    1.9028   -3.8066    0.8061 H   0  0  0  0  0  0  0  0  0  0  0  0
    4.1636   -4.6710    0.5997 H   0  0  0  0  0  0  0  0  0  0  0  0
  1  2  1  0
  1 20  1  0
  1 21  1  0
  1 22  1  0
  2 17  1  0
  2  3  1  0
  2 23  1  6
  3  4  1  0
  3 24  1  0
  3 25  1  0
  4  5  1  0
  4 26  1  0
  4 27  1  0
  5 18  1  0
  5  6  1  0
  5 28  1  6
  6  7  1  0
  7  8  1  0
  8 19  1  0
  8  9  1  1
  8 10  1  0
  9 29  1  0
  9 30  1  0
  9 31  1  0
 10 11  1  0
 10 32  1  0
 10 33  1  0
 11 12  1  0
 11 34  1  0
 11 35  1  0
 12 18  1  0
 12 13  1  0
 12 36  1  1
 13 14  1  0
 13 15  1  0
 13 37  1  1
 14 38  1  0
 14 39  1  0
 14 40  1  0
 15 16  1  0
 15 41  1  0
 15 42  1  0
 16 17  1  0
 16 43  1  0
 16 44  1  0
 17 18  1  0
 17 45  1  6
 18 19  1  6
M  END
>  <i_m_ct_stereo_status>  (254) 
1

>  <s_m_source_file>  (254) 
/var/tmp/pbs.5076255.sched01/tmpy0mqr2dw/78t3ouse6d.sdf

>  <i_m_source_file_index>  (254) 
26

>  <i_lp_mmshare_version>  (254) 
48012

>  <i_f3d_flags>  (254) 
0

>  <s_epik_input>  (254) 
W0NAQF0xMjNbQ0BIXTRbQ0gyXVtDSDJdW0NAQEhdKFtDSDNdKVtDQEhdMltDSDJdW0NIMl1bQ0BIXShbQ0gzXSlbQ0BIXTFbQ0gyXVtDSDJdW0NAXShPMykoT080KVtDSDNd

>  <s_epik_cmdline>  (254) 
J2VwaWtfcHl0aG9uJywgJy1waHQnLCAnMi4wJywgJy1waCcsICc3LjAnLCAnLXRuJywgJzgnLCAnLW1hJywgJzIwMCcsICctaW1hZScsICc8aW5maWxlLm1hZT4nLCAnLW9tYWUnLCAnPG91dGZpbGUubWFlPic=

>  <r_lp_tautomer_probability>  (254) 
1

>  <r_epik_Ionization_Penalty>  (254) 
7.61722e-14

>  <r_epik_Ionization_Penalty_Charging>  (254) 
0

>  <r_epik_Ionization_Penalty_Neutral>  (254) 
7.61722e-14

>  <r_epik_State_Penalty>  (254) 
-0

>  <r_epik_Charging_Adjusted_Penalty>  (254) 
0

>  <i_epik_Tot_Q>  (254) 
0

>  <i_epik_Tot_abs_Q>  (254) 
0

>  <s_lp_Force_Field>  (254) 
OPLS3e

>  <r_lp_Energy>  (254) 
22.2945

>  <b_lp_Chiralities_Consistent>  (254) 
1

>  <s_lp_Variant>  (254) 
77:0-1

>  <s_i_glide_gridfile>  (254) 
pfpi4k_grid

>  <i_i_glide_lignum>  (254) 
26

>  <i_i_glide_rotatable_bonds>  (254) 
0

>  <r_i_docking_score>  (254) 
-3.47921

>  <r_i_glide_ligand_efficiency>  (254) 
-0.183116

>  <r_i_glide_ligand_efficiency_sa>  (254) 
-0.488628

>  <r_i_glide_ligand_efficiency_ln>  (254) 
-0.882055

>  <r_i_glide_gscore>  (254) 
-3.47921

>  <r_i_glide_lipo>  (254) 
-0.560065

>  <r_i_glide_hbond>  (254) 
-0.0147757

>  <r_i_glide_metal>  (254) 
-0

>  <r_i_glide_rewards>  (254) 
-1.75194

>  <r_i_glide_evdw>  (254) 
-21.6547

>  <r_i_glide_ecoul>  (254) 
-0.464628

>  <r_i_glide_erotb>  (254) 
0

>  <r_i_glide_esite>  (254) 
0

>  <r_i_glide_emodel>  (254) 
-26.3658

>  <r_i_glide_energy>  (254) 
-22.1193

>  <r_i_glide_einternal>  (254) 
0

>  <r_i_glide_intrahb_reward>  (254) 
-0

>  <i_i_glide_confnum>  (254) 
1

>  <i_i_glide_posenum>  (254) 
9

>  <r_i_glide_eff_state_penalty>  (254) 
0

>  <ligand_id>  (254) 
77

>  <original_smiles>  (254) 
CC1CCC2OOC3(C)CCC4C(C)CCC1C24O3

>  <smiles>  (254) 
[H]C([H])([H])C12OOC3([H])C([H])([H])C([H])([H])C([H])(C([H])([H])[H])C4([H])C([H])([H])C([H])([H])C([H])(C([H])([H])[H])C([H])(C([H])([H])C1([H])[H])C34O2

$$$$
77:0:1
     RDKit          3D

 45 48  0  0  1  0  0  0  0  0999 V2000
    2.2534   -6.2640    1.4352 C   0  0  0  0  0  0  0  0  0  0  0  0
    3.3481   -5.1887    1.3800 C   0  0  2  0  0  0  0  0  0  0  0  0
    3.1632   -4.1268    2.4810 C   0  0  0  0  0  0  0  0  0  0  0  0
    4.3490   -3.1485    2.4999 C   0  0  0  0  0  0  0  0  0  0  0  0
    4.5813   -2.5061    1.1169 C   0  0  1  0  0  0  0  0  0  0  0  0
    5.7246   -1.6743    1.0939 O   0  0  0  0  0  0  0  0  0  0  0  0
    6.9669   -2.5252    1.2777 O   0  0  0  0  0  0  0  0  0  0  0  0
    7.0524   -3.5038    0.2635 C   0  0  2  0  0  0  0  0  0  0  0  0
    8.2152   -4.4125    0.6930 C   0  0  0  0  0  0  0  0  0  0  0  0
    7.3391   -2.8498   -1.0956 C   0  0  0  0  0  0  0  0  0  0  0  0
    6.1035   -2.1141   -1.6276 C   0  0  0  0  0  0  0  0  0  0  0  0
    4.8458   -2.9554   -1.4712 C   0  0  2  0  0  0  0  0  0  0  0  0
    3.5665   -2.2171   -1.9518 C   0  0  1  0  0  0  0  0  0  0  0  0
    3.6853   -1.5983   -3.3587 C   0  0  0  0  0  0  0  0  0  0  0  0
    2.4102   -3.2111   -1.9344 C   0  0  0  0  0  0  0  0  0  0  0  0
    2.2534   -3.8620   -0.5587 C   0  0  0  0  0  0  0  0  0  0  0  0
    3.5331   -4.5370   -0.0182 C   0  0  1  0  0  0  0  0  0  0  0  0
    4.7156   -3.5459   -0.0341 C   0  0  2  0  0  0  0  0  0  0  0  0
    5.8964   -4.3162    0.2020 O   0  0  0  0  0  0  0  0  0  0  0  0
    1.2511   -5.8532    1.3251 H   0  0  0  0  0  0  0  0  0  0  0  0
    2.2842   -6.7995    2.3837 H   0  0  0  0  0  0  0  0  0  0  0  0
    2.4032   -7.0001    0.6507 H   0  0  0  0  0  0  0  0  0  0  0  0
    4.2758   -5.7089    1.6142 H   0  0  0  0  0  0  0  0  0  0  0  0
    2.2291   -3.5807    2.3270 H   0  0  0  0  0  0  0  0  0  0  0  0
    3.0654   -4.6131    3.4521 H   0  0  0  0  0  0  0  0  0  0  0  0
    4.1762   -2.3735    3.2414 H   0  0  0  0  0  0  0  0  0  0  0  0
    5.2449   -3.6785    2.8245 H   0  0  0  0  0  0  0  0  0  0  0  0
    3.7308   -1.8591    0.9123 H   0  0  0  0  0  0  0  0  0  0  0  0
    8.0216   -4.8551    1.6727 H   0  0  0  0  0  0  0  0  0  0  0  0
    9.1466   -3.8473    0.7647 H   0  0  0  0  0  0  0  0  0  0  0  0
    8.3641   -5.2273   -0.0165 H   0  0  0  0  0  0  0  0  0  0  0  0
    8.2091   -2.1940   -1.0175 H   0  0  0  0  0  0  0  0  0  0  0  0
    7.6085   -3.6232   -1.8095 H   0  0  0  0  0  0  0  0  0  0  0  0
    5.9849   -1.1313   -1.1717 H   0  0  0  0  0  0  0  0  0  0  0  0
    6.2249   -1.9577   -2.6865 H   0  0  0  0  0  0  0  0  0  0  0  0
    4.9881   -3.8039   -2.1471 H   0  0  0  0  0  0  0  0  0  0  0  0
    3.3288   -1.4053   -1.2662 H   0  0  0  0  0  0  0  0  0  0  0  0
    4.0020   -2.3344   -4.0971 H   0  0  0  0  0  0  0  0  0  0  0  0
    4.3892   -0.7693   -3.3712 H   0  0  0  0  0  0  0  0  0  0  0  0
    2.7225   -1.2010   -3.6791 H   0  0  0  0  0  0  0  0  0  0  0  0
    1.4795   -2.7274   -2.2239 H   0  0  0  0  0  0  0  0  0  0  0  0
    2.5871   -3.9574   -2.7020 H   0  0  0  0  0  0  0  0  0  0  0  0
    1.9079   -3.0879    0.1285 H   0  0  0  0  0  0  0  0  0  0  0  0
    1.4579   -4.6076   -0.6371 H   0  0  0  0  0  0  0  0  0  0  0  0
    3.7880   -5.3454   -0.7048 H   0  0  0  0  0  0  0  0  0  0  0  0
  1  2  1  0
  1 20  1  0
  1 21  1  0
  1 22  1  0
  2 17  1  0
  2  3  1  0
  2 23  1  1
  3  4  1  0
  3 24  1  0
  3 25  1  0
  4  5  1  0
  4 26  1  0
  4 27  1  0
  5 18  1  0
  5  6  1  0
  5 28  1  6
  6  7  1  0
  7  8  1  0
  8 19  1  0
  8  9  1  1
  8 10  1  0
  9 29  1  0
  9 30  1  0
  9 31  1  0
 10 11  1  0
 10 32  1  0
 10 33  1  0
 11 12  1  0
 11 34  1  0
 11 35  1  0
 12 18  1  0
 12 13  1  0
 12 36  1  6
 13 14  1  0
 13 15  1  0
 13 37  1  1
 14 38  1  0
 14 39  1  0
 14 40  1  0
 15 16  1  0
 15 41  1  0
 15 42  1  0
 16 17  1  0
 16 43  1  0
 16 44  1  0
 17 18  1  0
 17 45  1  6
 18 19  1  1
M  END
>  <i_m_ct_stereo_status>  (255) 
1

>  <s_m_source_file>  (255) 
/var/tmp/pbs.5076255.sched01/tmpy0mqr2dw/78t3ouse6d.sdf

>  <i_m_source_file_index>  (255) 
26

>  <i_lp_mmshare_version>  (255) 
48012

>  <i_f3d_flags>  (255) 
0

>  <s_epik_input>  (255) 
W0NAQF0xMjNbQ0BIXTRbQ0gyXVtDSDJdW0NAQEhdKFtDSDNdKVtDQEhdMltDSDJdW0NIMl1bQ0BIXShbQ0gzXSlbQ0BIXTFbQ0gyXVtDSDJdW0NAXShPMykoT080KVtDSDNd

>  <s_epik_cmdline>  (255) 
J2VwaWtfcHl0aG9uJywgJy1waHQnLCAnMi4wJywgJy1waCcsICc3LjAnLCAnLXRuJywgJzgnLCAnLW1hJywgJzIwMCcsICctaW1hZScsICc8aW5maWxlLm1hZT4nLCAnLW9tYWUnLCAnPG91dGZpbGUubWFlPic=

>  <r_lp_tautomer_probability>  (255) 
1

>  <r_epik_Ionization_Penalty>  (255) 
7.61722e-14

>  <r_epik_Ionization_Penalty_Charging>  (255) 
0

>  <r_epik_Ionization_Penalty_Neutral>  (255) 
7.61722e-14

>  <r_epik_State_Penalty>  (255) 
-0

>  <r_epik_Charging_Adjusted_Penalty>  (255) 
0

>  <i_epik_Tot_Q>  (255) 
0

>  <i_epik_Tot_abs_Q>  (255) 
0

>  <s_lp_Force_Field>  (255) 
OPLS3e

>  <r_lp_Energy>  (255) 
22.2945

>  <b_lp_Chiralities_Consistent>  (255) 
1

>  <s_lp_Variant>  (255) 
77:0-1

>  <s_i_glide_gridfile>  (255) 
pfpi4k_grid

>  <i_i_glide_lignum>  (255) 
26

>  <i_i_glide_rotatable_bonds>  (255) 
0

>  <r_i_docking_score>  (255) 
-3.25434

>  <r_i_glide_ligand_efficiency>  (255) 
-0.171281

>  <r_i_glide_ligand_efficiency_sa>  (255) 
-0.457046

>  <r_i_glide_ligand_efficiency_ln>  (255) 
-0.825044

>  <r_i_glide_gscore>  (255) 
-3.25434

>  <r_i_glide_lipo>  (255) 
-0.443315

>  <r_i_glide_hbond>  (255) 
0

>  <r_i_glide_metal>  (255) 
-0

>  <r_i_glide_rewards>  (255) 
-1.77768

>  <r_i_glide_evdw>  (255) 
-20.6855

>  <r_i_glide_ecoul>  (255) 
0.006213

>  <r_i_glide_erotb>  (255) 
0

>  <r_i_glide_esite>  (255) 
0

>  <r_i_glide_emodel>  (255) 
-24.5956

>  <r_i_glide_energy>  (255) 
-20.6792

>  <r_i_glide_einternal>  (255) 
0

>  <r_i_glide_intrahb_reward>  (255) 
-0

>  <i_i_glide_confnum>  (255) 
1

>  <i_i_glide_posenum>  (255) 
17

>  <r_i_glide_eff_state_penalty>  (255) 
0

>  <ligand_id>  (255) 
77

>  <original_smiles>  (255) 
CC1CCC2OOC3(C)CCC4C(C)CCC1C24O3

>  <smiles>  (255) 
[H]C([H])([H])C12OOC3([H])C([H])([H])C([H])([H])C([H])(C([H])([H])[H])C4([H])C([H])([H])C([H])([H])C([H])(C([H])([H])[H])C([H])(C([H])([H])C1([H])[H])C34O2

$$$$
77:0:2
     RDKit          3D

 45 48  0  0  1  0  0  0  0  0999 V2000
    4.2804   -1.1032   -2.0877 C   0  0  0  0  0  0  0  0  0  0  0  0
    4.2285   -2.3220   -1.1570 C   0  0  2  0  0  0  0  0  0  0  0  0
    2.9590   -3.1682   -1.3636 C   0  0  0  0  0  0  0  0  0  0  0  0
    2.9692   -4.4097   -0.4880 C   0  0  0  0  0  0  0  0  0  0  0  0
    3.1806   -4.1169    0.9948 C   0  0  1  0  0  0  0  0  0  0  0  0
    3.2871   -5.3542    1.6757 O   0  0  0  0  0  0  0  0  0  0  0  0
    4.4998   -6.0858    1.1513 O   0  0  0  0  0  0  0  0  0  0  0  0
    5.6461   -5.3012    1.4220 C   0  0  2  0  0  0  0  0  0  0  0  0
    6.8389   -5.9813    0.7954 C   0  0  0  0  0  0  0  0  0  0  0  0
    5.9116   -5.1270    2.9086 C   0  0  0  0  0  0  0  0  0  0  0  0
    4.9469   -4.1458    3.5882 C   0  0  0  0  0  0  0  0  0  0  0  0
    4.7399   -2.9001    2.7103 C   0  0  2  0  0  0  0  0  0  0  0  0
    3.6728   -1.9185    3.2597 C   0  0  1  0  0  0  0  0  0  0  0  0
    3.8869   -1.5493    4.7318 C   0  0  0  0  0  0  0  0  0  0  0  0
    3.6778   -0.6600    2.3851 C   0  0  0  0  0  0  0  0  0  0  0  0
    3.4161   -0.9829    0.9192 C   0  0  0  0  0  0  0  0  0  0  0  0
    4.4441   -1.9937    0.3496 C   0  0  1  0  0  0  0  0  0  0  0  0
    4.4648   -3.2728    1.2274 C   0  0  2  0  0  0  0  0  0  0  0  0
    5.5880   -4.0354    0.8000 O   0  0  0  0  0  0  0  0  0  0  0  0
    3.4157   -0.4662   -1.9500 H   0  0  0  0  0  0  0  0  0  0  0  0
    4.2812   -1.4031   -3.1326 H   0  0  0  0  0  0  0  0  0  0  0  0
    5.1706   -0.5057   -1.9146 H   0  0  0  0  0  0  0  0  0  0  0  0
    5.0702   -2.9555   -1.4749 H   0  0  0  0  0  0  0  0  0  0  0  0
    2.0470   -2.6596   -1.0747 H   0  0  0  0  0  0  0  0  0  0  0  0
    2.8368   -3.4252   -2.4199 H   0  0  0  0  0  0  0  0  0  0  0  0
    2.0325   -4.9400   -0.6308 H   0  0  0  0  0  0  0  0  0  0  0  0
    3.7724   -5.0557   -0.8371 H   0  0  0  0  0  0  0  0  0  0  0  0
    2.3062   -3.6083    1.3898 H   0  0  0  0  0  0  0  0  0  0  0  0
    6.6414   -5.9921   -0.2771 H   0  0  0  0  0  0  0  0  0  0  0  0
    6.9568   -7.0112    1.1503 H   0  0  0  0  0  0  0  0  0  0  0  0
    7.7774   -5.4460    0.9674 H   0  0  0  0  0  0  0  0  0  0  0  0
    5.9689   -6.0757    3.4462 H   0  0  0  0  0  0  0  0  0  0  0  0
    6.9036   -4.6914    2.9125 H   0  0  0  0  0  0  0  0  0  0  0  0
    3.9966   -4.6359    3.8206 H   0  0  0  0  0  0  0  0  0  0  0  0
    5.3786   -3.8623    4.5445 H   0  0  0  0  0  0  0  0  0  0  0  0
    5.6927   -2.3612    2.7286 H   0  0  0  0  0  0  0  0  0  0  0  0
    2.6895   -2.3857    3.1937 H   0  0  0  0  0  0  0  0  0  0  0  0
    4.8886   -1.1508    4.8981 H   0  0  0  0  0  0  0  0  0  0  0  0
    3.7460   -2.4117    5.3794 H   0  0  0  0  0  0  0  0  0  0  0  0
    3.1663   -0.7938    5.0377 H   0  0  0  0  0  0  0  0  0  0  0  0
    2.9135    0.0383    2.7337 H   0  0  0  0  0  0  0  0  0  0  0  0
    4.6366   -0.1472    2.4761 H   0  0  0  0  0  0  0  0  0  0  0  0
    2.4004   -1.3588    0.8367 H   0  0  0  0  0  0  0  0  0  0  0  0
    3.4699   -0.0536    0.3599 H   0  0  0  0  0  0  0  0  0  0  0  0
    5.4250   -1.5248    0.4233 H   0  0  0  0  0  0  0  0  0  0  0  0
  1  2  1  0
  1 20  1  0
  1 21  1  0
  1 22  1  0
  2 17  1  0
  2  3  1  0
  2 23  1  6
  3  4  1  0
  3 24  1  0
  3 25  1  0
  4  5  1  0
  4 26  1  0
  4 27  1  0
  5 18  1  0
  5  6  1  0
  5 28  1  1
  6  7  1  0
  7  8  1  0
  8 19  1  0
  8  9  1  6
  8 10  1  0
  9 29  1  0
  9 30  1  0
  9 31  1  0
 10 11  1  0
 10 32  1  0
 10 33  1  0
 11 12  1  0
 11 34  1  0
 11 35  1  0
 12 18  1  0
 12 13  1  0
 12 36  1  6
 13 14  1  0
 13 15  1  0
 13 37  1  1
 14 38  1  0
 14 39  1  0
 14 40  1  0
 15 16  1  0
 15 41  1  0
 15 42  1  0
 16 17  1  0
 16 43  1  0
 16 44  1  0
 17 18  1  0
 17 45  1  6
 18 19  1  6
M  END
>  <i_m_ct_stereo_status>  (256) 
1

>  <s_m_source_file>  (256) 
/var/tmp/pbs.5076255.sched01/tmpy0mqr2dw/78t3ouse6d.sdf

>  <i_m_source_file_index>  (256) 
26

>  <i_lp_mmshare_version>  (256) 
48012

>  <i_f3d_flags>  (256) 
0

>  <s_epik_input>  (256) 
W0NAQF0xMjNbQ0BIXTRbQ0gyXVtDSDJdW0NAQEhdKFtDSDNdKVtDQEhdMltDSDJdW0NIMl1bQ0BIXShbQ0gzXSlbQ0BIXTFbQ0gyXVtDSDJdW0NAXShPMykoT080KVtDSDNd

>  <s_epik_cmdline>  (256) 
J2VwaWtfcHl0aG9uJywgJy1waHQnLCAnMi4wJywgJy1waCcsICc3LjAnLCAnLXRuJywgJzgnLCAnLW1hJywgJzIwMCcsICctaW1hZScsICc8aW5maWxlLm1hZT4nLCAnLW9tYWUnLCAnPG91dGZpbGUubWFlPic=

>  <r_lp_tautomer_probability>  (256) 
1

>  <r_epik_Ionization_Penalty>  (256) 
7.61722e-14

>  <r_epik_Ionization_Penalty_Charging>  (256) 
0

>  <r_epik_Ionization_Penalty_Neutral>  (256) 
7.61722e-14

>  <r_epik_State_Penalty>  (256) 
-0

>  <r_epik_Charging_Adjusted_Penalty>  (256) 
0

>  <i_epik_Tot_Q>  (256) 
0

>  <i_epik_Tot_abs_Q>  (256) 
0

>  <s_lp_Force_Field>  (256) 
OPLS3e

>  <r_lp_Energy>  (256) 
22.2945

>  <b_lp_Chiralities_Consistent>  (256) 
1

>  <s_lp_Variant>  (256) 
77:0-1

>  <s_i_glide_gridfile>  (256) 
pfpi4k_grid

>  <i_i_glide_lignum>  (256) 
26

>  <i_i_glide_rotatable_bonds>  (256) 
0

>  <r_i_docking_score>  (256) 
-2.59172

>  <r_i_glide_ligand_efficiency>  (256) 
-0.136406

>  <r_i_glide_ligand_efficiency_sa>  (256) 
-0.363987

>  <r_i_glide_ligand_efficiency_ln>  (256) 
-0.657056

>  <r_i_glide_gscore>  (256) 
-2.59172

>  <r_i_glide_lipo>  (256) 
-0.204538

>  <r_i_glide_hbond>  (256) 
0

>  <r_i_glide_metal>  (256) 
-0

>  <r_i_glide_rewards>  (256) 
-1.67711

>  <r_i_glide_evdw>  (256) 
-12.5847

>  <r_i_glide_ecoul>  (256) 
-0.53891

>  <r_i_glide_erotb>  (256) 
0

>  <r_i_glide_esite>  (256) 
0

>  <r_i_glide_emodel>  (256) 
-16.2186

>  <r_i_glide_energy>  (256) 
-13.1236

>  <r_i_glide_einternal>  (256) 
0

>  <r_i_glide_intrahb_reward>  (256) 
-0

>  <i_i_glide_confnum>  (256) 
2

>  <i_i_glide_posenum>  (256) 
7

>  <r_i_glide_eff_state_penalty>  (256) 
0

>  <ligand_id>  (256) 
77

>  <original_smiles>  (256) 
CC1CCC2OOC3(C)CCC4C(C)CCC1C24O3

>  <smiles>  (256) 
[H]C([H])([H])C12OOC3([H])C([H])([H])C([H])([H])C([H])(C([H])([H])[H])C4([H])C([H])([H])C([H])([H])C([H])(C([H])([H])[H])C([H])(C([H])([H])C1([H])[H])C34O2

$$$$
78:0:0
     RDKit          3D

 28 31  0  0  1  0  0  0  0  0999 V2000
    5.4021   -1.0053    2.1447 C   0  0  0  0  0  0  0  0  0  0  0  0
    4.9626   -2.1495    2.6722 C   0  0  0  0  0  0  0  0  0  0  0  0
    3.8213   -2.6359    1.8021 C   0  0  1  0  0  0  0  0  0  0  0  0
    3.2208   -1.2764    1.4215 C   0  0  0  0  0  0  0  0  0  0  0  0
    4.5564   -0.7278    0.9155 C   0  0  2  0  0  0  0  0  0  0  0  0
    4.8958   -1.8130   -0.1445 C   0  0  2  0  0  0  0  0  0  0  0  0
    4.2427   -1.6017   -1.4921 C   0  0  0  0  0  0  0  0  0  0  0  0
    4.6127   -0.6593   -2.4105 C   0  0  0  0  0  0  0  0  0  0  0  0
    3.6548   -0.7408   -3.8673 S   0  0  0  0  0  0  0  0  0  0  0  0
    2.7426   -2.0770   -3.2272 C   0  0  0  0  0  0  0  0  0  0  0  0
    3.1664   -2.4067   -1.9670 C   0  0  0  0  0  0  0  0  0  0  0  0
    2.6105   -3.4894   -1.1115 C   0  0  0  0  0  0  0  0  0  0  0  0
    3.7446   -4.0975   -0.2742 C   0  0  0  0  0  0  0  0  0  0  0  0
    4.4765   -3.0871    0.5424 N   0  0  2  0  0  0  0  0  0  0  0  0
    6.1988   -0.3756    2.5112 H   0  0  0  0  0  0  0  0  0  0  0  0
    5.3191   -2.6470    3.5630 H   0  0  0  0  0  0  0  0  0  0  0  0
    3.1488   -3.3402    2.2923 H   0  0  0  0  0  0  0  0  0  0  0  0
    2.4352   -1.3096    0.6699 H   0  0  0  0  0  0  0  0  0  0  0  0
    2.8446   -0.7325    2.2887 H   0  0  0  0  0  0  0  0  0  0  0  0
    4.5556    0.3120    0.5875 H   0  0  0  0  0  0  0  0  0  0  0  0
    5.9770   -1.8538   -0.2853 H   0  0  0  0  0  0  0  0  0  0  0  0
    5.3812    0.0888   -2.3126 H   0  0  0  0  0  0  0  0  0  0  0  0
    1.9347   -2.5075   -3.8033 H   0  0  0  0  0  0  0  0  0  0  0  0
    1.8317   -3.0922   -0.4604 H   0  0  0  0  0  0  0  0  0  0  0  0
    2.1400   -4.2574   -1.7238 H   0  0  0  0  0  0  0  0  0  0  0  0
    3.3797   -4.9079    0.3582 H   0  0  0  0  0  0  0  0  0  0  0  0
    4.4704   -4.5432   -0.9583 H   0  0  0  0  0  0  0  0  0  0  0  0
    5.3235   -3.5466    0.8423 H   0  0  0  0  0  0  0  0  0  0  0  0
  1  5  1  0
  1  2  2  0
  1 15  1  0
  2  3  1  0
  2 16  1  0
  3 14  1  0
  3  4  1  0
  3 17  1  1
  4  5  1  0
  4 18  1  0
  4 19  1  0
  5  6  1  0
  5 20  1  6
  6 14  1  0
  6  7  1  0
  6 21  1  6
  7 11  1  0
  7  8  2  0
  8  9  1  0
  8 22  1  0
  9 10  1  0
 10 11  2  0
 10 23  1  0
 11 12  1  0
 12 13  1  0
 12 24  1  0
 12 25  1  0
 13 14  1  0
 13 26  1  0
 13 27  1  0
 14 28  1  1
M  CHG  1  14   1
M  END
>  <i_m_ct_stereo_status>  (257) 
1

>  <s_m_source_file>  (257) 
/var/tmp/pbs.5076255.sched01/tmpy0mqr2dw/78t3ouse6d.sdf

>  <i_m_source_file_index>  (257) 
27

>  <i_lp_mmshare_version>  (257) 
48012

>  <i_f3d_flags>  (257) 
0

>  <s_epik_input>  (257) 
W0NIXTE9W0NIXVtDQEhdKFtDSDJdMilbQ0BASF0oTjNbQ0BASF0xMiljNGMoW0NIMl1bQ0gyXTMpW2NIXXNbY0hdNA==

>  <s_epik_cmdline>  (257) 
J2VwaWtfcHl0aG9uJywgJy1waHQnLCAnMi4wJywgJy1waCcsICc3LjAnLCAnLXRuJywgJzgnLCAnLW1hJywgJzIwMCcsICctaW1hZScsICc8aW5maWxlLm1hZT4nLCAnLW9tYWUnLCAnPG91dGZpbGUubWFlPic=

>  <r_epik_Ionization_Penalty>  (257) 
0.0625061

>  <r_epik_Ionization_Penalty_Charging>  (257) 
0.0625061

>  <r_epik_Ionization_Penalty_Neutral>  (257) 
0

>  <r_epik_State_Penalty>  (257) 
0.054325

>  <r_epik_Charging_Adjusted_Penalty>  (257) 
0.116831

>  <i_epik_Tot_Q>  (257) 
1

>  <i_epik_Tot_abs_Q>  (257) 
1

>  <s_lp_Force_Field>  (257) 
OPLS3e

>  <r_lp_Energy>  (257) 
36.4493

>  <b_lp_Chiralities_Consistent>  (257) 
1

>  <s_lp_Variant>  (257) 
78:0-1

>  <s_i_glide_gridfile>  (257) 
pfpi4k_grid

>  <i_i_glide_lignum>  (257) 
27

>  <i_i_glide_rotatable_bonds>  (257) 
0

>  <r_i_docking_score>  (257) 
-4.17083

>  <r_i_glide_ligand_efficiency>  (257) 
-0.297917

>  <r_i_glide_ligand_efficiency_sa>  (257) 
-0.718022

>  <r_i_glide_ligand_efficiency_ln>  (257) 
-1.14613

>  <r_i_glide_gscore>  (257) 
-4.17083

>  <r_i_glide_lipo>  (257) 
-0.569316

>  <r_i_glide_hbond>  (257) 
0

>  <r_i_glide_metal>  (257) 
-0

>  <r_i_glide_rewards>  (257) 
-2.01605

>  <r_i_glide_evdw>  (257) 
-21.5739

>  <r_i_glide_ecoul>  (257) 
-3.37848

>  <r_i_glide_erotb>  (257) 
0

>  <r_i_glide_esite>  (257) 
0

>  <r_i_glide_emodel>  (257) 
-30.5996

>  <r_i_glide_energy>  (257) 
-24.9523

>  <r_i_glide_einternal>  (257) 
0

>  <r_i_glide_intrahb_reward>  (257) 
-0

>  <i_i_glide_confnum>  (257) 
1

>  <i_i_glide_posenum>  (257) 
1

>  <r_i_glide_eff_state_penalty>  (257) 
0

>  <ligand_id>  (257) 
78

>  <original_smiles>  (257) 
C1=CC2CC1C1c3cscc3CCN21

>  <smiles>  (257) 
[H]C1=C([H])C2([H])C([H])([H])C1([H])C1([H])c3c([H])sc([H])c3C([H])([H])C([H])([H])[N+]21[H]

$$$$
78:0:1
     RDKit          3D

 28 31  0  0  1  0  0  0  0  0999 V2000
    5.6454   -1.8982    0.1769 C   0  0  0  0  0  0  0  0  0  0  0  0
    5.4422   -3.2025    0.0279 C   0  0  0  0  0  0  0  0  0  0  0  0
    4.2590   -3.3761   -0.9169 C   0  0  1  0  0  0  0  0  0  0  0  0
    3.4443   -2.1490   -0.4967 C   0  0  0  0  0  0  0  0  0  0  0  0
    4.6027   -1.1856   -0.6594 C   0  0  2  0  0  0  0  0  0  0  0  0
    4.9473   -1.4812   -2.1436 C   0  0  2  0  0  0  0  0  0  0  0  0
    4.0939   -0.7179   -3.1509 C   0  0  0  0  0  0  0  0  0  0  0  0
    4.2154    0.5541   -3.5209 C   0  0  0  0  0  0  0  0  0  0  0  0
    3.3730    0.9326   -5.0087 S   0  0  0  0  0  0  0  0  0  0  0  0
    2.4609   -0.4790   -4.7236 C   0  0  0  0  0  0  0  0  0  0  0  0
    3.0556   -1.3666   -3.9082 C   0  0  0  0  0  0  0  0  0  0  0  0
    2.7863   -2.8155   -3.7740 C   0  0  0  0  0  0  0  0  0  0  0  0
    4.1240   -3.5171   -3.4856 C   0  0  0  0  0  0  0  0  0  0  0  0
    4.8071   -2.9735   -2.2512 N   0  0  2  0  0  0  0  0  0  0  0  0
    6.3830   -1.4016    0.7856 H   0  0  0  0  0  0  0  0  0  0  0  0
    5.9673   -4.0213    0.5040 H   0  0  0  0  0  0  0  0  0  0  0  0
    3.7491   -4.3427   -0.8648 H   0  0  0  0  0  0  0  0  0  0  0  0
    2.6299   -1.9268   -1.1606 H   0  0  0  0  0  0  0  0  0  0  0  0
    3.1038   -2.2021    0.5283 H   0  0  0  0  0  0  0  0  0  0  0  0
    4.4218   -0.1464   -0.4125 H   0  0  0  0  0  0  0  0  0  0  0  0
    6.0066   -1.2362   -2.3027 H   0  0  0  0  0  0  0  0  0  0  0  0
    4.8276    1.3153   -3.0954 H   0  0  0  0  0  0  0  0  0  0  0  0
    1.6202   -0.6462   -5.3892 H   0  0  0  0  0  0  0  0  0  0  0  0
    2.0519   -2.9850   -2.9912 H   0  0  0  0  0  0  0  0  0  0  0  0
    2.3707   -3.2036   -4.7065 H   0  0  0  0  0  0  0  0  0  0  0  0
    4.0261   -4.5940   -3.4283 H   0  0  0  0  0  0  0  0  0  0  0  0
    4.8160   -3.3666   -4.3251 H   0  0  0  0  0  0  0  0  0  0  0  0
    5.7421   -3.3698   -2.2868 H   0  0  0  0  0  0  0  0  0  0  0  0
  1  5  1  0
  1  2  2  0
  1 15  1  0
  2  3  1  0
  2 16  1  0
  3 14  1  0
  3  4  1  0
  3 17  1  6
  4  5  1  0
  4 18  1  0
  4 19  1  0
  5  6  1  0
  5 20  1  6
  6 14  1  0
  6  7  1  0
  6 21  1  1
  7 11  1  0
  7  8  2  0
  8  9  1  0
  8 22  1  0
  9 10  1  0
 10 11  2  0
 10 23  1  0
 11 12  1  0
 12 13  1  0
 12 24  1  0
 12 25  1  0
 13 14  1  0
 13 26  1  0
 13 27  1  0
 14 28  1  1
M  CHG  1  14   1
M  END
>  <i_m_ct_stereo_status>  (258) 
1

>  <s_m_source_file>  (258) 
/var/tmp/pbs.5076255.sched01/tmpy0mqr2dw/78t3ouse6d.sdf

>  <i_m_source_file_index>  (258) 
27

>  <i_lp_mmshare_version>  (258) 
48012

>  <i_f3d_flags>  (258) 
0

>  <s_epik_input>  (258) 
W0NIXTE9W0NIXVtDQEhdKFtDSDJdMilbQ0BASF0oTjNbQ0BASF0xMiljNGMoW0NIMl1bQ0gyXTMpW2NIXXNbY0hdNA==

>  <s_epik_cmdline>  (258) 
J2VwaWtfcHl0aG9uJywgJy1waHQnLCAnMi4wJywgJy1waCcsICc3LjAnLCAnLXRuJywgJzgnLCAnLW1hJywgJzIwMCcsICctaW1hZScsICc8aW5maWxlLm1hZT4nLCAnLW9tYWUnLCAnPG91dGZpbGUubWFlPic=

>  <r_epik_Ionization_Penalty>  (258) 
0.0625061

>  <r_epik_Ionization_Penalty_Charging>  (258) 
0.0625061

>  <r_epik_Ionization_Penalty_Neutral>  (258) 
0

>  <r_epik_State_Penalty>  (258) 
0.054325

>  <r_epik_Charging_Adjusted_Penalty>  (258) 
0.116831

>  <i_epik_Tot_Q>  (258) 
1

>  <i_epik_Tot_abs_Q>  (258) 
1

>  <s_lp_Force_Field>  (258) 
OPLS3e

>  <r_lp_Energy>  (258) 
36.4493

>  <b_lp_Chiralities_Consistent>  (258) 
1

>  <s_lp_Variant>  (258) 
78:0-1

>  <s_i_glide_gridfile>  (258) 
pfpi4k_grid

>  <i_i_glide_lignum>  (258) 
27

>  <i_i_glide_rotatable_bonds>  (258) 
0

>  <r_i_docking_score>  (258) 
-3.65539

>  <r_i_glide_ligand_efficiency>  (258) 
-0.261099

>  <r_i_glide_ligand_efficiency_sa>  (258) 
-0.629286

>  <r_i_glide_ligand_efficiency_ln>  (258) 
-1.00449

>  <r_i_glide_gscore>  (258) 
-3.65539

>  <r_i_glide_lipo>  (258) 
-0.753763

>  <r_i_glide_hbond>  (258) 
0

>  <r_i_glide_metal>  (258) 
-0

>  <r_i_glide_rewards>  (258) 
-2.01605

>  <r_i_glide_evdw>  (258) 
-7.16625

>  <r_i_glide_ecoul>  (258) 
-3.51505

>  <r_i_glide_erotb>  (258) 
0

>  <r_i_glide_esite>  (258) 
0

>  <r_i_glide_emodel>  (258) 
-14.0426

>  <r_i_glide_energy>  (258) 
-10.6813

>  <r_i_glide_einternal>  (258) 
0

>  <r_i_glide_intrahb_reward>  (258) 
-0

>  <i_i_glide_confnum>  (258) 
2

>  <i_i_glide_posenum>  (258) 
37

>  <r_i_glide_eff_state_penalty>  (258) 
0

>  <ligand_id>  (258) 
78

>  <original_smiles>  (258) 
C1=CC2CC1C1c3cscc3CCN21

>  <smiles>  (258) 
[H]C1=C([H])C2([H])C([H])([H])C1([H])C1([H])c3c([H])sc([H])c3C([H])([H])C([H])([H])[N+]21[H]

$$$$
78:1:0
     RDKit          3D

 27 30  0  0  1  0  0  0  0  0999 V2000
   -7.3704  -10.8035   -8.7554 C   0  0  0  0  0  0  0  0  0  0  0  0
   -8.1793  -10.3889   -9.7332 C   0  0  0  0  0  0  0  0  0  0  0  0
   -8.8769   -9.1359   -9.2445 C   0  0  1  0  0  0  0  0  0  0  0  0
   -9.0242   -9.5166   -7.7687 C   0  0  0  0  0  0  0  0  0  0  0  0
   -7.5400   -9.8230   -7.6135 C   0  0  2  0  0  0  0  0  0  0  0  0
   -6.9543   -8.4454   -8.0389 C   0  0  2  0  0  0  0  0  0  0  0  0
   -6.8686   -7.4860   -6.8751 C   0  0  0  0  0  0  0  0  0  0  0  0
   -5.9870   -7.5379   -5.8282 C   0  0  0  0  0  0  0  0  0  0  0  0
   -6.1873   -6.1838   -4.7481 S   0  0  0  0  0  0  0  0  0  0  0  0
   -7.4963   -5.5616   -5.7135 C   0  0  0  0  0  0  0  0  0  0  0  0
   -7.7315   -6.3519   -6.8090 C   0  0  0  0  0  0  0  0  0  0  0  0
   -8.7479   -6.1126   -7.8838 C   0  0  0  0  0  0  0  0  0  0  0  0
   -8.2642   -6.6883   -9.2319 C   0  0  0  0  0  0  0  0  0  0  0  0
   -7.8418   -8.0930   -9.1793 N   0  0  0  0  0  0  0  0  0  0  0  0
   -6.7065  -11.6572   -8.7565 H   0  0  0  0  0  0  0  0  0  0  0  0
   -8.3191  -10.8355  -10.7063 H   0  0  0  0  0  0  0  0  0  0  0  0
   -9.7967   -8.8924   -9.7766 H   0  0  0  0  0  0  0  0  0  0  0  0
   -9.3972   -8.7240   -7.1216 H   0  0  0  0  0  0  0  0  0  0  0  0
   -9.6473  -10.4031   -7.6236 H   0  0  0  0  0  0  0  0  0  0  0  0
   -7.2255  -10.2175   -6.6472 H   0  0  0  0  0  0  0  0  0  0  0  0
   -5.9490   -8.5881   -8.4339 H   0  0  0  0  0  0  0  0  0  0  0  0
   -5.2174   -8.2691   -5.6424 H   0  0  0  0  0  0  0  0  0  0  0  0
   -7.9964   -4.6472   -5.4342 H   0  0  0  0  0  0  0  0  0  0  0  0
   -9.7053   -6.5607   -7.6135 H   0  0  0  0  0  0  0  0  0  0  0  0
   -8.9312   -5.0445   -8.0033 H   0  0  0  0  0  0  0  0  0  0  0  0
   -9.0076   -6.5570  -10.0169 H   0  0  0  0  0  0  0  0  0  0  0  0
   -7.3889   -6.1178   -9.5418 H   0  0  0  0  0  0  0  0  0  0  0  0
  1  5  1  0
  1  2  2  0
  1 15  1  0
  2  3  1  0
  2 16  1  0
  3 14  1  0
  3  4  1  0
  3 17  1  6
  4  5  1  0
  4 18  1  0
  4 19  1  0
  5  6  1  0
  5 20  1  1
  6 14  1  0
  6  7  1  0
  6 21  1  6
  7 11  1  0
  7  8  2  0
  8  9  1  0
  8 22  1  0
  9 10  1  0
 10 11  2  0
 10 23  1  0
 11 12  1  0
 12 13  1  0
 12 24  1  0
 12 25  1  0
 13 14  1  0
 13 26  1  0
 13 27  1  0
M  END
>  <i_m_ct_stereo_status>  (259) 
1

>  <s_m_source_file>  (259) 
/var/tmp/pbs.5076255.sched01/tmpy0mqr2dw/78t3ouse6d.sdf

>  <i_m_source_file_index>  (259) 
28

>  <i_lp_mmshare_version>  (259) 
48012

>  <i_f3d_flags>  (259) 
0

>  <s_epik_input>  (259) 
W0NIXTE9W0NIXVtDQEhdKFtDSDJdMilbQ0BASF0oTjNbQ0BASF0xMiljNGMoW0NIMl1bQ0gyXTMpW2NIXXNbY0hdNA==

>  <s_epik_cmdline>  (259) 
J2VwaWtfcHl0aG9uJywgJy1waHQnLCAnMi4wJywgJy1waCcsICc3LjAnLCAnLXRuJywgJzgnLCAnLW1hJywgJzIwMCcsICctaW1hZScsICc8aW5maWxlLm1hZT4nLCAnLW9tYWUnLCAnPG91dGZpbGUubWFlPic=

>  <r_epik_Ionization_Penalty>  (259) 
1.36352

>  <r_epik_Ionization_Penalty_Charging>  (259) 
0

>  <r_epik_Ionization_Penalty_Neutral>  (259) 
1.36352

>  <r_epik_State_Penalty>  (259) 
1.44261

>  <r_epik_Charging_Adjusted_Penalty>  (259) 
1.44261

>  <i_epik_Tot_Q>  (259) 
0

>  <i_epik_Tot_abs_Q>  (259) 
0

>  <s_lp_Force_Field>  (259) 
OPLS3e

>  <r_lp_Energy>  (259) 
38.777

>  <b_lp_Chiralities_Consistent>  (259) 
1

>  <s_lp_Variant>  (259) 
78:0-2

>  <s_i_glide_gridfile>  (259) 
pfpi4k_grid

>  <i_i_glide_lignum>  (259) 
28

>  <i_i_glide_rotatable_bonds>  (259) 
0

>  <r_i_docking_score>  (259) 
-5.90893

>  <r_i_glide_ligand_efficiency>  (259) 
-0.422066

>  <r_i_glide_ligand_efficiency_sa>  (259) 
-1.01724

>  <r_i_glide_ligand_efficiency_ln>  (259) 
-1.62375

>  <r_i_glide_gscore>  (259) 
-5.90893

>  <r_i_glide_lipo>  (259) 
-2.2242

>  <r_i_glide_hbond>  (259) 
0

>  <r_i_glide_metal>  (259) 
-0

>  <r_i_glide_rewards>  (259) 
-2.58959

>  <r_i_glide_evdw>  (259) 
-22.518

>  <r_i_glide_ecoul>  (259) 
0.205088

>  <r_i_glide_erotb>  (259) 
0

>  <r_i_glide_esite>  (259) 
0

>  <r_i_glide_emodel>  (259) 
-30.2207

>  <r_i_glide_energy>  (259) 
-22.3129

>  <r_i_glide_einternal>  (259) 
0

>  <r_i_glide_intrahb_reward>  (259) 
-0

>  <i_i_glide_confnum>  (259) 
1

>  <i_i_glide_posenum>  (259) 
25

>  <r_i_glide_eff_state_penalty>  (259) 
0

>  <ligand_id>  (259) 
78

>  <original_smiles>  (259) 
C1=CC2CC1C1c3cscc3CCN21

>  <smiles>  (259) 
[H]C1=C([H])C2([H])C3([H])c4c([H])sc([H])c4C([H])([H])C([H])([H])N3C1([H])C2([H])[H]

$$$$
78:1:1
     RDKit          3D

 27 30  0  0  1  0  0  0  0  0999 V2000
   -8.3762   -9.5140   -9.7743 C   0  0  0  0  0  0  0  0  0  0  0  0
   -9.3051   -8.7490  -10.3406 C   0  0  0  0  0  0  0  0  0  0  0  0
   -9.7677   -7.7450   -9.3057 C   0  0  1  0  0  0  0  0  0  0  0  0
   -9.6558   -8.6356   -8.0710 C   0  0  0  0  0  0  0  0  0  0  0  0
   -8.2095   -9.0117   -8.3535 C   0  0  2  0  0  0  0  0  0  0  0  0
   -7.5784   -7.5945   -8.3900 C   0  0  2  0  0  0  0  0  0  0  0  0
   -7.1653   -7.1224   -7.0176 C   0  0  0  0  0  0  0  0  0  0  0  0
   -6.1018   -7.5672   -6.2838 C   0  0  0  0  0  0  0  0  0  0  0  0
   -5.9289   -6.6536   -4.8074 S   0  0  0  0  0  0  0  0  0  0  0  0
   -7.3314   -5.6935   -5.1751 C   0  0  0  0  0  0  0  0  0  0  0  0
   -7.8531   -6.0376   -6.3887 C   0  0  0  0  0  0  0  0  0  0  0  0
   -9.0243   -5.3932   -7.0603 C   0  0  0  0  0  0  0  0  0  0  0  0
   -8.8911   -5.4863   -8.5931 C   0  0  0  0  0  0  0  0  0  0  0  0
   -8.6294   -6.8334   -9.1162 N   0  0  0  0  0  0  0  0  0  0  0  0
   -7.8418  -10.3476  -10.2114 H   0  0  0  0  0  0  0  0  0  0  0  0
   -9.6984   -8.8213  -11.3434 H   0  0  0  0  0  0  0  0  0  0  0  0
  -10.7476   -7.2907   -9.4948 H   0  0  0  0  0  0  0  0  0  0  0  0
   -9.7896   -8.1311   -7.1333 H   0  0  0  0  0  0  0  0  0  0  0  0
  -10.3299   -9.4904   -8.1039 H   0  0  0  0  0  0  0  0  0  0  0  0
   -7.7612   -9.7419   -7.6762 H   0  0  0  0  0  0  0  0  0  0  0  0
   -6.6985   -7.6229   -9.0313 H   0  0  0  0  0  0  0  0  0  0  0  0
   -5.3902   -8.3432   -6.5326 H   0  0  0  0  0  0  0  0  0  0  0  0
   -7.6619   -4.9213   -4.4849 H   0  0  0  0  0  0  0  0  0  0  0  0
   -9.9577   -5.8549   -6.7503 H   0  0  0  0  0  0  0  0  0  0  0  0
   -9.1124   -4.3464   -6.7597 H   0  0  0  0  0  0  0  0  0  0  0  0
   -9.7678   -5.0673   -9.0912 H   0  0  0  0  0  0  0  0  0  0  0  0
   -8.0362   -4.8695   -8.8735 H   0  0  0  0  0  0  0  0  0  0  0  0
  1  5  1  0
  1  2  2  0
  1 15  1  0
  2  3  1  0
  2 16  1  0
  3 14  1  0
  3  4  1  0
  3 17  1  6
  4  5  1  0
  4 18  1  0
  4 19  1  0
  5  6  1  0
  5 20  1  1
  6 14  1  0
  6  7  1  0
  6 21  1  6
  7 11  1  0
  7  8  2  0
  8  9  1  0
  8 22  1  0
  9 10  1  0
 10 11  2  0
 10 23  1  0
 11 12  1  0
 12 13  1  0
 12 24  1  0
 12 25  1  0
 13 14  1  0
 13 26  1  0
 13 27  1  0
M  END
>  <i_m_ct_stereo_status>  (260) 
1

>  <s_m_source_file>  (260) 
/var/tmp/pbs.5076255.sched01/tmpy0mqr2dw/78t3ouse6d.sdf

>  <i_m_source_file_index>  (260) 
28

>  <i_lp_mmshare_version>  (260) 
48012

>  <i_f3d_flags>  (260) 
0

>  <s_epik_input>  (260) 
W0NIXTE9W0NIXVtDQEhdKFtDSDJdMilbQ0BASF0oTjNbQ0BASF0xMiljNGMoW0NIMl1bQ0gyXTMpW2NIXXNbY0hdNA==

>  <s_epik_cmdline>  (260) 
J2VwaWtfcHl0aG9uJywgJy1waHQnLCAnMi4wJywgJy1waCcsICc3LjAnLCAnLXRuJywgJzgnLCAnLW1hJywgJzIwMCcsICctaW1hZScsICc8aW5maWxlLm1hZT4nLCAnLW9tYWUnLCAnPG91dGZpbGUubWFlPic=

>  <r_epik_Ionization_Penalty>  (260) 
1.36352

>  <r_epik_Ionization_Penalty_Charging>  (260) 
0

>  <r_epik_Ionization_Penalty_Neutral>  (260) 
1.36352

>  <r_epik_State_Penalty>  (260) 
1.44261

>  <r_epik_Charging_Adjusted_Penalty>  (260) 
1.44261

>  <i_epik_Tot_Q>  (260) 
0

>  <i_epik_Tot_abs_Q>  (260) 
0

>  <s_lp_Force_Field>  (260) 
OPLS3e

>  <r_lp_Energy>  (260) 
38.777

>  <b_lp_Chiralities_Consistent>  (260) 
1

>  <s_lp_Variant>  (260) 
78:0-2

>  <s_i_glide_gridfile>  (260) 
pfpi4k_grid

>  <i_i_glide_lignum>  (260) 
28

>  <i_i_glide_rotatable_bonds>  (260) 
0

>  <r_i_docking_score>  (260) 
-5.7471

>  <r_i_glide_ligand_efficiency>  (260) 
-0.410507

>  <r_i_glide_ligand_efficiency_sa>  (260) 
-0.989381

>  <r_i_glide_ligand_efficiency_ln>  (260) 
-1.57928

>  <r_i_glide_gscore>  (260) 
-5.7471

>  <r_i_glide_lipo>  (260) 
-2.14302

>  <r_i_glide_hbond>  (260) 
0

>  <r_i_glide_metal>  (260) 
-0

>  <r_i_glide_rewards>  (260) 
-2.60626

>  <r_i_glide_evdw>  (260) 
-20.3405

>  <r_i_glide_ecoul>  (260) 
0.128033

>  <r_i_glide_erotb>  (260) 
0

>  <r_i_glide_esite>  (260) 
0

>  <r_i_glide_emodel>  (260) 
-27.8492

>  <r_i_glide_energy>  (260) 
-20.2125

>  <r_i_glide_einternal>  (260) 
0

>  <r_i_glide_intrahb_reward>  (260) 
-0

>  <i_i_glide_confnum>  (260) 
2

>  <i_i_glide_posenum>  (260) 
36

>  <r_i_glide_eff_state_penalty>  (260) 
0

>  <ligand_id>  (260) 
78

>  <original_smiles>  (260) 
C1=CC2CC1C1c3cscc3CCN21

>  <smiles>  (260) 
[H]C1=C([H])C2([H])C3([H])c4c([H])sc([H])c4C([H])([H])C([H])([H])N3C1([H])C2([H])[H]

$$$$
78:1:2
     RDKit          3D

 27 30  0  0  1  0  0  0  0  0999 V2000
   -9.9079   -7.4207  -10.3608 C   0  0  0  0  0  0  0  0  0  0  0  0
  -10.6412   -6.3050  -10.3516 C   0  0  0  0  0  0  0  0  0  0  0  0
  -10.6037   -5.7519   -8.9424 C   0  0  1  0  0  0  0  0  0  0  0  0
  -10.5955   -7.0662   -8.1793 C   0  0  0  0  0  0  0  0  0  0  0  0
   -9.3906   -7.6028   -8.9455 C   0  0  2  0  0  0  0  0  0  0  0  0
   -8.3709   -6.4712   -8.6328 C   0  0  2  0  0  0  0  0  0  0  0  0
   -7.6221   -6.7094   -7.3458 C   0  0  0  0  0  0  0  0  0  0  0  0
   -6.6484   -7.6454   -7.1233 C   0  0  0  0  0  0  0  0  0  0  0  0
   -5.9710   -7.5013   -5.5225 S   0  0  0  0  0  0  0  0  0  0  0  0
   -7.0433   -6.1829   -5.1469 C   0  0  0  0  0  0  0  0  0  0  0  0
   -7.8453   -5.8706   -6.2138 C   0  0  0  0  0  0  0  0  0  0  0  0
   -8.8632   -4.7727   -6.2679 C   0  0  0  0  0  0  0  0  0  0  0  0
   -8.9917   -4.2379   -7.7046 C   0  0  0  0  0  0  0  0  0  0  0  0
   -9.2316   -5.2703   -8.7224 N   0  0  0  0  0  0  0  0  0  0  0  0
   -9.7244   -8.0878  -11.1904 H   0  0  0  0  0  0  0  0  0  0  0  0
  -11.1946   -5.8673  -11.1671 H   0  0  0  0  0  0  0  0  0  0  0  0
  -11.3991   -5.0632   -8.6785 H   0  0  0  0  0  0  0  0  0  0  0  0
  -10.4564   -6.9020   -7.1202 H   0  0  0  0  0  0  0  0  0  0  0  0
  -11.4974   -7.6660   -8.3318 H   0  0  0  0  0  0  0  0  0  0  0  0
   -9.0806   -8.6247   -8.7169 H   0  0  0  0  0  0  0  0  0  0  0  0
   -7.6460   -6.4101   -9.4460 H   0  0  0  0  0  0  0  0  0  0  0  0
   -6.2621   -8.3728   -7.8201 H   0  0  0  0  0  0  0  0  0  0  0  0
   -7.0112   -5.7085   -4.1780 H   0  0  0  0  0  0  0  0  0  0  0  0
   -9.8356   -5.1268   -5.9228 H   0  0  0  0  0  0  0  0  0  0  0  0
   -8.5839   -3.9505   -5.6052 H   0  0  0  0  0  0  0  0  0  0  0  0
   -9.7552   -3.4640   -7.7696 H   0  0  0  0  0  0  0  0  0  0  0  0
   -8.0447   -3.7671   -7.9697 H   0  0  0  0  0  0  0  0  0  0  0  0
  1  5  1  0
  1  2  2  0
  1 15  1  0
  2  3  1  0
  2 16  1  0
  3 14  1  0
  3  4  1  0
  3 17  1  1
  4  5  1  0
  4 18  1  0
  4 19  1  0
  5  6  1  0
  5 20  1  1
  6 14  1  0
  6  7  1  0
  6 21  1  6
  7 11  1  0
  7  8  2  0
  8  9  1  0
  8 22  1  0
  9 10  1  0
 10 11  2  0
 10 23  1  0
 11 12  1  0
 12 13  1  0
 12 24  1  0
 12 25  1  0
 13 14  1  0
 13 26  1  0
 13 27  1  0
M  END
>  <i_m_ct_stereo_status>  (261) 
1

>  <s_m_source_file>  (261) 
/var/tmp/pbs.5076255.sched01/tmpy0mqr2dw/78t3ouse6d.sdf

>  <i_m_source_file_index>  (261) 
28

>  <i_lp_mmshare_version>  (261) 
48012

>  <i_f3d_flags>  (261) 
0

>  <s_epik_input>  (261) 
W0NIXTE9W0NIXVtDQEhdKFtDSDJdMilbQ0BASF0oTjNbQ0BASF0xMiljNGMoW0NIMl1bQ0gyXTMpW2NIXXNbY0hdNA==

>  <s_epik_cmdline>  (261) 
J2VwaWtfcHl0aG9uJywgJy1waHQnLCAnMi4wJywgJy1waCcsICc3LjAnLCAnLXRuJywgJzgnLCAnLW1hJywgJzIwMCcsICctaW1hZScsICc8aW5maWxlLm1hZT4nLCAnLW9tYWUnLCAnPG91dGZpbGUubWFlPic=

>  <r_epik_Ionization_Penalty>  (261) 
1.36352

>  <r_epik_Ionization_Penalty_Charging>  (261) 
0

>  <r_epik_Ionization_Penalty_Neutral>  (261) 
1.36352

>  <r_epik_State_Penalty>  (261) 
1.44261

>  <r_epik_Charging_Adjusted_Penalty>  (261) 
1.44261

>  <i_epik_Tot_Q>  (261) 
0

>  <i_epik_Tot_abs_Q>  (261) 
0

>  <s_lp_Force_Field>  (261) 
OPLS3e

>  <r_lp_Energy>  (261) 
38.777

>  <b_lp_Chiralities_Consistent>  (261) 
1

>  <s_lp_Variant>  (261) 
78:0-2

>  <s_i_glide_gridfile>  (261) 
pfpi4k_grid

>  <i_i_glide_lignum>  (261) 
28

>  <i_i_glide_rotatable_bonds>  (261) 
0

>  <r_i_docking_score>  (261) 
-5.46204

>  <r_i_glide_ligand_efficiency>  (261) 
-0.390146

>  <r_i_glide_ligand_efficiency_sa>  (261) 
-0.940307

>  <r_i_glide_ligand_efficiency_ln>  (261) 
-1.50095

>  <r_i_glide_gscore>  (261) 
-5.46204

>  <r_i_glide_lipo>  (261) 
-1.89434

>  <r_i_glide_hbond>  (261) 
0

>  <r_i_glide_metal>  (261) 
-0

>  <r_i_glide_rewards>  (261) 
-2.57293

>  <r_i_glide_evdw>  (261) 
-18.9546

>  <r_i_glide_ecoul>  (261) 
-0.313641

>  <r_i_glide_erotb>  (261) 
0

>  <r_i_glide_esite>  (261) 
0

>  <r_i_glide_emodel>  (261) 
-26.5193

>  <r_i_glide_energy>  (261) 
-19.2682

>  <r_i_glide_einternal>  (261) 
0

>  <r_i_glide_intrahb_reward>  (261) 
-0

>  <i_i_glide_confnum>  (261) 
2

>  <i_i_glide_posenum>  (261) 
11

>  <r_i_glide_eff_state_penalty>  (261) 
0

>  <ligand_id>  (261) 
78

>  <original_smiles>  (261) 
C1=CC2CC1C1c3cscc3CCN21

>  <smiles>  (261) 
[H]C1=C([H])C2([H])C3([H])c4c([H])sc([H])c4C([H])([H])C([H])([H])N3C1([H])C2([H])[H]

$$$$
79:0:0
     RDKit          3D

 27 28  0  0  1  0  0  0  0  0999 V2000
   -4.5057    3.5582    1.8824 C   0  0  0  0  0  0  0  0  0  0  0  0
   -3.4014    3.0280    2.6639 N   0  0  0  0  0  0  0  0  0  0  0  0
   -2.3503    3.7623    3.0953 C   0  0  0  0  0  0  0  0  0  0  0  0
   -2.2703    4.9485    2.9032 O   0  0  0  0  0  0  0  0  0  0  0  0
   -1.2731    3.0214    3.8905 C   0  0  2  0  0  0  0  0  0  0  0  0
   -0.2976    3.8830    4.7223 C   0  0  0  0  0  0  0  0  0  0  0  0
    1.1139    3.2972    4.4311 C   0  0  0  0  0  0  0  0  0  0  0  0
    0.8181    1.9917    3.8146 N   0  0  0  0  0  0  0  0  0  0  0  0
    1.7749    1.3265    2.9149 C   0  0  1  0  0  0  0  0  0  0  0  0
    2.8082    0.5478    3.6078 C   0  0  0  0  0  0  0  0  0  0  0  0
    3.6338   -0.0699    4.1510 N   0  0  0  0  0  0  0  0  0  0  0  0
    0.8911    0.3925    2.0554 C   0  0  0  0  0  0  0  0  0  0  0  0
   -0.8648    0.8023    2.2826 S   0  0  0  0  0  0  0  0  0  0  0  0
   -0.3016    2.3277    2.9518 C   0  0  1  0  0  0  0  0  0  0  0  0
   -5.4185    3.5617    2.4717 H   0  0  0  0  0  0  0  0  0  0  0  0
   -4.6743    2.9421    0.9978 H   0  0  0  0  0  0  0  0  0  0  0  0
   -4.3439    4.5824    1.5377 H   0  0  0  0  0  0  0  0  0  0  0  0
   -3.3986    2.0170    2.8430 H   0  0  0  0  0  0  0  0  0  0  0  0
   -1.7126    2.2621    4.5282 H   0  0  0  0  0  0  0  0  0  0  0  0
   -0.3039    4.9447    4.4487 H   0  0  0  0  0  0  0  0  0  0  0  0
   -0.5740    3.8155    5.7803 H   0  0  0  0  0  0  0  0  0  0  0  0
    1.6547    3.9631    3.7484 H   0  0  0  0  0  0  0  0  0  0  0  0
    1.6995    3.2089    5.3515 H   0  0  0  0  0  0  0  0  0  0  0  0
    2.2904    2.0734    2.2975 H   0  0  0  0  0  0  0  0  0  0  0  0
    1.1787    0.4905    1.0129 H   0  0  0  0  0  0  0  0  0  0  0  0
    1.0569   -0.6512    2.3219 H   0  0  0  0  0  0  0  0  0  0  0  0
    0.0844    2.8854    2.1438 H   0  0  0  0  0  0  0  0  0  0  0  0
  1  2  1  0
  1 15  1  0
  1 16  1  0
  1 17  1  0
  2  3  1  0
  2 18  1  0
  3  4  2  0
  3  5  1  0
  5 14  1  0
  5  6  1  0
  5 19  1  1
  6  7  1  0
  6 20  1  0
  6 21  1  0
  7  8  1  0
  7 22  1  0
  7 23  1  0
  8 14  1  0
  8  9  1  0
  9 10  1  0
  9 12  1  0
  9 24  1  6
 10 11  3  0
 12 13  1  0
 12 25  1  0
 12 26  1  0
 13 14  1  0
 14 27  1  6
M  END
>  <i_m_ct_stereo_status>  (262) 
1

>  <s_m_source_file>  (262) 
/var/tmp/pbs.5076255.sched01/tmpy0mqr2dw/78t3ouse6d.sdf

>  <i_m_source_file_index>  (262) 
29

>  <i_lp_mmshare_version>  (262) 
48012

>  <i_f3d_flags>  (262) 
0

>  <s_epik_input>  (262) 
W0NIM11bTkhdQyg9TylbQ0BIXShbQ0gyXVtDSDJdMSlbQ0BASF0oTjEyKVNbQ0gyXVtDQEBIXTJDI04=

>  <s_epik_cmdline>  (262) 
J2VwaWtfcHl0aG9uJywgJy1waHQnLCAnMi4wJywgJy1waCcsICc3LjAnLCAnLXRuJywgJzgnLCAnLW1hJywgJzIwMCcsICctaW1hZScsICc8aW5maWxlLm1hZT4nLCAnLW9tYWUnLCAnPG91dGZpbGUubWFlPic=

>  <r_lp_tautomer_probability>  (262) 
1

>  <r_epik_Ionization_Penalty>  (262) 
3.76995e-08

>  <r_epik_Ionization_Penalty_Charging>  (262) 
0

>  <r_epik_Ionization_Penalty_Neutral>  (262) 
3.76995e-08

>  <r_epik_State_Penalty>  (262) 
-0

>  <r_epik_Charging_Adjusted_Penalty>  (262) 
0

>  <i_epik_Tot_Q>  (262) 
0

>  <i_epik_Tot_abs_Q>  (262) 
0

>  <s_epik_Chemistry_Notes>  (262) 
This compound contains an acetal/aminal-like group ( X-CH(R)-Y where X, Y are N, S, or O) that may be acid/base labile, releasing an aldehyde.

>  <s_lp_Force_Field>  (262) 
OPLS3e

>  <r_lp_Energy>  (262) 
4.55271

>  <b_lp_Chiralities_Consistent>  (262) 
1

>  <s_lp_Variant>  (262) 
79:0-1

>  <s_i_glide_gridfile>  (262) 
pfpi4k_grid

>  <i_i_glide_lignum>  (262) 
29

>  <i_i_glide_rotatable_bonds>  (262) 
3

>  <r_i_docking_score>  (262) 
-4.19988

>  <r_i_glide_ligand_efficiency>  (262) 
-0.299992

>  <r_i_glide_ligand_efficiency_sa>  (262) 
-0.723022

>  <r_i_glide_ligand_efficiency_ln>  (262) 
-1.15411

>  <r_i_glide_gscore>  (262) 
-4.19988

>  <r_i_glide_lipo>  (262) 
-0.253642

>  <r_i_glide_hbond>  (262) 
-0.48

>  <r_i_glide_metal>  (262) 
-0

>  <r_i_glide_rewards>  (262) 
-1.96851

>  <r_i_glide_evdw>  (262) 
-12.4014

>  <r_i_glide_ecoul>  (262) 
-7.73426

>  <r_i_glide_erotb>  (262) 
0.372511

>  <r_i_glide_esite>  (262) 
-0.0900284

>  <r_i_glide_emodel>  (262) 
-26.3515

>  <r_i_glide_energy>  (262) 
-20.1357

>  <r_i_glide_einternal>  (262) 
1.16246

>  <r_i_glide_intrahb_reward>  (262) 
-0

>  <i_i_glide_confnum>  (262) 
1

>  <i_i_glide_posenum>  (262) 
37

>  <r_i_glide_eff_state_penalty>  (262) 
0

>  <ligand_id>  (262) 
79

>  <original_smiles>  (262) 
CNC(=O)C1CCN2C(C#N)CSC12

>  <smiles>  (262) 
[H]N(C(=O)C1([H])C2([H])SC([H])([H])C([H])(C#N)N2C([H])([H])C1([H])[H])C([H])([H])[H]

$$$$
79:0:1
     RDKit          3D

 27 28  0  0  1  0  0  0  0  0999 V2000
    4.4434   -6.4591    0.4336 C   0  0  0  0  0  0  0  0  0  0  0  0
    4.6425   -5.2020   -0.2623 N   0  0  0  0  0  0  0  0  0  0  0  0
    5.5994   -4.2909   -0.0140 C   0  0  0  0  0  0  0  0  0  0  0  0
    6.4661   -4.4405    0.8429 O   0  0  0  0  0  0  0  0  0  0  0  0
    5.6097   -3.0230   -0.8787 C   0  0  2  0  0  0  0  0  0  0  0  0
    5.3193   -1.7149   -0.1300 C   0  0  0  0  0  0  0  0  0  0  0  0
    4.3245   -0.9359   -1.0373 C   0  0  0  0  0  0  0  0  0  0  0  0
    4.4249   -1.6249   -2.3302 N   0  0  0  0  0  0  0  0  0  0  0  0
    3.3335   -1.6266   -3.3214 C   0  0  1  0  0  0  0  0  0  0  0  0
    3.3431   -0.4764   -4.2307 C   0  0  0  0  0  0  0  0  0  0  0  0
    3.3524    0.4248   -4.9602 N   0  0  0  0  0  0  0  0  0  0  0  0
    3.5720   -2.9152   -4.1431 C   0  0  0  0  0  0  0  0  0  0  0  0
    4.9080   -3.8205   -3.4265 S   0  0  0  0  0  0  0  0  0  0  0  0
    4.5195   -3.0052   -1.9275 C   0  0  1  0  0  0  0  0  0  0  0  0
    4.6325   -7.2927   -0.2431 H   0  0  0  0  0  0  0  0  0  0  0  0
    3.4044   -6.5233    0.7546 H   0  0  0  0  0  0  0  0  0  0  0  0
    5.0841   -6.5536    1.3093 H   0  0  0  0  0  0  0  0  0  0  0  0
    4.0093   -5.0365   -1.0344 H   0  0  0  0  0  0  0  0  0  0  0  0
    6.5588   -2.9428   -1.3969 H   0  0  0  0  0  0  0  0  0  0  0  0
    4.8740   -1.9098    0.8460 H   0  0  0  0  0  0  0  0  0  0  0  0
    6.2491   -1.1623    0.0333 H   0  0  0  0  0  0  0  0  0  0  0  0
    3.3110   -1.0074   -0.6335 H   0  0  0  0  0  0  0  0  0  0  0  0
    4.5981    0.1174   -1.1085 H   0  0  0  0  0  0  0  0  0  0  0  0
    2.3642   -1.6844   -2.8178 H   0  0  0  0  0  0  0  0  0  0  0  0
    2.6709   -3.5160   -4.2730 H   0  0  0  0  0  0  0  0  0  0  0  0
    3.9348   -2.6819   -5.1258 H   0  0  0  0  0  0  0  0  0  0  0  0
    3.5418   -3.2721   -1.4948 H   0  0  0  0  0  0  0  0  0  0  0  0
  1  2  1  0
  1 15  1  0
  1 16  1  0
  1 17  1  0
  2  3  1  0
  2 18  1  0
  3  4  2  0
  3  5  1  0
  5 14  1  0
  5  6  1  0
  5 19  1  6
  6  7  1  0
  6 20  1  0
  6 21  1  0
  7  8  1  0
  7 22  1  0
  7 23  1  0
  8 14  1  0
  8  9  1  0
  9 10  1  0
  9 12  1  0
  9 24  1  1
 10 11  3  0
 12 13  1  0
 12 25  1  0
 12 26  1  0
 13 14  1  0
 14 27  1  1
M  END
>  <i_m_ct_stereo_status>  (263) 
1

>  <s_m_source_file>  (263) 
/var/tmp/pbs.5076255.sched01/tmpy0mqr2dw/78t3ouse6d.sdf

>  <i_m_source_file_index>  (263) 
29

>  <i_lp_mmshare_version>  (263) 
48012

>  <i_f3d_flags>  (263) 
0

>  <s_epik_input>  (263) 
W0NIM11bTkhdQyg9TylbQ0BIXShbQ0gyXVtDSDJdMSlbQ0BASF0oTjEyKVNbQ0gyXVtDQEBIXTJDI04=

>  <s_epik_cmdline>  (263) 
J2VwaWtfcHl0aG9uJywgJy1waHQnLCAnMi4wJywgJy1waCcsICc3LjAnLCAnLXRuJywgJzgnLCAnLW1hJywgJzIwMCcsICctaW1hZScsICc8aW5maWxlLm1hZT4nLCAnLW9tYWUnLCAnPG91dGZpbGUubWFlPic=

>  <r_lp_tautomer_probability>  (263) 
1

>  <r_epik_Ionization_Penalty>  (263) 
3.76995e-08

>  <r_epik_Ionization_Penalty_Charging>  (263) 
0

>  <r_epik_Ionization_Penalty_Neutral>  (263) 
3.76995e-08

>  <r_epik_State_Penalty>  (263) 
-0

>  <r_epik_Charging_Adjusted_Penalty>  (263) 
0

>  <i_epik_Tot_Q>  (263) 
0

>  <i_epik_Tot_abs_Q>  (263) 
0

>  <s_epik_Chemistry_Notes>  (263) 
This compound contains an acetal/aminal-like group ( X-CH(R)-Y where X, Y are N, S, or O) that may be acid/base labile, releasing an aldehyde.

>  <s_lp_Force_Field>  (263) 
OPLS3e

>  <r_lp_Energy>  (263) 
4.55271

>  <b_lp_Chiralities_Consistent>  (263) 
1

>  <s_lp_Variant>  (263) 
79:0-1

>  <s_i_glide_gridfile>  (263) 
pfpi4k_grid

>  <i_i_glide_lignum>  (263) 
29

>  <i_i_glide_rotatable_bonds>  (263) 
3

>  <r_i_docking_score>  (263) 
-4.02072

>  <r_i_glide_ligand_efficiency>  (263) 
-0.287194

>  <r_i_glide_ligand_efficiency_sa>  (263) 
-0.692178

>  <r_i_glide_ligand_efficiency_ln>  (263) 
-1.10488

>  <r_i_glide_gscore>  (263) 
-4.02072

>  <r_i_glide_lipo>  (263) 
-0.356281

>  <r_i_glide_hbond>  (263) 
-0.168591

>  <r_i_glide_metal>  (263) 
-0

>  <r_i_glide_rewards>  (263) 
-2.43835

>  <r_i_glide_evdw>  (263) 
-20.851

>  <r_i_glide_ecoul>  (263) 
-2.46151

>  <r_i_glide_erotb>  (263) 
0.372511

>  <r_i_glide_esite>  (263) 
-0.0182326

>  <r_i_glide_emodel>  (263) 
-27.557

>  <r_i_glide_energy>  (263) 
-23.3125

>  <r_i_glide_einternal>  (263) 
3.71262

>  <r_i_glide_intrahb_reward>  (263) 
-0

>  <i_i_glide_confnum>  (263) 
2

>  <i_i_glide_posenum>  (263) 
17

>  <r_i_glide_eff_state_penalty>  (263) 
0

>  <ligand_id>  (263) 
79

>  <original_smiles>  (263) 
CNC(=O)C1CCN2C(C#N)CSC12

>  <smiles>  (263) 
[H]N(C(=O)C1([H])C2([H])SC([H])([H])C([H])(C#N)N2C([H])([H])C1([H])[H])C([H])([H])[H]

$$$$
79:0:2
     RDKit          3D

 27 28  0  0  1  0  0  0  0  0999 V2000
   -3.7649    3.2537    2.2472 C   0  0  0  0  0  0  0  0  0  0  0  0
   -2.5156    2.8825    2.8825 N   0  0  0  0  0  0  0  0  0  0  0  0
   -1.5744    3.7419    3.3229 C   0  0  0  0  0  0  0  0  0  0  0  0
   -1.7714    4.9618    3.3604 O   0  0  0  0  0  0  0  0  0  0  0  0
   -0.2326    3.1752    3.7762 C   0  0  2  0  0  0  0  0  0  0  0  0
    0.9499    4.1701    3.7720 C   0  0  0  0  0  0  0  0  0  0  0  0
    2.1311    3.3775    3.1380 C   0  0  0  0  0  0  0  0  0  0  0  0
    1.6417    1.9915    3.1852 N   0  0  0  0  0  0  0  0  0  0  0  0
    2.1486    0.9490    2.2872 C   0  0  1  0  0  0  0  0  0  0  0  0
    3.4312    0.3229    2.6868 C   0  0  0  0  0  0  0  0  0  0  0  0
    4.4278   -0.1655    2.9861 N   0  0  0  0  0  0  0  0  0  0  0  0
    1.0535   -0.1296    2.3006 C   0  0  0  0  0  0  0  0  0  0  0  0
   -0.4126    0.5426    3.0843 S   0  0  0  0  0  0  0  0  0  0  0  0
    0.2606    2.1402    2.8336 C   0  0  1  0  0  0  0  0  0  0  0  0
   -4.5952    2.9409    2.8724 H   0  0  0  0  0  0  0  0  0  0  0  0
   -3.8497    2.7301    1.2896 H   0  0  0  0  0  0  0  0  0  0  0  0
   -3.8647    4.3205    2.0649 H   0  0  0  0  0  0  0  0  0  0  0  0
   -2.2631    1.9242    2.8649 H   0  0  0  0  0  0  0  0  0  0  0  0
   -0.3318    2.7543    4.7651 H   0  0  0  0  0  0  0  0  0  0  0  0
    0.7596    5.0722    3.1818 H   0  0  0  0  0  0  0  0  0  0  0  0
    1.1788    4.4957    4.7950 H   0  0  0  0  0  0  0  0  0  0  0  0
    2.2942    3.7272    2.1095 H   0  0  0  0  0  0  0  0  0  0  0  0
    3.0685    3.5399    3.6890 H   0  0  0  0  0  0  0  0  0  0  0  0
    2.3072    1.3773    1.2924 H   0  0  0  0  0  0  0  0  0  0  0  0
    0.8086   -0.4156    1.3003 H   0  0  0  0  0  0  0  0  0  0  0  0
    1.3838   -1.0320    2.8189 H   0  0  0  0  0  0  0  0  0  0  0  0
    0.2076    2.4569    1.8036 H   0  0  0  0  0  0  0  0  0  0  0  0
  1  2  1  0
  1 15  1  0
  1 16  1  0
  1 17  1  0
  2  3  1  0
  2 18  1  0
  3  4  2  0
  3  5  1  0
  5 14  1  0
  5  6  1  0
  5 19  1  1
  6  7  1  0
  6 20  1  0
  6 21  1  0
  7  8  1  0
  7 22  1  0
  7 23  1  0
  8 14  1  0
  8  9  1  0
  9 10  1  0
  9 12  1  0
  9 24  1  6
 10 11  3  0
 12 13  1  0
 12 25  1  0
 12 26  1  0
 13 14  1  0
 14 27  1  6
M  END
>  <i_m_ct_stereo_status>  (264) 
1

>  <s_m_source_file>  (264) 
/var/tmp/pbs.5076255.sched01/tmpy0mqr2dw/78t3ouse6d.sdf

>  <i_m_source_file_index>  (264) 
29

>  <i_lp_mmshare_version>  (264) 
48012

>  <i_f3d_flags>  (264) 
0

>  <s_epik_input>  (264) 
W0NIM11bTkhdQyg9TylbQ0BIXShbQ0gyXVtDSDJdMSlbQ0BASF0oTjEyKVNbQ0gyXVtDQEBIXTJDI04=

>  <s_epik_cmdline>  (264) 
J2VwaWtfcHl0aG9uJywgJy1waHQnLCAnMi4wJywgJy1waCcsICc3LjAnLCAnLXRuJywgJzgnLCAnLW1hJywgJzIwMCcsICctaW1hZScsICc8aW5maWxlLm1hZT4nLCAnLW9tYWUnLCAnPG91dGZpbGUubWFlPic=

>  <r_lp_tautomer_probability>  (264) 
1

>  <r_epik_Ionization_Penalty>  (264) 
3.76995e-08

>  <r_epik_Ionization_Penalty_Charging>  (264) 
0

>  <r_epik_Ionization_Penalty_Neutral>  (264) 
3.76995e-08

>  <r_epik_State_Penalty>  (264) 
-0

>  <r_epik_Charging_Adjusted_Penalty>  (264) 
0

>  <i_epik_Tot_Q>  (264) 
0

>  <i_epik_Tot_abs_Q>  (264) 
0

>  <s_epik_Chemistry_Notes>  (264) 
This compound contains an acetal/aminal-like group ( X-CH(R)-Y where X, Y are N, S, or O) that may be acid/base labile, releasing an aldehyde.

>  <s_lp_Force_Field>  (264) 
OPLS3e

>  <r_lp_Energy>  (264) 
4.55271

>  <b_lp_Chiralities_Consistent>  (264) 
1

>  <s_lp_Variant>  (264) 
79:0-1

>  <s_i_glide_gridfile>  (264) 
pfpi4k_grid

>  <i_i_glide_lignum>  (264) 
29

>  <i_i_glide_rotatable_bonds>  (264) 
3

>  <r_i_docking_score>  (264) 
-3.95602

>  <r_i_glide_ligand_efficiency>  (264) 
-0.282573

>  <r_i_glide_ligand_efficiency_sa>  (264) 
-0.68104

>  <r_i_glide_ligand_efficiency_ln>  (264) 
-1.0871

>  <r_i_glide_gscore>  (264) 
-3.95602

>  <r_i_glide_lipo>  (264) 
-0.0932628

>  <r_i_glide_hbond>  (264) 
-0.165775

>  <r_i_glide_metal>  (264) 
-0

>  <r_i_glide_rewards>  (264) 
-1.9994

>  <r_i_glide_evdw>  (264) 
-15.5129

>  <r_i_glide_ecoul>  (264) 
-7.82052

>  <r_i_glide_erotb>  (264) 
0.372511

>  <r_i_glide_esite>  (264) 
-0.12136

>  <r_i_glide_emodel>  (264) 
-28.5123

>  <r_i_glide_energy>  (264) 
-23.3335

>  <r_i_glide_einternal>  (264) 
2.67801

>  <r_i_glide_intrahb_reward>  (264) 
-0

>  <i_i_glide_confnum>  (264) 
1

>  <i_i_glide_posenum>  (264) 
36

>  <r_i_glide_eff_state_penalty>  (264) 
0

>  <ligand_id>  (264) 
79

>  <original_smiles>  (264) 
CNC(=O)C1CCN2C(C#N)CSC12

>  <smiles>  (264) 
[H]N(C(=O)C1([H])C2([H])SC([H])([H])C([H])(C#N)N2C([H])([H])C1([H])[H])C([H])([H])[H]

$$$$
81:0:0
     RDKit          3D

 88 94  0  0  1  0  0  0  0  0999 V2000
    0.9879    5.4858    7.1826 C   0  0  0  0  0  0  0  0  0  0  0  0
    0.8042    5.2931    5.6632 C   0  0  2  0  0  0  0  0  0  0  0  0
   -0.5533    4.5981    5.3664 C   0  0  0  0  0  0  0  0  0  0  0  0
   -0.7584    4.0150    3.9493 C   0  0  1  0  0  0  0  0  0  0  0  0
   -1.0175    5.0522    3.0157 O   0  0  0  0  0  0  0  0  0  0  0  0
    0.4652    3.1614    3.6344 C   0  0  0  0  0  0  0  0  0  0  0  0
    0.3553    1.8078    3.8311 C   0  0  0  0  0  0  0  0  0  0  0  0
    1.3667    0.7821    4.1795 C   0  0  0  0  0  0  0  0  0  0  0  0
    0.8931   -0.2961    4.8379 C   0  0  0  0  0  0  0  0  0  0  0  0
    1.7248   -1.4047    5.4473 C   0  0  0  0  0  0  0  0  0  0  0  0
    3.2065   -1.5228    4.9820 C   0  0  2  0  0  0  0  0  0  0  0  0
    3.6288   -0.5028    3.8485 C   0  0  1  0  0  0  0  0  0  0  0  0
    5.1456   -0.1704    3.8581 C   0  0  0  0  0  0  0  0  0  0  0  0
    3.3487   -1.1321    2.4584 C   0  0  0  0  0  0  0  0  0  0  0  0
    3.8372   -2.5987    2.2769 C   0  0  0  0  0  0  0  0  0  0  0  0
    3.2846   -3.6064    3.3347 C   0  0  1  0  0  0  0  0  0  0  0  0
    1.7329   -3.5486    3.1306 C   0  0  0  0  0  0  0  0  0  0  0  0
    3.6370   -5.1799    3.1233 C   0  0  2  0  0  0  0  0  0  0  0  0
    4.2688   -5.9652    4.3317 C   0  0  2  0  0  0  0  0  0  0  0  0
    5.8289   -6.0411    4.3176 C   0  0  0  0  0  0  0  0  0  0  0  0
    3.7841   -7.4382    4.2150 C   0  0  0  0  0  0  0  0  0  0  0  0
    4.2373   -8.1554    2.9371 C   0  0  0  0  0  0  0  0  0  0  0  0
    4.2582   -7.3011    1.6722 C   0  0  0  0  0  0  0  0  0  0  0  0
    4.5035   -7.8799    0.6063 O   0  0  0  0  0  0  0  0  0  0  0  0
    4.0446   -5.7555    1.6905 C   0  0  0  0  0  0  0  0  0  0  0  0
    2.9043   -5.5483    0.6507 C   0  0  0  0  0  0  0  0  0  0  0  0
    5.3505   -5.1068    1.1520 C   0  0  0  0  0  0  0  0  0  0  0  0
    3.7341   -5.4642    5.7163 C   0  0  0  0  0  0  0  0  0  0  0  0
    3.1805   -4.0225    5.8287 C   0  0  0  0  0  0  0  0  0  0  0  0
    3.7019   -3.0278    4.7642 C   0  0  2  0  0  0  0  0  0  0  0  0
    5.2435   -2.9785    5.0267 C   0  0  0  0  0  0  0  0  0  0  0  0
    2.8757    0.8854    3.9615 C   0  0  2  0  0  0  0  0  0  0  0  0
    3.5015    1.9556    4.9910 C   0  0  0  0  0  0  0  0  0  0  0  0
    2.6439    3.2354    5.3445 C   0  0  2  0  0  0  0  0  0  0  0  0
    2.8943    3.2748    3.9026 O   0  0  0  0  0  0  0  0  0  0  0  0
    1.7528    4.0077    3.6284 C   0  0  1  0  0  0  0  0  0  0  0  0
    1.8417    4.8456    2.4846 O   0  0  0  0  0  0  0  0  0  0  0  0
    1.9975    4.6286    4.9654 C   0  0  1  0  0  0  0  0  0  0  0  0
    1.0397    4.5358    7.7097 H   0  0  0  0  0  0  0  0  0  0  0  0
    0.1427    6.0373    7.5982 H   0  0  0  0  0  0  0  0  0  0  0  0
    1.8860    6.0549    7.4138 H   0  0  0  0  0  0  0  0  0  0  0  0
    0.7244    6.2922    5.2491 H   0  0  0  0  0  0  0  0  0  0  0  0
   -0.7034    3.7932    6.0819 H   0  0  0  0  0  0  0  0  0  0  0  0
   -1.2971    5.3399    5.5672 H   0  0  0  0  0  0  0  0  0  0  0  0
   -1.6607    3.3989    3.9378 H   0  0  0  0  0  0  0  0  0  0  0  0
   -0.6544    4.7872    2.1614 H   0  0  0  0  0  0  0  0  0  0  0  0
   -0.6687    1.4633    3.9210 H   0  0  0  0  0  0  0  0  0  0  0  0
   -0.1607   -0.3675    5.0577 H   0  0  0  0  0  0  0  0  0  0  0  0
    1.7129   -1.2523    6.5275 H   0  0  0  0  0  0  0  0  0  0  0  0
    1.1509   -2.3139    5.3089 H   0  0  0  0  0  0  0  0  0  0  0  0
    3.7193   -1.1534    5.8697 H   0  0  0  0  0  0  0  0  0  0  0  0
    5.3552    0.6767    3.2169 H   0  0  0  0  0  0  0  0  0  0  0  0
    5.7782   -0.9619    3.4657 H   0  0  0  0  0  0  0  0  0  0  0  0
    5.5125    0.0874    4.8510 H   0  0  0  0  0  0  0  0  0  0  0  0
    2.2890   -1.0545    2.2127 H   0  0  0  0  0  0  0  0  0  0  0  0
    3.8241   -0.5303    1.6804 H   0  0  0  0  0  0  0  0  0  0  0  0
    3.5502   -2.8754    1.2706 H   0  0  0  0  0  0  0  0  0  0  0  0
    4.9237   -2.6138    2.2536 H   0  0  0  0  0  0  0  0  0  0  0  0
    1.1687   -4.1857    3.8109 H   0  0  0  0  0  0  0  0  0  0  0  0
    1.4787   -3.8689    2.1268 H   0  0  0  0  0  0  0  0  0  0  0  0
    1.2846   -2.5642    3.2068 H   0  0  0  0  0  0  0  0  0  0  0  0
    2.6434   -5.6178    3.1837 H   0  0  0  0  0  0  0  0  0  0  0  0
    6.2135   -6.5034    5.2263 H   0  0  0  0  0  0  0  0  0  0  0  0
    6.3319   -5.0919    4.2009 H   0  0  0  0  0  0  0  0  0  0  0  0
    6.2280   -6.6328    3.4986 H   0  0  0  0  0  0  0  0  0  0  0  0
    4.1204   -8.0158    5.0758 H   0  0  0  0  0  0  0  0  0  0  0  0
    2.6920   -7.4877    4.2505 H   0  0  0  0  0  0  0  0  0  0  0  0
    5.2500   -8.5330    3.0868 H   0  0  0  0  0  0  0  0  0  0  0  0
    3.6237   -9.0405    2.7674 H   0  0  0  0  0  0  0  0  0  0  0  0
    2.6860   -4.5161    0.4110 H   0  0  0  0  0  0  0  0  0  0  0  0
    1.9743   -6.0060    0.9968 H   0  0  0  0  0  0  0  0  0  0  0  0
    3.1349   -6.0084   -0.3122 H   0  0  0  0  0  0  0  0  0  0  0  0
    5.1556   -4.2418    0.5239 H   0  0  0  0  0  0  0  0  0  0  0  0
    5.9474   -5.7853    0.5388 H   0  0  0  0  0  0  0  0  0  0  0  0
    5.9986   -4.7745    1.9602 H   0  0  0  0  0  0  0  0  0  0  0  0
    2.9713   -6.1370    6.1034 H   0  0  0  0  0  0  0  0  0  0  0  0
    4.5405   -5.5641    6.4498 H   0  0  0  0  0  0  0  0  0  0  0  0
    2.1003   -4.1316    5.7475 H   0  0  0  0  0  0  0  0  0  0  0  0
    3.3467   -3.6311    6.8292 H   0  0  0  0  0  0  0  0  0  0  0  0
    5.6128   -3.7571    5.6867 H   0  0  0  0  0  0  0  0  0  0  0  0
    5.5738   -2.0830    5.5501 H   0  0  0  0  0  0  0  0  0  0  0  0
    5.8123   -3.0343    4.1038 H   0  0  0  0  0  0  0  0  0  0  0  0
    2.9624    1.2739    2.9450 H   0  0  0  0  0  0  0  0  0  0  0  0
    3.6556    1.4093    5.9208 H   0  0  0  0  0  0  0  0  0  0  0  0
    4.5334    2.2246    4.7239 H   0  0  0  0  0  0  0  0  0  0  0  0
    1.7423    2.7699    5.7803 H   0  0  0  0  0  0  0  0  0  0  0  0
    1.1967    4.5503    1.8245 H   0  0  0  0  0  0  0  0  0  0  0  0
    2.8346    5.3444    4.8853 H   0  0  0  0  0  0  0  0  0  0  0  0
  1  2  1  0
  1 39  1  0
  1 40  1  0
  1 41  1  0
  2 38  1  0
  2  3  1  0
  2 42  1  6
  3  4  1  0
  3 43  1  0
  3 44  1  0
  4  5  1  0
  4  6  1  0
  4 45  1  1
  5 46  1  0
  6 36  1  0
  6  7  2  3
  7  8  1  0
  7 47  1  0
  8 32  1  0
  8  9  2  0
  9 10  1  0
  9 48  1  0
 10 11  1  0
 10 49  1  0
 10 50  1  0
 11 30  1  0
 11 12  1  0
 11 51  1  1
 12 13  1  6
 12 14  1  0
 12 32  1  0
 13 52  1  0
 13 53  1  0
 13 54  1  0
 14 15  1  0
 14 55  1  0
 14 56  1  0
 15 16  1  0
 15 57  1  0
 15 58  1  0
 16 30  1  0
 16 17  1  1
 16 18  1  0
 17 59  1  0
 17 60  1  0
 17 61  1  0
 18 25  1  0
 18 19  1  0
 18 62  1  1
 19 20  1  1
 19 21  1  0
 19 28  1  0
 20 63  1  0
 20 64  1  0
 20 65  1  0
 21 22  1  0
 21 66  1  0
 21 67  1  0
 22 23  1  0
 22 68  1  0
 22 69  1  0
 23 24  2  0
 23 25  1  0
 25 26  1  0
 25 27  1  0
 26 70  1  0
 26 71  1  0
 26 72  1  0
 27 73  1  0
 27 74  1  0
 27 75  1  0
 28 29  1  0
 28 76  1  0
 28 77  1  0
 29 30  1  0
 29 78  1  0
 29 79  1  0
 30 31  1  6
 31 80  1  0
 31 81  1  0
 31 82  1  0
 32 33  1  0
 32 83  1  6
 33 34  1  0
 33 84  1  0
 33 85  1  0
 34 38  1  0
 34 35  1  0
 34 86  1  6
 35 36  1  0
 36 37  1  6
 36 38  1  0
 37 87  1  0
 38 88  1  6
M  END
>  <i_m_ct_stereo_status>  (265) 
1

>  <s_m_source_file>  (265) 
/var/tmp/pbs.5076255.sched01/tmpy0mqr2dw/78t3ouse6d.sdf

>  <i_m_source_file_index>  (265) 
31

>  <i_lp_mmshare_version>  (265) 
48012

>  <i_f3d_flags>  (265) 
0

>  <s_epik_input>  (265) 
W0NIM11bQ0BASF0xW0NIMl1bQ0BASF0oW09IXSkvQyg9W0NIXS8yKVtDQEBdKE8zKShbT0hdKVtDQEBIXTFbQ0BASF0zW0NIMl1bQ0BASF00QzI9W0NIXVtDSDJdW0NASF0oW0NAXTQ1W0NIM10pW0NAXTYoW0NIM10pW0NAQF0oW0NIM10pKFtDSDJdW0NIMl01KVtDQEBIXTdbQ0BAXShbQ0gzXSkoW0NIMl1bQ0gyXTYpW0NIMl1bQ0gyXUMoPU8pQzcoW0NIM10pW0NIM10=

>  <s_epik_cmdline>  (265) 
J2VwaWtfcHl0aG9uJywgJy1waHQnLCAnMi4wJywgJy1waCcsICc3LjAnLCAnLXRuJywgJzgnLCAnLW1hJywgJzIwMCcsICctaW1hZScsICc8aW5maWxlLm1hZT4nLCAnLW9tYWUnLCAnPG91dGZpbGUubWFlPic=

>  <r_lp_tautomer_probability>  (265) 
1

>  <r_epik_Ionization_Penalty>  (265) 
3.32206e-06

>  <r_epik_Ionization_Penalty_Charging>  (265) 
0

>  <r_epik_Ionization_Penalty_Neutral>  (265) 
3.32206e-06

>  <r_epik_State_Penalty>  (265) 
-0

>  <r_epik_Charging_Adjusted_Penalty>  (265) 
0

>  <i_epik_Tot_Q>  (265) 
0

>  <i_epik_Tot_abs_Q>  (265) 
0

>  <s_lp_Force_Field>  (265) 
OPLS3e

>  <r_lp_Energy>  (265) 
221.331

>  <b_lp_Chiralities_Consistent>  (265) 
1

>  <s_lp_Variant>  (265) 
81:0-1

>  <s_i_glide_gridfile>  (265) 
pfpi4k_grid

>  <i_i_glide_lignum>  (265) 
31

>  <i_i_glide_rotatable_bonds>  (265) 
2

>  <r_i_docking_score>  (265) 
-3.29104

>  <r_i_glide_ligand_efficiency>  (265) 
-0.0866064

>  <r_i_glide_ligand_efficiency_sa>  (265) 
-0.291168

>  <r_i_glide_ligand_efficiency_ln>  (265) 
-0.709645

>  <r_i_glide_gscore>  (265) 
-3.29104

>  <r_i_glide_lipo>  (265) 
-0.237609

>  <r_i_glide_hbond>  (265) 
0

>  <r_i_glide_metal>  (265) 
-0

>  <r_i_glide_rewards>  (265) 
-0.0835255

>  <r_i_glide_evdw>  (265) 
-22.2633

>  <r_i_glide_ecoul>  (265) 
-12.0339

>  <r_i_glide_erotb>  (265) 
0

>  <r_i_glide_esite>  (265) 
-0.0516564

>  <r_i_glide_emodel>  (265) 
-40.7458

>  <r_i_glide_energy>  (265) 
-34.2972

>  <r_i_glide_einternal>  (265) 
2.34303

>  <r_i_glide_intrahb_reward>  (265) 
-0

>  <i_i_glide_confnum>  (265) 
1

>  <i_i_glide_posenum>  (265) 
27

>  <r_i_glide_eff_state_penalty>  (265) 
0

>  <ligand_id>  (265) 
81

>  <original_smiles>  (265) 
CC1CC(O)C2=CC3=CCC4C(C)(CCC5(C)C6C(C)(CCC(=O)C6(C)C)CCC45C)C3CC3OC2(O)C13

>  <smiles>  (265) 
[H]OC1([H])C2=C([H])C3=C([H])C([H])([H])C4([H])C(C([H])([H])[H])(C([H])([H])C([H])([H])C5(C([H])([H])[H])C6([H])C(C([H])([H])[H])(C([H])([H])[H])C(=O)C([H])([H])C([H])([H])C6(C([H])([H])[H])C([H])([H])C([H])([H])C45C([H])([H])[H])C3([H])C([H])([H])C3([H])OC2(O[H])C3([H])C([H])(C([H])([H])[H])C1([H])[H]

$$$$
81:0:1
     RDKit          3D

 88 94  0  0  1  0  0  0  0  0999 V2000
   -1.8440    3.4448    7.6603 C   0  0  0  0  0  0  0  0  0  0  0  0
   -0.9750    3.7070    6.4100 C   0  0  2  0  0  0  0  0  0  0  0  0
   -1.7485    3.3429    5.1050 C   0  0  0  0  0  0  0  0  0  0  0  0
   -0.9091    3.1781    3.8051 C   0  0  1  0  0  0  0  0  0  0  0  0
   -0.5102    4.4359    3.2779 O   0  0  0  0  0  0  0  0  0  0  0  0
    0.2648    2.2472    4.1343 C   0  0  0  0  0  0  0  0  0  0  0  0
    0.1460    0.9293    3.8077 C   0  0  0  0  0  0  0  0  0  0  0  0
    0.7483   -0.2887    4.4063 C   0  0  0  0  0  0  0  0  0  0  0  0
    0.0385   -1.4131    4.2506 C   0  0  0  0  0  0  0  0  0  0  0  0
    0.3354   -2.7608    4.8778 C   0  0  0  0  0  0  0  0  0  0  0  0
    1.7609   -2.9714    5.4705 C   0  0  2  0  0  0  0  0  0  0  0  0
    2.7492   -1.7545    5.2492 C   0  0  1  0  0  0  0  0  0  0  0  0
    3.8604   -1.6517    6.3311 C   0  0  0  0  0  0  0  0  0  0  0  0
    3.4986   -1.9449    3.9041 C   0  0  0  0  0  0  0  0  0  0  0  0
    4.0860   -3.3651    3.6531 C   0  0  0  0  0  0  0  0  0  0  0  0
    3.0447   -4.5232    3.7338 C   0  0  1  0  0  0  0  0  0  0  0  0
    2.0183   -4.1812    2.5969 C   0  0  0  0  0  0  0  0  0  0  0  0
    3.5525   -6.0190    3.3466 C   0  0  2  0  0  0  0  0  0  0  0  0
    3.2794   -7.1822    4.3689 C   0  0  2  0  0  0  0  0  0  0  0  0
    4.4597   -7.4858    5.3458 C   0  0  0  0  0  0  0  0  0  0  0  0
    3.0947   -8.4834    3.5363 C   0  0  0  0  0  0  0  0  0  0  0  0
    4.3270   -8.8914    2.7148 C   0  0  0  0  0  0  0  0  0  0  0  0
    5.1124   -7.7445    2.0935 C   0  0  0  0  0  0  0  0  0  0  0  0
    6.0287   -8.0492    1.3190 O   0  0  0  0  0  0  0  0  0  0  0  0
    4.8419   -6.2488    2.4309 C   0  0  0  0  0  0  0  0  0  0  0  0
    4.6642   -5.6007    1.0256 C   0  0  0  0  0  0  0  0  0  0  0  0
    6.1275   -5.6796    3.0937 C   0  0  0  0  0  0  0  0  0  0  0  0
    1.9306   -6.9971    5.1400 C   0  0  0  0  0  0  0  0  0  0  0  0
    1.3508   -5.5694    5.3000 C   0  0  0  0  0  0  0  0  0  0  0  0
    2.3785   -4.4163    5.1832 C   0  0  2  0  0  0  0  0  0  0  0  0
    3.3611   -4.6686    6.3832 C   0  0  0  0  0  0  0  0  0  0  0  0
    2.0138   -0.3488    5.2591 C   0  0  2  0  0  0  0  0  0  0  0  0
    1.7311    0.2995    6.7041 C   0  0  0  0  0  0  0  0  0  0  0  0
    0.7603    1.5455    6.7752 C   0  0  2  0  0  0  0  0  0  0  0  0
    1.8894    1.9170    5.9507 O   0  0  0  0  0  0  0  0  0  0  0  0
    1.1675    2.8597    5.2305 C   0  0  1  0  0  0  0  0  0  0  0  0
    1.9697    3.9268    4.7183 O   0  0  0  0  0  0  0  0  0  0  0  0
    0.4245    3.0737    6.4997 C   0  0  1  0  0  0  0  0  0  0  0  0
   -2.0881    2.3915    7.7866 H   0  0  0  0  0  0  0  0  0  0  0  0
   -2.7927    3.9832    7.5815 H   0  0  0  0  0  0  0  0  0  0  0  0
   -1.3640    3.7878    8.5762 H   0  0  0  0  0  0  0  0  0  0  0  0
   -0.8276    4.7757    6.3823 H   0  0  0  0  0  0  0  0  0  0  0  0
   -2.2636    2.4013    5.2773 H   0  0  0  0  0  0  0  0  0  0  0  0
   -2.5399    4.0774    4.9427 H   0  0  0  0  0  0  0  0  0  0  0  0
   -1.5436    2.7234    3.0420 H   0  0  0  0  0  0  0  0  0  0  0  0
   -0.2037    4.3292    2.3528 H   0  0  0  0  0  0  0  0  0  0  0  0
   -0.6526    0.7326    3.1063 H   0  0  0  0  0  0  0  0  0  0  0  0
   -0.8907   -1.3824    3.6998 H   0  0  0  0  0  0  0  0  0  0  0  0
   -0.4037   -2.9092    5.6676 H   0  0  0  0  0  0  0  0  0  0  0  0
    0.0611   -3.4976    4.1301 H   0  0  0  0  0  0  0  0  0  0  0  0
    1.5292   -2.9343    6.5336 H   0  0  0  0  0  0  0  0  0  0  0  0
    4.3897   -0.7006    6.2651 H   0  0  0  0  0  0  0  0  0  0  0  0
    4.6398   -2.4034    6.2324 H   0  0  0  0  0  0  0  0  0  0  0  0
    3.4602   -1.7327    7.3426 H   0  0  0  0  0  0  0  0  0  0  0  0
    2.8601   -1.6482    3.0716 H   0  0  0  0  0  0  0  0  0  0  0  0
    4.3270   -1.2347    3.8448 H   0  0  0  0  0  0  0  0  0  0  0  0
    4.5554   -3.3162    2.6803 H   0  0  0  0  0  0  0  0  0  0  0  0
    4.9113   -3.5378    4.3411 H   0  0  0  0  0  0  0  0  0  0  0  0
    1.1892   -4.8860    2.5337 H   0  0  0  0  0  0  0  0  0  0  0  0
    2.4829   -4.1714    1.6112 H   0  0  0  0  0  0  0  0  0  0  0  0
    1.5586   -3.1995    2.6668 H   0  0  0  0  0  0  0  0  0  0  0  0
    2.7984   -6.3039    2.6146 H   0  0  0  0  0  0  0  0  0  0  0  0
    4.1795   -8.2265    6.0949 H   0  0  0  0  0  0  0  0  0  0  0  0
    4.8506   -6.6272    5.8735 H   0  0  0  0  0  0  0  0  0  0  0  0
    5.3404   -7.8897    4.8524 H   0  0  0  0  0  0  0  0  0  0  0  0
    2.8163   -9.3142    4.1847 H   0  0  0  0  0  0  0  0  0  0  0  0
    2.2568   -8.3773    2.8371 H   0  0  0  0  0  0  0  0  0  0  0  0
    5.0104   -9.4419    3.3657 H   0  0  0  0  0  0  0  0  0  0  0  0
    4.0394   -9.6016    1.9382 H   0  0  0  0  0  0  0  0  0  0  0  0
    4.5849   -4.5220    1.0276 H   0  0  0  0  0  0  0  0  0  0  0  0
    3.7674   -5.9863    0.5309 H   0  0  0  0  0  0  0  0  0  0  0  0
    5.4986   -5.8193    0.3555 H   0  0  0  0  0  0  0  0  0  0  0  0
    6.3342   -4.6587    2.7862 H   0  0  0  0  0  0  0  0  0  0  0  0
    7.0271   -6.2493    2.8491 H   0  0  0  0  0  0  0  0  0  0  0  0
    6.0563   -5.6746    4.1808 H   0  0  0  0  0  0  0  0  0  0  0  0
    1.1522   -7.6284    4.7255 H   0  0  0  0  0  0  0  0  0  0  0  0
    2.0556   -7.4094    6.1510 H   0  0  0  0  0  0  0  0  0  0  0  0
    0.6023   -5.4916    4.5096 H   0  0  0  0  0  0  0  0  0  0  0  0
    0.7839   -5.4909    6.2214 H   0  0  0  0  0  0  0  0  0  0  0  0
    3.2427   -5.6415    6.8534 H   0  0  0  0  0  0  0  0  0  0  0  0
    3.1904   -4.0070    7.2314 H   0  0  0  0  0  0  0  0  0  0  0  0
    4.4125   -4.5639    6.1170 H   0  0  0  0  0  0  0  0  0  0  0  0
    2.7228    0.2738    4.7120 H   0  0  0  0  0  0  0  0  0  0  0  0
    1.2683   -0.4923    7.2924 H   0  0  0  0  0  0  0  0  0  0  0  0
    2.6576    0.4744    7.2638 H   0  0  0  0  0  0  0  0  0  0  0  0
   -0.1638    1.1297    6.3630 H   0  0  0  0  0  0  0  0  0  0  0  0
    2.4861    3.5506    4.0300 H   0  0  0  0  0  0  0  0  0  0  0  0
    1.0618    3.6507    7.1987 H   0  0  0  0  0  0  0  0  0  0  0  0
  1  2  1  0
  1 39  1  0
  1 40  1  0
  1 41  1  0
  2 38  1  0
  2  3  1  0
  2 42  1  6
  3  4  1  0
  3 43  1  0
  3 44  1  0
  4  5  1  0
  4  6  1  0
  4 45  1  6
  5 46  1  0
  6 36  1  0
  6  7  2  3
  7  8  1  0
  7 47  1  0
  8 32  1  0
  8  9  2  0
  9 10  1  0
  9 48  1  0
 10 11  1  0
 10 49  1  0
 10 50  1  0
 11 30  1  0
 11 12  1  0
 11 51  1  1
 12 13  1  1
 12 14  1  0
 12 32  1  0
 13 52  1  0
 13 53  1  0
 13 54  1  0
 14 15  1  0
 14 55  1  0
 14 56  1  0
 15 16  1  0
 15 57  1  0
 15 58  1  0
 16 30  1  0
 16 17  1  6
 16 18  1  0
 17 59  1  0
 17 60  1  0
 17 61  1  0
 18 25  1  0
 18 19  1  0
 18 62  1  6
 19 20  1  1
 19 21  1  0
 19 28  1  0
 20 63  1  0
 20 64  1  0
 20 65  1  0
 21 22  1  0
 21 66  1  0
 21 67  1  0
 22 23  1  0
 22 68  1  0
 22 69  1  0
 23 24  2  0
 23 25  1  0
 25 26  1  0
 25 27  1  0
 26 70  1  0
 26 71  1  0
 26 72  1  0
 27 73  1  0
 27 74  1  0
 27 75  1  0
 28 29  1  0
 28 76  1  0
 28 77  1  0
 29 30  1  0
 29 78  1  0
 29 79  1  0
 30 31  1  1
 31 80  1  0
 31 81  1  0
 31 82  1  0
 32 33  1  0
 32 83  1  6
 33 34  1  0
 33 84  1  0
 33 85  1  0
 34 38  1  0
 34 35  1  0
 34 86  1  6
 35 36  1  0
 36 37  1  6
 36 38  1  0
 37 87  1  0
 38 88  1  1
M  END
>  <i_m_ct_stereo_status>  (266) 
1

>  <s_m_source_file>  (266) 
/var/tmp/pbs.5076255.sched01/tmpy0mqr2dw/78t3ouse6d.sdf

>  <i_m_source_file_index>  (266) 
31

>  <i_lp_mmshare_version>  (266) 
48012

>  <i_f3d_flags>  (266) 
0

>  <s_epik_input>  (266) 
W0NIM11bQ0BASF0xW0NIMl1bQ0BASF0oW09IXSkvQyg9W0NIXS8yKVtDQEBdKE8zKShbT0hdKVtDQEBIXTFbQ0BASF0zW0NIMl1bQ0BASF00QzI9W0NIXVtDSDJdW0NASF0oW0NAXTQ1W0NIM10pW0NAXTYoW0NIM10pW0NAQF0oW0NIM10pKFtDSDJdW0NIMl01KVtDQEBIXTdbQ0BAXShbQ0gzXSkoW0NIMl1bQ0gyXTYpW0NIMl1bQ0gyXUMoPU8pQzcoW0NIM10pW0NIM10=

>  <s_epik_cmdline>  (266) 
J2VwaWtfcHl0aG9uJywgJy1waHQnLCAnMi4wJywgJy1waCcsICc3LjAnLCAnLXRuJywgJzgnLCAnLW1hJywgJzIwMCcsICctaW1hZScsICc8aW5maWxlLm1hZT4nLCAnLW9tYWUnLCAnPG91dGZpbGUubWFlPic=

>  <r_lp_tautomer_probability>  (266) 
1

>  <r_epik_Ionization_Penalty>  (266) 
3.32206e-06

>  <r_epik_Ionization_Penalty_Charging>  (266) 
0

>  <r_epik_Ionization_Penalty_Neutral>  (266) 
3.32206e-06

>  <r_epik_State_Penalty>  (266) 
-0

>  <r_epik_Charging_Adjusted_Penalty>  (266) 
0

>  <i_epik_Tot_Q>  (266) 
0

>  <i_epik_Tot_abs_Q>  (266) 
0

>  <s_lp_Force_Field>  (266) 
OPLS3e

>  <r_lp_Energy>  (266) 
221.331

>  <b_lp_Chiralities_Consistent>  (266) 
1

>  <s_lp_Variant>  (266) 
81:0-1

>  <s_i_glide_gridfile>  (266) 
pfpi4k_grid

>  <i_i_glide_lignum>  (266) 
31

>  <i_i_glide_rotatable_bonds>  (266) 
2

>  <r_i_docking_score>  (266) 
-2.50101

>  <r_i_glide_ligand_efficiency>  (266) 
-0.0658159

>  <r_i_glide_ligand_efficiency_sa>  (266) 
-0.221272

>  <r_i_glide_ligand_efficiency_ln>  (266) 
-0.53929

>  <r_i_glide_gscore>  (266) 
-2.50101

>  <r_i_glide_lipo>  (266) 
-0.122213

>  <r_i_glide_hbond>  (266) 
0

>  <r_i_glide_metal>  (266) 
-0

>  <r_i_glide_rewards>  (266) 
-0.0331735

>  <r_i_glide_evdw>  (266) 
-24.2556

>  <r_i_glide_ecoul>  (266) 
-7.53479

>  <r_i_glide_erotb>  (266) 
0

>  <r_i_glide_esite>  (266) 
-0.00262024

>  <r_i_glide_emodel>  (266) 
-37.0105

>  <r_i_glide_energy>  (266) 
-31.7904

>  <r_i_glide_einternal>  (266) 
0.864239

>  <r_i_glide_intrahb_reward>  (266) 
-0

>  <i_i_glide_confnum>  (266) 
1

>  <i_i_glide_posenum>  (266) 
2

>  <r_i_glide_eff_state_penalty>  (266) 
0

>  <ligand_id>  (266) 
81

>  <original_smiles>  (266) 
CC1CC(O)C2=CC3=CCC4C(C)(CCC5(C)C6C(C)(CCC(=O)C6(C)C)CCC45C)C3CC3OC2(O)C13

>  <smiles>  (266) 
[H]OC1([H])C2=C([H])C3=C([H])C([H])([H])C4([H])C(C([H])([H])[H])(C([H])([H])C([H])([H])C5(C([H])([H])[H])C6([H])C(C([H])([H])[H])(C([H])([H])[H])C(=O)C([H])([H])C([H])([H])C6(C([H])([H])[H])C([H])([H])C([H])([H])C45C([H])([H])[H])C3([H])C([H])([H])C3([H])OC2(O[H])C3([H])C([H])(C([H])([H])[H])C1([H])[H]

$$$$
81:0:2
     RDKit          3D

 88 94  0  0  1  0  0  0  0  0999 V2000
    3.2571   -2.8513   -1.9696 C   0  0  0  0  0  0  0  0  0  0  0  0
    4.3403   -2.9064   -0.8773 C   0  0  2  0  0  0  0  0  0  0  0  0
    4.1080   -4.0900    0.0979 C   0  0  0  0  0  0  0  0  0  0  0  0
    4.8750   -4.0349    1.4467 C   0  0  1  0  0  0  0  0  0  0  0  0
    6.2393   -4.3557    1.2679 O   0  0  0  0  0  0  0  0  0  0  0  0
    4.6483   -2.6493    2.0635 C   0  0  0  0  0  0  0  0  0  0  0  0
    3.6742   -2.5383    3.0212 C   0  0  0  0  0  0  0  0  0  0  0  0
    2.8240   -1.3911    3.4140 C   0  0  0  0  0  0  0  0  0  0  0  0
    1.6331   -1.7023    3.9474 C   0  0  0  0  0  0  0  0  0  0  0  0
    0.5182   -0.7331    4.2799 C   0  0  0  0  0  0  0  0  0  0  0  0
    0.8846    0.7768    4.3622 C   0  0  2  0  0  0  0  0  0  0  0  0
    2.4222    1.0905    4.1627 C   0  0  1  0  0  0  0  0  0  0  0  0
    2.6870    2.5156    3.6064 C   0  0  0  0  0  0  0  0  0  0  0  0
    3.1373    1.0502    5.5403 C   0  0  0  0  0  0  0  0  0  0  0  0
    2.4216    1.8113    6.6925 C   0  0  0  0  0  0  0  0  0  0  0  0
    0.9498    1.3640    6.9568 C   0  0  1  0  0  0  0  0  0  0  0  0
    1.0776   -0.1531    7.3422 C   0  0  0  0  0  0  0  0  0  0  0  0
    0.1860    2.0231    8.2310 C   0  0  2  0  0  0  0  0  0  0  0  0
   -1.2133    2.6947    7.9822 C   0  0  2  0  0  0  0  0  0  0  0  0
   -1.1792    4.2321    7.7513 C   0  0  0  0  0  0  0  0  0  0  0  0
   -2.0317    2.5280    9.2816 C   0  0  0  0  0  0  0  0  0  0  0  0
   -1.4321    3.1878   10.5233 C   0  0  0  0  0  0  0  0  0  0  0  0
    0.0948    3.1409   10.6302 C   0  0  0  0  0  0  0  0  0  0  0  0
    0.6015    3.5610   11.6546 O   0  0  0  0  0  0  0  0  0  0  0  0
    0.9953    2.6460    9.4522 C   0  0  0  0  0  0  0  0  0  0  0  0
    1.8984    1.5766   10.1402 C   0  0  0  0  0  0  0  0  0  0  0  0
    1.8769    3.8488    9.0164 C   0  0  0  0  0  0  0  0  0  0  0  0
   -2.0506    1.9629    6.8753 C   0  0  0  0  0  0  0  0  0  0  0  0
   -1.2944    1.1432    5.7987 C   0  0  0  0  0  0  0  0  0  0  0  0
    0.1791    1.5654    5.5658 C   0  0  2  0  0  0  0  0  0  0  0  0
    0.0769    3.0456    5.0664 C   0  0  0  0  0  0  0  0  0  0  0  0
    3.1324    0.0871    3.1678 C   0  0  2  0  0  0  0  0  0  0  0  0
    2.9841    0.4133    1.6101 C   0  0  0  0  0  0  0  0  0  0  0  0
    3.4114   -0.7018    0.5600 C   0  0  2  0  0  0  0  0  0  0  0  0
    4.6040   -0.3144    1.3481 O   0  0  0  0  0  0  0  0  0  0  0  0
    5.2254   -1.5598    1.1525 C   0  0  1  0  0  0  0  0  0  0  0  0
    6.6301   -1.4999    1.1632 O   0  0  0  0  0  0  0  0  0  0  0  0
    4.5511   -1.5307   -0.1820 C   0  0  1  0  0  0  0  0  0  0  0  0
    2.2657   -2.6712   -1.5503 H   0  0  0  0  0  0  0  0  0  0  0  0
    3.2104   -3.7958   -2.4956 H   0  0  0  0  0  0  0  0  0  0  0  0
    3.4528   -2.0837   -2.7127 H   0  0  0  0  0  0  0  0  0  0  0  0
    5.2708   -3.1253   -1.4012 H   0  0  0  0  0  0  0  0  0  0  0  0
    3.0438   -4.1312    0.3293 H   0  0  0  0  0  0  0  0  0  0  0  0
    4.3304   -5.0283   -0.4133 H   0  0  0  0  0  0  0  0  0  0  0  0
    4.4733   -4.8158    2.1067 H   0  0  0  0  0  0  0  0  0  0  0  0
    6.6406   -3.6845    0.7267 H   0  0  0  0  0  0  0  0  0  0  0  0
    3.3451   -3.4900    3.4321 H   0  0  0  0  0  0  0  0  0  0  0  0
    1.3583   -2.7424    4.0723 H   0  0  0  0  0  0  0  0  0  0  0  0
   -0.2458   -0.8576    3.5151 H   0  0  0  0  0  0  0  0  0  0  0  0
    0.0523   -1.1190    5.1814 H   0  0  0  0  0  0  0  0  0  0  0  0
    0.4231    1.1418    3.4419 H   0  0  0  0  0  0  0  0  0  0  0  0
    3.7279    2.6237    3.3101 H   0  0  0  0  0  0  0  0  0  0  0  0
    2.5447    3.3147    4.3282 H   0  0  0  0  0  0  0  0  0  0  0  0
    2.0753    2.7484    2.7314 H   0  0  0  0  0  0  0  0  0  0  0  0
    3.3283    0.0186    5.8318 H   0  0  0  0  0  0  0  0  0  0  0  0
    4.1365    1.4737    5.4434 H   0  0  0  0  0  0  0  0  0  0  0  0
    3.0448    1.6640    7.5672 H   0  0  0  0  0  0  0  0  0  0  0  0
    2.4761    2.8775    6.5033 H   0  0  0  0  0  0  0  0  0  0  0  0
    0.1201   -0.6415    7.5306 H   0  0  0  0  0  0  0  0  0  0  0  0
    1.6702   -0.2961    8.2459 H   0  0  0  0  0  0  0  0  0  0  0  0
    1.5829   -0.7753    6.6114 H   0  0  0  0  0  0  0  0  0  0  0  0
   -0.1736    1.1250    8.7269 H   0  0  0  0  0  0  0  0  0  0  0  0
   -2.1768    4.5925    7.5094 H   0  0  0  0  0  0  0  0  0  0  0  0
   -0.5008    4.5671    6.9823 H   0  0  0  0  0  0  0  0  0  0  0  0
   -0.8663    4.7959    8.6247 H   0  0  0  0  0  0  0  0  0  0  0  0
   -3.0662    2.8743    9.1588 H   0  0  0  0  0  0  0  0  0  0  0  0
   -2.1078    1.4664    9.4938 H   0  0  0  0  0  0  0  0  0  0  0  0
   -1.7288    4.2343   10.5513 H   0  0  0  0  0  0  0  0  0  0  0  0
   -1.8506    2.7454   11.4276 H   0  0  0  0  0  0  0  0  0  0  0  0
    2.7008    1.1899    9.5237 H   0  0  0  0  0  0  0  0  0  0  0  0
    1.3036    0.7185   10.4680 H   0  0  0  0  0  0  0  0  0  0  0  0
    2.3947    1.9613   11.0336 H   0  0  0  0  0  0  0  0  0  0  0  0
    2.8899    3.5480    8.7583 H   0  0  0  0  0  0  0  0  0  0  0  0
    1.9821    4.6066    9.7904 H   0  0  0  0  0  0  0  0  0  0  0  0
    1.4630    4.3566    8.1479 H   0  0  0  0  0  0  0  0  0  0  0  0
   -2.8050    1.3118    7.3195 H   0  0  0  0  0  0  0  0  0  0  0  0
   -2.6518    2.7070    6.3552 H   0  0  0  0  0  0  0  0  0  0  0  0
   -1.3426    0.1162    6.1357 H   0  0  0  0  0  0  0  0  0  0  0  0
   -1.8483    1.1553    4.8597 H   0  0  0  0  0  0  0  0  0  0  0  0
   -0.9077    3.4891    5.2001 H   0  0  0  0  0  0  0  0  0  0  0  0
    0.2031    3.1545    3.9926 H   0  0  0  0  0  0  0  0  0  0  0  0
    0.7965    3.7153    5.5317 H   0  0  0  0  0  0  0  0  0  0  0  0
    4.1818    0.1866    3.4568 H   0  0  0  0  0  0  0  0  0  0  0  0
    1.9164    0.5861    1.4340 H   0  0  0  0  0  0  0  0  0  0  0  0
    3.4081    1.3746    1.3582 H   0  0  0  0  0  0  0  0  0  0  0  0
    2.7776   -1.5262    0.8294 H   0  0  0  0  0  0  0  0  0  0  0  0
    6.8481   -0.7049    1.6362 H   0  0  0  0  0  0  0  0  0  0  0  0
    5.0676   -0.8380   -0.8293 H   0  0  0  0  0  0  0  0  0  0  0  0
  1  2  1  0
  1 39  1  0
  1 40  1  0
  1 41  1  0
  2 38  1  0
  2  3  1  0
  2 42  1  6
  3  4  1  0
  3 43  1  0
  3 44  1  0
  4  5  1  0
  4  6  1  0
  4 45  1  1
  5 46  1  0
  6 36  1  0
  6  7  2  3
  7  8  1  0
  7 47  1  0
  8 32  1  0
  8  9  2  0
  9 10  1  0
  9 48  1  0
 10 11  1  0
 10 49  1  0
 10 50  1  0
 11 30  1  0
 11 12  1  0
 11 51  1  6
 12 13  1  6
 12 14  1  0
 12 32  1  0
 13 52  1  0
 13 53  1  0
 13 54  1  0
 14 15  1  0
 14 55  1  0
 14 56  1  0
 15 16  1  0
 15 57  1  0
 15 58  1  0
 16 30  1  0
 16 17  1  1
 16 18  1  0
 17 59  1  0
 17 60  1  0
 17 61  1  0
 18 25  1  0
 18 19  1  0
 18 62  1  1
 19 20  1  6
 19 21  1  0
 19 28  1  0
 20 63  1  0
 20 64  1  0
 20 65  1  0
 21 22  1  0
 21 66  1  0
 21 67  1  0
 22 23  1  0
 22 68  1  0
 22 69  1  0
 23 24  2  0
 23 25  1  0
 25 26  1  0
 25 27  1  0
 26 70  1  0
 26 71  1  0
 26 72  1  0
 27 73  1  0
 27 74  1  0
 27 75  1  0
 28 29  1  0
 28 76  1  0
 28 77  1  0
 29 30  1  0
 29 78  1  0
 29 79  1  0
 30 31  1  6
 31 80  1  0
 31 81  1  0
 31 82  1  0
 32 33  1  0
 32 83  1  1
 33 34  1  0
 33 84  1  0
 33 85  1  0
 34 38  1  0
 34 35  1  0
 34 86  1  1
 35 36  1  0
 36 37  1  6
 36 38  1  0
 37 87  1  0
 38 88  1  6
M  END
>  <i_m_ct_stereo_status>  (267) 
1

>  <s_m_source_file>  (267) 
/var/tmp/pbs.5076255.sched01/tmpy0mqr2dw/78t3ouse6d.sdf

>  <i_m_source_file_index>  (267) 
31

>  <i_lp_mmshare_version>  (267) 
48012

>  <i_f3d_flags>  (267) 
0

>  <s_epik_input>  (267) 
W0NIM11bQ0BASF0xW0NIMl1bQ0BASF0oW09IXSkvQyg9W0NIXS8yKVtDQEBdKE8zKShbT0hdKVtDQEBIXTFbQ0BASF0zW0NIMl1bQ0BASF00QzI9W0NIXVtDSDJdW0NASF0oW0NAXTQ1W0NIM10pW0NAXTYoW0NIM10pW0NAQF0oW0NIM10pKFtDSDJdW0NIMl01KVtDQEBIXTdbQ0BAXShbQ0gzXSkoW0NIMl1bQ0gyXTYpW0NIMl1bQ0gyXUMoPU8pQzcoW0NIM10pW0NIM10=

>  <s_epik_cmdline>  (267) 
J2VwaWtfcHl0aG9uJywgJy1waHQnLCAnMi4wJywgJy1waCcsICc3LjAnLCAnLXRuJywgJzgnLCAnLW1hJywgJzIwMCcsICctaW1hZScsICc8aW5maWxlLm1hZT4nLCAnLW9tYWUnLCAnPG91dGZpbGUubWFlPic=

>  <r_lp_tautomer_probability>  (267) 
1

>  <r_epik_Ionization_Penalty>  (267) 
3.32206e-06

>  <r_epik_Ionization_Penalty_Charging>  (267) 
0

>  <r_epik_Ionization_Penalty_Neutral>  (267) 
3.32206e-06

>  <r_epik_State_Penalty>  (267) 
-0

>  <r_epik_Charging_Adjusted_Penalty>  (267) 
0

>  <i_epik_Tot_Q>  (267) 
0

>  <i_epik_Tot_abs_Q>  (267) 
0

>  <s_lp_Force_Field>  (267) 
OPLS3e

>  <r_lp_Energy>  (267) 
221.331

>  <b_lp_Chiralities_Consistent>  (267) 
1

>  <s_lp_Variant>  (267) 
81:0-1

>  <s_i_glide_gridfile>  (267) 
pfpi4k_grid

>  <i_i_glide_lignum>  (267) 
31

>  <i_i_glide_rotatable_bonds>  (267) 
2

>  <r_i_docking_score>  (267) 
-2.1522

>  <r_i_glide_ligand_efficiency>  (267) 
-0.0566368

>  <r_i_glide_ligand_efficiency_sa>  (267) 
-0.190412

>  <r_i_glide_ligand_efficiency_ln>  (267) 
-0.464078

>  <r_i_glide_gscore>  (267) 
-2.1522

>  <r_i_glide_lipo>  (267) 
-0.14469

>  <r_i_glide_hbond>  (267) 
0

>  <r_i_glide_metal>  (267) 
-0

>  <r_i_glide_rewards>  (267) 
-0.115792

>  <r_i_glide_evdw>  (267) 
-30.5548

>  <r_i_glide_ecoul>  (267) 
-2.35212

>  <r_i_glide_erotb>  (267) 
0

>  <r_i_glide_esite>  (267) 
-0.0111599

>  <r_i_glide_emodel>  (267) 
-37.8019

>  <r_i_glide_energy>  (267) 
-32.9069

>  <r_i_glide_einternal>  (267) 
0.0505016

>  <r_i_glide_intrahb_reward>  (267) 
-0

>  <i_i_glide_confnum>  (267) 
2

>  <i_i_glide_posenum>  (267) 
1

>  <r_i_glide_eff_state_penalty>  (267) 
0

>  <ligand_id>  (267) 
81

>  <original_smiles>  (267) 
CC1CC(O)C2=CC3=CCC4C(C)(CCC5(C)C6C(C)(CCC(=O)C6(C)C)CCC45C)C3CC3OC2(O)C13

>  <smiles>  (267) 
[H]OC1([H])C2=C([H])C3=C([H])C([H])([H])C4([H])C(C([H])([H])[H])(C([H])([H])C([H])([H])C5(C([H])([H])[H])C6([H])C(C([H])([H])[H])(C([H])([H])[H])C(=O)C([H])([H])C([H])([H])C6(C([H])([H])[H])C([H])([H])C([H])([H])C45C([H])([H])[H])C3([H])C([H])([H])C3([H])OC2(O[H])C3([H])C([H])(C([H])([H])[H])C1([H])[H]

$$$$
81:1:0
     RDKit          3D

 88 94  0  0  1  0  0  0  0  0999 V2000
    8.2059   -4.0121   -0.3074 C   0  0  0  0  0  0  0  0  0  0  0  0
    7.2762   -2.8017   -0.5228 C   0  0  2  0  0  0  0  0  0  0  0  0
    6.9030   -2.1902    0.8203 C   0  0  0  0  0  0  0  0  0  0  0  0
    5.8619   -1.1148    0.7450 C   0  0  1  0  0  0  0  0  0  0  0  0
    6.5856   -0.1237    0.0819 O   0  0  0  0  0  0  0  0  0  0  0  0
    4.6276   -1.4477   -0.0479 C   0  0  0  0  0  0  0  0  0  0  0  0
    3.4797   -1.8311    0.5146 C   0  0  0  0  0  0  0  0  0  0  0  0
    3.5409   -2.7786    1.6094 C   0  0  0  0  0  0  0  0  0  0  0  0
    3.4414   -2.3643    2.8692 C   0  0  0  0  0  0  0  0  0  0  0  0
    3.3138   -3.3039    4.0436 C   0  0  0  0  0  0  0  0  0  0  0  0
    4.0091   -4.6772    3.8378 C   0  0  2  0  0  0  0  0  0  0  0  0
    4.0544   -5.2865    2.3572 C   0  0  1  0  0  0  0  0  0  0  0  0
    5.5191   -5.6656    2.0267 C   0  0  0  0  0  0  0  0  0  0  0  0
    3.2058   -6.5964    2.2089 C   0  0  0  0  0  0  0  0  0  0  0  0
    2.9892   -7.4980    3.4468 C   0  0  0  0  0  0  0  0  0  0  0  0
    2.5713   -6.7011    4.7118 C   0  0  1  0  0  0  0  0  0  0  0  0
    1.3161   -5.8500    4.2777 C   0  0  0  0  0  0  0  0  0  0  0  0
    2.0521   -7.5702    5.9766 C   0  0  2  0  0  0  0  0  0  0  0  0
    2.9435   -7.5153    7.2689 C   0  0  2  0  0  0  0  0  0  0  0  0
    4.1572   -8.4852    7.2123 C   0  0  0  0  0  0  0  0  0  0  0  0
    2.0981   -7.9352    8.5023 C   0  0  0  0  0  0  0  0  0  0  0  0
    1.4469   -9.3164    8.3781 C   0  0  0  0  0  0  0  0  0  0  0  0
    0.6128   -9.3782    7.1140 C   0  0  0  0  0  0  0  0  0  0  0  0
   -0.5464   -9.7675    7.2165 O   0  0  0  0  0  0  0  0  0  0  0  0
    1.2491   -8.9436    5.7662 C   0  0  0  0  0  0  0  0  0  0  0  0
    0.0613   -8.7993    4.7761 C   0  0  0  0  0  0  0  0  0  0  0  0
    2.1214  -10.1393    5.2828 C   0  0  0  0  0  0  0  0  0  0  0  0
    3.3769   -6.0468    7.5725 C   0  0  0  0  0  0  0  0  0  0  0  0
    3.5147   -5.0690    6.3825 C   0  0  0  0  0  0  0  0  0  0  0  0
    3.7991   -5.7271    5.0124 C   0  0  2  0  0  0  0  0  0  0  0  0
    5.2215   -6.3960    5.1949 C   0  0  0  0  0  0  0  0  0  0  0  0
    3.5317   -4.2661    1.2587 C   0  0  2  0  0  0  0  0  0  0  0  0
    3.7298   -4.6596   -0.2686 C   0  0  0  0  0  0  0  0  0  0  0  0
    4.8907   -4.1137   -1.1813 C   0  0  2  0  0  0  0  0  0  0  0  0
    4.0177   -3.0970   -1.7704 O   0  0  0  0  0  0  0  0  0  0  0  0
    4.9161   -2.0262   -1.4370 C   0  0  1  0  0  0  0  0  0  0  0  0
    4.9980   -0.9846   -2.3974 O   0  0  0  0  0  0  0  0  0  0  0  0
    6.0300   -3.0368   -1.3907 C   0  0  1  0  0  0  0  0  0  0  0  0
    7.6956   -4.8432    0.1818 H   0  0  0  0  0  0  0  0  0  0  0  0
    9.0495   -3.7365    0.3222 H   0  0  0  0  0  0  0  0  0  0  0  0
    8.6486   -4.3535   -1.2441 H   0  0  0  0  0  0  0  0  0  0  0  0
    7.9047   -2.0854   -1.0382 H   0  0  0  0  0  0  0  0  0  0  0  0
    6.5338   -2.9145    1.5239 H   0  0  0  0  0  0  0  0  0  0  0  0
    7.8245   -1.7465    1.1616 H   0  0  0  0  0  0  0  0  0  0  0  0
    5.5942   -0.7081    1.7204 H   0  0  0  0  0  0  0  0  0  0  0  0
    7.0161    0.4492    0.7156 H   0  0  0  0  0  0  0  0  0  0  0  0
    2.6658   -2.0531   -0.1621 H   0  0  0  0  0  0  0  0  0  0  0  0
    3.3613   -1.3072    3.0984 H   0  0  0  0  0  0  0  0  0  0  0  0
    3.7800   -2.7944    4.8813 H   0  0  0  0  0  0  0  0  0  0  0  0
    2.2601   -3.3707    4.3051 H   0  0  0  0  0  0  0  0  0  0  0  0
    5.0158   -4.2848    3.9609 H   0  0  0  0  0  0  0  0  0  0  0  0
    5.6494   -5.9928    0.9943 H   0  0  0  0  0  0  0  0  0  0  0  0
    5.8720   -6.4939    2.6325 H   0  0  0  0  0  0  0  0  0  0  0  0
    6.2107   -4.8506    2.1941 H   0  0  0  0  0  0  0  0  0  0  0  0
    2.2190   -6.3909    1.7960 H   0  0  0  0  0  0  0  0  0  0  0  0
    3.6594   -7.2340    1.4471 H   0  0  0  0  0  0  0  0  0  0  0  0
    2.2264   -8.2051    3.1473 H   0  0  0  0  0  0  0  0  0  0  0  0
    3.8468   -8.1328    3.6262 H   0  0  0  0  0  0  0  0  0  0  0  0
    0.9037   -5.2402    5.0853 H   0  0  0  0  0  0  0  0  0  0  0  0
    0.4968   -6.4551    3.9022 H   0  0  0  0  0  0  0  0  0  0  0  0
    1.4958   -5.1591    3.4571 H   0  0  0  0  0  0  0  0  0  0  0  0
    1.2312   -6.9505    6.3383 H   0  0  0  0  0  0  0  0  0  0  0  0
    5.0220   -8.1165    7.7721 H   0  0  0  0  0  0  0  0  0  0  0  0
    4.4721   -8.6903    6.1953 H   0  0  0  0  0  0  0  0  0  0  0  0
    3.9661   -9.4615    7.6517 H   0  0  0  0  0  0  0  0  0  0  0  0
    2.6913   -7.8938    9.4237 H   0  0  0  0  0  0  0  0  0  0  0  0
    1.2780   -7.2197    8.6487 H   0  0  0  0  0  0  0  0  0  0  0  0
    2.1769  -10.1260    8.3782 H   0  0  0  0  0  0  0  0  0  0  0  0
    0.8030   -9.5057    9.2389 H   0  0  0  0  0  0  0  0  0  0  0  0
    0.3367   -8.6228    3.7449 H   0  0  0  0  0  0  0  0  0  0  0  0
   -0.6151   -7.9969    5.0910 H   0  0  0  0  0  0  0  0  0  0  0  0
   -0.5468   -9.7004    4.7300 H   0  0  0  0  0  0  0  0  0  0  0  0
    2.6539   -9.9529    4.3585 H   0  0  0  0  0  0  0  0  0  0  0  0
    1.5103  -11.0303    5.1236 H   0  0  0  0  0  0  0  0  0  0  0  0
    2.8582  -10.4413    6.0210 H   0  0  0  0  0  0  0  0  0  0  0  0
    2.7179   -5.5809    8.3090 H   0  0  0  0  0  0  0  0  0  0  0  0
    4.3399   -6.0648    8.0903 H   0  0  0  0  0  0  0  0  0  0  0  0
    2.5605   -4.5454    6.3326 H   0  0  0  0  0  0  0  0  0  0  0  0
    4.2493   -4.2949    6.6171 H   0  0  0  0  0  0  0  0  0  0  0  0
    5.4871   -6.5922    6.2286 H   0  0  0  0  0  0  0  0  0  0  0  0
    6.0440   -5.7520    4.8905 H   0  0  0  0  0  0  0  0  0  0  0  0
    5.3789   -7.3251    4.6572 H   0  0  0  0  0  0  0  0  0  0  0  0
    2.4482   -4.3675    1.3444 H   0  0  0  0  0  0  0  0  0  0  0  0
    3.8009   -5.7425   -0.3104 H   0  0  0  0  0  0  0  0  0  0  0  0
    2.7663   -4.5234   -0.7598 H   0  0  0  0  0  0  0  0  0  0  0  0
    5.4071   -4.0455   -0.2360 H   0  0  0  0  0  0  0  0  0  0  0  0
    4.1764   -0.5317   -2.3600 H   0  0  0  0  0  0  0  0  0  0  0  0
    6.3510   -3.1954   -2.4292 H   0  0  0  0  0  0  0  0  0  0  0  0
  1  2  1  0
  1 39  1  0
  1 40  1  0
  1 41  1  0
  2 38  1  0
  2  3  1  0
  2 42  1  6
  3  4  1  0
  3 43  1  0
  3 44  1  0
  4  5  1  0
  4  6  1  0
  4 45  1  1
  5 46  1  0
  6 36  1  0
  6  7  2  3
  7  8  1  0
  7 47  1  0
  8 32  1  0
  8  9  2  0
  9 10  1  0
  9 48  1  0
 10 11  1  0
 10 49  1  0
 10 50  1  0
 11 30  1  0
 11 12  1  0
 11 51  1  1
 12 13  1  6
 12 14  1  0
 12 32  1  0
 13 52  1  0
 13 53  1  0
 13 54  1  0
 14 15  1  0
 14 55  1  0
 14 56  1  0
 15 16  1  0
 15 57  1  0
 15 58  1  0
 16 30  1  0
 16 17  1  6
 16 18  1  0
 17 59  1  0
 17 60  1  0
 17 61  1  0
 18 25  1  0
 18 19  1  0
 18 62  1  1
 19 20  1  6
 19 21  1  0
 19 28  1  0
 20 63  1  0
 20 64  1  0
 20 65  1  0
 21 22  1  0
 21 66  1  0
 21 67  1  0
 22 23  1  0
 22 68  1  0
 22 69  1  0
 23 24  2  0
 23 25  1  0
 25 26  1  0
 25 27  1  0
 26 70  1  0
 26 71  1  0
 26 72  1  0
 27 73  1  0
 27 74  1  0
 27 75  1  0
 28 29  1  0
 28 76  1  0
 28 77  1  0
 29 30  1  0
 29 78  1  0
 29 79  1  0
 30 31  1  1
 31 80  1  0
 31 81  1  0
 31 82  1  0
 32 33  1  0
 32 83  1  1
 33 34  1  0
 33 84  1  0
 33 85  1  0
 34 38  1  0
 34 35  1  0
 34 86  1  6
 35 36  1  0
 36 37  1  6
 36 38  1  0
 37 87  1  0
 38 88  1  6
M  END
>  <i_m_ct_stereo_status>  (268) 
1

>  <s_m_source_file>  (268) 
/var/tmp/pbs.5076255.sched01/tmpy0mqr2dw/78t3ouse6d.sdf

>  <i_m_source_file_index>  (268) 
32

>  <i_lp_mmshare_version>  (268) 
48012

>  <i_f3d_flags>  (268) 
0

>  <s_epik_input>  (268) 
W0NIM11bQ0BASF0xW0NIMl1bQ0BASF0oW09IXSkvQyg9W0NIXS8yKVtDQEBdKE8zKShbT0hdKVtDQEBIXTFbQ0BASF0zW0NIMl1bQ0BASF00QzI9W0NIXVtDSDJdW0NASF0oW0NAXTQ1W0NIM10pW0NAXTYoW0NIM10pW0NAQF0oW0NIM10pKFtDSDJdW0NIMl01KVtDQEBIXTdbQ0BAXShbQ0gzXSkoW0NIMl1bQ0gyXTYpW0NIMl1bQ0gyXUMoPU8pQzcoW0NIM10pW0NIM10=

>  <s_epik_cmdline>  (268) 
J2VwaWtfcHl0aG9uJywgJy1waHQnLCAnMi4wJywgJy1waCcsICc3LjAnLCAnLXRuJywgJzgnLCAnLW1hJywgJzIwMCcsICctaW1hZScsICc8aW5maWxlLm1hZT4nLCAnLW9tYWUnLCAnPG91dGZpbGUubWFlPic=

>  <r_lp_tautomer_probability>  (268) 
1

>  <r_epik_Ionization_Penalty>  (268) 
3.32206e-06

>  <r_epik_Ionization_Penalty_Charging>  (268) 
0

>  <r_epik_Ionization_Penalty_Neutral>  (268) 
3.32206e-06

>  <r_epik_State_Penalty>  (268) 
-0

>  <r_epik_Charging_Adjusted_Penalty>  (268) 
0

>  <i_epik_Tot_Q>  (268) 
0

>  <i_epik_Tot_abs_Q>  (268) 
0

>  <s_lp_Force_Field>  (268) 
OPLS3e

>  <r_lp_Energy>  (268) 
241.334

>  <b_lp_Chiralities_Consistent>  (268) 
1

>  <s_lp_Variant>  (268) 
81:0-2

>  <s_i_glide_gridfile>  (268) 
pfpi4k_grid

>  <i_i_glide_lignum>  (268) 
32

>  <i_i_glide_rotatable_bonds>  (268) 
2

>  <r_i_docking_score>  (268) 
-2.34703

>  <r_i_glide_ligand_efficiency>  (268) 
-0.061764

>  <r_i_glide_ligand_efficiency_sa>  (268) 
-0.207649

>  <r_i_glide_ligand_efficiency_ln>  (268) 
-0.506089

>  <r_i_glide_gscore>  (268) 
-2.34703

>  <r_i_glide_lipo>  (268) 
-0.378995

>  <r_i_glide_hbond>  (268) 
0

>  <r_i_glide_metal>  (268) 
-0

>  <r_i_glide_rewards>  (268) 
0

>  <r_i_glide_evdw>  (268) 
-20.8061

>  <r_i_glide_ecoul>  (268) 
-5.45158

>  <r_i_glide_erotb>  (268) 
0

>  <r_i_glide_esite>  (268) 
-0.109998

>  <r_i_glide_emodel>  (268) 
-28.5686

>  <r_i_glide_energy>  (268) 
-26.2576

>  <r_i_glide_einternal>  (268) 
1.25458

>  <r_i_glide_intrahb_reward>  (268) 
-0

>  <i_i_glide_confnum>  (268) 
2

>  <i_i_glide_posenum>  (268) 
2

>  <r_i_glide_eff_state_penalty>  (268) 
0

>  <ligand_id>  (268) 
81

>  <original_smiles>  (268) 
CC1CC(O)C2=CC3=CCC4C(C)(CCC5(C)C6C(C)(CCC(=O)C6(C)C)CCC45C)C3CC3OC2(O)C13

>  <smiles>  (268) 
[H]OC1([H])C2=C([H])C3=C([H])C([H])([H])C4([H])C(C([H])([H])[H])(C([H])([H])C([H])([H])C5(C([H])([H])[H])C6([H])C(C([H])([H])[H])(C([H])([H])[H])C(=O)C([H])([H])C([H])([H])C6(C([H])([H])[H])C([H])([H])C([H])([H])C45C([H])([H])[H])C3([H])C([H])([H])C3([H])OC2(O[H])C3([H])C([H])(C([H])([H])[H])C1([H])[H]

$$$$
81:1:1
     RDKit          3D

 88 94  0  0  1  0  0  0  0  0999 V2000
    6.9521   -4.3153    0.8716 C   0  0  0  0  0  0  0  0  0  0  0  0
    5.9320   -3.1932    0.5804 C   0  0  2  0  0  0  0  0  0  0  0  0
    5.7379   -2.2837    1.8079 C   0  0  0  0  0  0  0  0  0  0  0  0
    4.6120   -1.2689    1.6386 C   0  0  1  0  0  0  0  0  0  0  0  0
    5.0299   -0.2768    0.7144 O   0  0  0  0  0  0  0  0  0  0  0  0
    3.2970   -1.8970    1.1916 C   0  0  0  0  0  0  0  0  0  0  0  0
    2.2998   -2.2081    2.0390 C   0  0  0  0  0  0  0  0  0  0  0  0
    2.6116   -2.8985    3.2695 C   0  0  0  0  0  0  0  0  0  0  0  0
    2.6741   -2.2161    4.4171 C   0  0  0  0  0  0  0  0  0  0  0  0
    2.8136   -2.8799    5.7658 C   0  0  0  0  0  0  0  0  0  0  0  0
    3.5899   -4.2235    5.7348 C   0  0  2  0  0  0  0  0  0  0  0  0
    3.4490   -5.1451    4.4357 C   0  0  1  0  0  0  0  0  0  0  0  0
    4.8676   -5.5160    3.9398 C   0  0  0  0  0  0  0  0  0  0  0  0
    2.7088   -6.4987    4.7199 C   0  0  0  0  0  0  0  0  0  0  0  0
    2.7741   -7.1071    6.1384 C   0  0  0  0  0  0  0  0  0  0  0  0
    2.4945   -6.0736    7.2605 C   0  0  1  0  0  0  0  0  0  0  0  0
    1.1169   -5.4029    6.8870 C   0  0  0  0  0  0  0  0  0  0  0  0
    2.2646   -6.6616    8.7543 C   0  0  2  0  0  0  0  0  0  0  0  0
    3.3485   -6.2749    9.8269 C   0  0  2  0  0  0  0  0  0  0  0  0
    4.6214   -7.1640    9.7642 C   0  0  0  0  0  0  0  0  0  0  0  0
    2.7470   -6.4508   11.2537 C   0  0  0  0  0  0  0  0  0  0  0  0
    2.2041   -7.8593   11.5393 C   0  0  0  0  0  0  0  0  0  0  0  0
    1.1977   -8.2665   10.4841 C   0  0  0  0  0  0  0  0  0  0  0  0
    0.1209   -8.7577   10.8531 O   0  0  0  0  0  0  0  0  0  0  0  0
    1.5630   -8.0922    8.9889 C   0  0  0  0  0  0  0  0  0  0  0  0
    0.2209   -8.2338    8.2170 C   0  0  0  0  0  0  0  0  0  0  0  0
    2.4519   -9.3109    8.6206 C   0  0  0  0  0  0  0  0  0  0  0  0
    3.6963   -4.7513    9.7297 C   0  0  0  0  0  0  0  0  0  0  0  0
    3.5446   -4.0561    8.3527 C   0  0  0  0  0  0  0  0  0  0  0  0
    3.6667   -4.9918    7.1276 C   0  0  2  0  0  0  0  0  0  0  0  0
    5.1543   -5.5287    7.1928 C   0  0  0  0  0  0  0  0  0  0  0  0
    2.6635   -4.4239    3.2574 C   0  0  2  0  0  0  0  0  0  0  0  0
    2.6570   -5.1568    1.8335 C   0  0  0  0  0  0  0  0  0  0  0  0
    3.5985   -4.7563    0.6304 C   0  0  2  0  0  0  0  0  0  0  0  0
    2.5592   -3.9449    0.0210 O   0  0  0  0  0  0  0  0  0  0  0  0
    3.3945   -2.7775   -0.0637 C   0  0  1  0  0  0  0  0  0  0  0  0
    3.2182   -1.9774   -1.2425 O   0  0  0  0  0  0  0  0  0  0  0  0
    4.5864   -3.6895    0.0122 C   0  0  1  0  0  0  0  0  0  0  0  0
    6.6081   -5.0059    1.6376 H   0  0  0  0  0  0  0  0  0  0  0  0
    7.8926   -3.8839    1.2242 H   0  0  0  0  0  0  0  0  0  0  0  0
    7.1778   -4.8919   -0.0171 H   0  0  0  0  0  0  0  0  0  0  0  0
    6.3927   -2.5715   -0.1822 H   0  0  0  0  0  0  0  0  0  0  0  0
    5.4927   -2.8850    2.6756 H   0  0  0  0  0  0  0  0  0  0  0  0
    6.6578   -1.7637    2.0504 H   0  0  0  0  0  0  0  0  0  0  0  0
    4.4433   -0.7458    2.5800 H   0  0  0  0  0  0  0  0  0  0  0  0
    4.3245    0.3211    0.5715 H   0  0  0  0  0  0  0  0  0  0  0  0
    1.4251   -2.6237    1.5911 H   0  0  0  0  0  0  0  0  0  0  0  0
    2.5368   -1.1489    4.4231 H   0  0  0  0  0  0  0  0  0  0  0  0
    3.3654   -2.1677    6.3832 H   0  0  0  0  0  0  0  0  0  0  0  0
    1.8244   -2.9391    6.2147 H   0  0  0  0  0  0  0  0  0  0  0  0
    4.5664   -3.7579    5.5916 H   0  0  0  0  0  0  0  0  0  0  0  0
    4.8615   -6.0551    2.9971 H   0  0  0  0  0  0  0  0  0  0  0  0
    5.3872   -6.1705    4.6353 H   0  0  0  0  0  0  0  0  0  0  0  0
    5.5030   -4.6476    3.8060 H   0  0  0  0  0  0  0  0  0  0  0  0
    1.6610   -6.4442    4.4557 H   0  0  0  0  0  0  0  0  0  0  0  0
    3.0872   -7.2724    4.0376 H   0  0  0  0  0  0  0  0  0  0  0  0
    2.0439   -7.9003    6.1377 H   0  0  0  0  0  0  0  0  0  0  0  0
    3.7031   -7.6409    6.2899 H   0  0  0  0  0  0  0  0  0  0  0  0
    0.7921   -4.6505    7.6062 H   0  0  0  0  0  0  0  0  0  0  0  0
    0.3073   -6.1211    6.8007 H   0  0  0  0  0  0  0  0  0  0  0  0
    1.1022   -4.9091    5.9200 H   0  0  0  0  0  0  0  0  0  0  0  0
    1.4642   -6.0154    9.1170 H   0  0  0  0  0  0  0  0  0  0  0  0
    5.5218   -6.6354   10.0683 H   0  0  0  0  0  0  0  0  0  0  0  0
    4.7851   -7.5742    8.7714 H   0  0  0  0  0  0  0  0  0  0  0  0
    4.5894   -8.0245   10.4232 H   0  0  0  0  0  0  0  0  0  0  0  0
    3.4767   -6.1767   12.0132 H   0  0  0  0  0  0  0  0  0  0  0  0
    1.9075   -5.7576   11.3881 H   0  0  0  0  0  0  0  0  0  0  0  0
    3.0020   -8.6011   11.5823 H   0  0  0  0  0  0  0  0  0  0  0  0
    1.7296   -7.8724   12.5197 H   0  0  0  0  0  0  0  0  0  0  0  0
    0.3149   -8.2772    7.1390 H   0  0  0  0  0  0  0  0  0  0  0  0
   -0.4561   -7.4077    8.4645 H   0  0  0  0  0  0  0  0  0  0  0  0
   -0.3037   -9.1549    8.4683 H   0  0  0  0  0  0  0  0  0  0  0  0
    2.8050   -9.3098    7.5968 H   0  0  0  0  0  0  0  0  0  0  0  0
    1.9019  -10.2440    8.7528 H   0  0  0  0  0  0  0  0  0  0  0  0
    3.3320   -9.3997    9.2605 H   0  0  0  0  0  0  0  0  0  0  0  0
    3.1305   -4.1719   10.4444 H   0  0  0  0  0  0  0  0  0  0  0  0
    4.7352   -4.5988   10.0700 H   0  0  0  0  0  0  0  0  0  0  0  0
    2.5458   -3.5959    8.3591 H   0  0  0  0  0  0  0  0  0  0  0  0
    4.2380   -3.2288    8.2863 H   0  0  0  0  0  0  0  0  0  0  0  0
    5.5996   -5.4739    8.1795 H   0  0  0  0  0  0  0  0  0  0  0  0
    5.8595   -4.9290    6.6169 H   0  0  0  0  0  0  0  0  0  0  0  0
    5.3071   -6.5476    6.8429 H   0  0  0  0  0  0  0  0  0  0  0  0
    1.6202   -4.5591    3.5518 H   0  0  0  0  0  0  0  0  0  0  0  0
    2.8154   -6.2108    2.0155 H   0  0  0  0  0  0  0  0  0  0  0  0
    1.6234   -5.1884    1.5072 H   0  0  0  0  0  0  0  0  0  0  0  0
    4.2362   -4.4579    1.4525 H   0  0  0  0  0  0  0  0  0  0  0  0
    2.3677   -1.5670   -1.1260 H   0  0  0  0  0  0  0  0  0  0  0  0
    4.7641   -4.0625   -1.0166 H   0  0  0  0  0  0  0  0  0  0  0  0
  1  2  1  0
  1 39  1  0
  1 40  1  0
  1 41  1  0
  2 38  1  0
  2  3  1  0
  2 42  1  6
  3  4  1  0
  3 43  1  0
  3 44  1  0
  4  5  1  0
  4  6  1  0
  4 45  1  1
  5 46  1  0
  6 36  1  0
  6  7  2  3
  7  8  1  0
  7 47  1  0
  8 32  1  0
  8  9  2  0
  9 10  1  0
  9 48  1  0
 10 11  1  0
 10 49  1  0
 10 50  1  0
 11 30  1  0
 11 12  1  0
 11 51  1  6
 12 13  1  6
 12 14  1  0
 12 32  1  0
 13 52  1  0
 13 53  1  0
 13 54  1  0
 14 15  1  0
 14 55  1  0
 14 56  1  0
 15 16  1  0
 15 57  1  0
 15 58  1  0
 16 30  1  0
 16 17  1  6
 16 18  1  0
 17 59  1  0
 17 60  1  0
 17 61  1  0
 18 25  1  0
 18 19  1  0
 18 62  1  1
 19 20  1  1
 19 21  1  0
 19 28  1  0
 20 63  1  0
 20 64  1  0
 20 65  1  0
 21 22  1  0
 21 66  1  0
 21 67  1  0
 22 23  1  0
 22 68  1  0
 22 69  1  0
 23 24  2  0
 23 25  1  0
 25 26  1  0
 25 27  1  0
 26 70  1  0
 26 71  1  0
 26 72  1  0
 27 73  1  0
 27 74  1  0
 27 75  1  0
 28 29  1  0
 28 76  1  0
 28 77  1  0
 29 30  1  0
 29 78  1  0
 29 79  1  0
 30 31  1  1
 31 80  1  0
 31 81  1  0
 31 82  1  0
 32 33  1  0
 32 83  1  1
 33 34  1  0
 33 84  1  0
 33 85  1  0
 34 38  1  0
 34 35  1  0
 34 86  1  6
 35 36  1  0
 36 37  1  6
 36 38  1  0
 37 87  1  0
 38 88  1  6
M  END
>  <i_m_ct_stereo_status>  (269) 
1

>  <s_m_source_file>  (269) 
/var/tmp/pbs.5076255.sched01/tmpy0mqr2dw/78t3ouse6d.sdf

>  <i_m_source_file_index>  (269) 
32

>  <i_lp_mmshare_version>  (269) 
48012

>  <i_f3d_flags>  (269) 
0

>  <s_epik_input>  (269) 
W0NIM11bQ0BASF0xW0NIMl1bQ0BASF0oW09IXSkvQyg9W0NIXS8yKVtDQEBdKE8zKShbT0hdKVtDQEBIXTFbQ0BASF0zW0NIMl1bQ0BASF00QzI9W0NIXVtDSDJdW0NASF0oW0NAXTQ1W0NIM10pW0NAXTYoW0NIM10pW0NAQF0oW0NIM10pKFtDSDJdW0NIMl01KVtDQEBIXTdbQ0BAXShbQ0gzXSkoW0NIMl1bQ0gyXTYpW0NIMl1bQ0gyXUMoPU8pQzcoW0NIM10pW0NIM10=

>  <s_epik_cmdline>  (269) 
J2VwaWtfcHl0aG9uJywgJy1waHQnLCAnMi4wJywgJy1waCcsICc3LjAnLCAnLXRuJywgJzgnLCAnLW1hJywgJzIwMCcsICctaW1hZScsICc8aW5maWxlLm1hZT4nLCAnLW9tYWUnLCAnPG91dGZpbGUubWFlPic=

>  <r_lp_tautomer_probability>  (269) 
1

>  <r_epik_Ionization_Penalty>  (269) 
3.32206e-06

>  <r_epik_Ionization_Penalty_Charging>  (269) 
0

>  <r_epik_Ionization_Penalty_Neutral>  (269) 
3.32206e-06

>  <r_epik_State_Penalty>  (269) 
-0

>  <r_epik_Charging_Adjusted_Penalty>  (269) 
0

>  <i_epik_Tot_Q>  (269) 
0

>  <i_epik_Tot_abs_Q>  (269) 
0

>  <s_lp_Force_Field>  (269) 
OPLS3e

>  <r_lp_Energy>  (269) 
241.334

>  <b_lp_Chiralities_Consistent>  (269) 
1

>  <s_lp_Variant>  (269) 
81:0-2

>  <s_i_glide_gridfile>  (269) 
pfpi4k_grid

>  <i_i_glide_lignum>  (269) 
32

>  <i_i_glide_rotatable_bonds>  (269) 
2

>  <r_i_docking_score>  (269) 
-2.24291

>  <r_i_glide_ligand_efficiency>  (269) 
-0.0590239

>  <r_i_glide_ligand_efficiency_sa>  (269) 
-0.198437

>  <r_i_glide_ligand_efficiency_ln>  (269) 
-0.483637

>  <r_i_glide_gscore>  (269) 
-2.24291

>  <r_i_glide_lipo>  (269) 
-0.336455

>  <r_i_glide_hbond>  (269) 
0

>  <r_i_glide_metal>  (269) 
-0

>  <r_i_glide_rewards>  (269) 
0

>  <r_i_glide_evdw>  (269) 
-23.8017

>  <r_i_glide_ecoul>  (269) 
-4.55481

>  <r_i_glide_erotb>  (269) 
0

>  <r_i_glide_esite>  (269) 
-0.0331479

>  <r_i_glide_emodel>  (269) 
-31.9983

>  <r_i_glide_energy>  (269) 
-28.3565

>  <r_i_glide_einternal>  (269) 
1.08784

>  <r_i_glide_intrahb_reward>  (269) 
-0

>  <i_i_glide_confnum>  (269) 
1

>  <i_i_glide_posenum>  (269) 
21

>  <r_i_glide_eff_state_penalty>  (269) 
0

>  <ligand_id>  (269) 
81

>  <original_smiles>  (269) 
CC1CC(O)C2=CC3=CCC4C(C)(CCC5(C)C6C(C)(CCC(=O)C6(C)C)CCC45C)C3CC3OC2(O)C13

>  <smiles>  (269) 
[H]OC1([H])C2=C([H])C3=C([H])C([H])([H])C4([H])C(C([H])([H])[H])(C([H])([H])C([H])([H])C5(C([H])([H])[H])C6([H])C(C([H])([H])[H])(C([H])([H])[H])C(=O)C([H])([H])C([H])([H])C6(C([H])([H])[H])C([H])([H])C([H])([H])C45C([H])([H])[H])C3([H])C([H])([H])C3([H])OC2(O[H])C3([H])C([H])(C([H])([H])[H])C1([H])[H]

$$$$
81:1:2
     RDKit          3D

 88 94  0  0  1  0  0  0  0  0999 V2000
    8.1256   -3.9703   -0.1911 C   0  0  0  0  0  0  0  0  0  0  0  0
    7.1771   -2.7783   -0.4406 C   0  0  2  0  0  0  0  0  0  0  0  0
    6.7591   -2.1355    0.8833 C   0  0  0  0  0  0  0  0  0  0  0  0
    5.6721   -1.0882    0.7666 C   0  0  1  0  0  0  0  0  0  0  0  0
    6.2892   -0.0435    0.1048 O   0  0  0  0  0  0  0  0  0  0  0  0
    4.4731   -1.5054   -0.0406 C   0  0  0  0  0  0  0  0  0  0  0  0
    3.3364   -1.9037    0.5140 C   0  0  0  0  0  0  0  0  0  0  0  0
    3.4155   -2.8161    1.6300 C   0  0  0  0  0  0  0  0  0  0  0  0
    3.2829   -2.3765    2.8809 C   0  0  0  0  0  0  0  0  0  0  0  0
    3.1576   -3.2928    4.0706 C   0  0  0  0  0  0  0  0  0  0  0  0
    3.8927   -4.6522    3.9034 C   0  0  2  0  0  0  0  0  0  0  0  0
    3.9763   -5.2911    2.4384 C   0  0  1  0  0  0  0  0  0  0  0  0
    5.4571   -5.6403    2.1402 C   0  0  0  0  0  0  0  0  0  0  0  0
    3.1637   -6.6268    2.3030 C   0  0  0  0  0  0  0  0  0  0  0  0
    2.9487   -7.5036    3.5566 C   0  0  0  0  0  0  0  0  0  0  0  0
    2.4888   -6.6880    4.7925 C   0  0  1  0  0  0  0  0  0  0  0  0
    1.2208   -5.8800    4.3228 C   0  0  0  0  0  0  0  0  0  0  0  0
    1.9720   -7.5452    6.0654 C   0  0  2  0  0  0  0  0  0  0  0  0
    2.8360   -7.4439    7.3780 C   0  0  2  0  0  0  0  0  0  0  0  0
    4.0767   -8.3836    7.3618 C   0  0  0  0  0  0  0  0  0  0  0  0
    1.9763   -7.8604    8.6042 C   0  0  0  0  0  0  0  0  0  0  0  0
    1.3604   -9.2552    8.4911 C   0  0  0  0  0  0  0  0  0  0  0  0
    0.5578   -9.3666    7.2084 C   0  0  0  0  0  0  0  0  0  0  0  0
   -0.5845   -9.7874    7.2758 O   0  0  0  0  0  0  0  0  0  0  0  0
    1.2129   -8.9414    5.8643 C   0  0  0  0  0  0  0  0  0  0  0  0
    0.0400   -8.8443    4.8525 C   0  0  0  0  0  0  0  0  0  0  0  0
    2.1209  -10.1258    5.4291 C   0  0  0  0  0  0  0  0  0  0  0  0
    3.2315   -5.9568    7.6579 C   0  0  0  0  0  0  0  0  0  0  0  0
    3.3610   -5.0005    6.4493 C   0  0  0  0  0  0  0  0  0  0  0  0
    3.6920   -5.6819    5.1002 C   0  0  2  0  0  0  0  0  0  0  0  0
    5.1242   -6.3116    5.3183 C   0  0  0  0  0  0  0  0  0  0  0  0
    3.4482   -4.3089    1.3153 C   0  0  2  0  0  0  0  0  0  0  0  0
    3.6860   -4.7271   -0.1994 C   0  0  0  0  0  0  0  0  0  0  0  0
    4.8555   -4.1786   -1.1116 C   0  0  2  0  0  0  0  0  0  0  0  0
    3.9623   -3.1912   -1.7488 O   0  0  0  0  0  0  0  0  0  0  0  0
    4.8102   -2.0845   -1.4133 C   0  0  1  0  0  0  0  0  0  0  0  0
    4.8908   -1.0758   -2.4009 O   0  0  0  0  0  0  0  0  0  0  0  0
    5.9518   -3.0705   -1.3321 C   0  0  1  0  0  0  0  0  0  0  0  0
    7.6334   -4.7969    0.3224 H   0  0  0  0  0  0  0  0  0  0  0  0
    8.9693   -3.6683    0.4272 H   0  0  0  0  0  0  0  0  0  0  0  0
    8.5608   -4.3319   -1.1202 H   0  0  0  0  0  0  0  0  0  0  0  0
    7.7972   -2.0539   -0.9574 H   0  0  0  0  0  0  0  0  0  0  0  0
    6.4081   -2.8727    1.5887 H   0  0  0  0  0  0  0  0  0  0  0  0
    7.6514   -1.6476    1.2595 H   0  0  0  0  0  0  0  0  0  0  0  0
    5.3746   -0.7041    1.7482 H   0  0  0  0  0  0  0  0  0  0  0  0
    5.6751    0.6482   -0.1066 H   0  0  0  0  0  0  0  0  0  0  0  0
    2.5657   -2.1742   -0.1875 H   0  0  0  0  0  0  0  0  0  0  0  0
    3.1723   -1.3169    3.0832 H   0  0  0  0  0  0  0  0  0  0  0  0
    3.5983   -2.7535    4.9048 H   0  0  0  0  0  0  0  0  0  0  0  0
    2.1016   -3.3805    4.3134 H   0  0  0  0  0  0  0  0  0  0  0  0
    4.8860   -4.2313    4.0358 H   0  0  0  0  0  0  0  0  0  0  0  0
    5.6128   -5.9845    1.1178 H   0  0  0  0  0  0  0  0  0  0  0  0
    5.8206   -6.4472    2.7701 H   0  0  0  0  0  0  0  0  0  0  0  0
    6.1258   -4.8038    2.3023 H   0  0  0  0  0  0  0  0  0  0  0  0
    2.1795   -6.4509    1.8677 H   0  0  0  0  0  0  0  0  0  0  0  0
    3.6489   -7.2652    1.5643 H   0  0  0  0  0  0  0  0  0  0  0  0
    2.2115   -8.2360    3.2576 H   0  0  0  0  0  0  0  0  0  0  0  0
    3.8195   -8.1129    3.7615 H   0  0  0  0  0  0  0  0  0  0  0  0
    0.7814   -5.2670    5.1102 H   0  0  0  0  0  0  0  0  0  0  0  0
    0.4258   -6.5144    3.9475 H   0  0  0  0  0  0  0  0  0  0  0  0
    1.3988   -5.2055    3.4922 H   0  0  0  0  0  0  0  0  0  0  0  0
    1.1303   -6.9404    6.4043 H   0  0  0  0  0  0  0  0  0  0  0  0
    4.9206   -7.9816    7.9273 H   0  0  0  0  0  0  0  0  0  0  0  0
    4.4133   -8.6009    6.3531 H   0  0  0  0  0  0  0  0  0  0  0  0
    3.8997   -9.3536    7.8168 H   0  0  0  0  0  0  0  0  0  0  0  0
    2.5534   -7.7871    9.5299 H   0  0  0  0  0  0  0  0  0  0  0  0
    1.1427   -7.1627    8.7199 H   0  0  0  0  0  0  0  0  0  0  0  0
    2.1071  -10.0479    8.5226 H   0  0  0  0  0  0  0  0  0  0  0  0
    0.7034   -9.4457    9.3408 H   0  0  0  0  0  0  0  0  0  0  0  0
    0.3248   -8.6830    3.8209 H   0  0  0  0  0  0  0  0  0  0  0  0
   -0.6667   -8.0608    5.1451 H   0  0  0  0  0  0  0  0  0  0  0  0
   -0.5394   -9.7658    4.8115 H   0  0  0  0  0  0  0  0  0  0  0  0
    2.6644   -9.9490    4.5084 H   0  0  0  0  0  0  0  0  0  0  0  0
    1.5300  -11.0331    5.2798 H   0  0  0  0  0  0  0  0  0  0  0  0
    2.8485  -10.3960    6.1883 H   0  0  0  0  0  0  0  0  0  0  0  0
    2.5441   -5.4942    8.3716 H   0  0  0  0  0  0  0  0  0  0  0  0
    4.1846   -5.9427    8.1875 H   0  0  0  0  0  0  0  0  0  0  0  0
    2.3966   -4.5037    6.3691 H   0  0  0  0  0  0  0  0  0  0  0  0
    4.0750   -4.2066    6.6772 H   0  0  0  0  0  0  0  0  0  0  0  0
    5.3731   -6.4777    6.3582 H   0  0  0  0  0  0  0  0  0  0  0  0
    5.9332   -5.6522    5.0136 H   0  0  0  0  0  0  0  0  0  0  0  0
    5.3118   -7.2455    4.8025 H   0  0  0  0  0  0  0  0  0  0  0  0
    2.3701   -4.4336    1.3807 H   0  0  0  0  0  0  0  0  0  0  0  0
    3.7829   -5.8077   -0.2210 H   0  0  0  0  0  0  0  0  0  0  0  0
    2.7274   -4.6236   -0.7111 H   0  0  0  0  0  0  0  0  0  0  0  0
    5.3460   -4.0644   -0.1515 H   0  0  0  0  0  0  0  0  0  0  0  0
    4.0000   -0.8850   -2.6442 H   0  0  0  0  0  0  0  0  0  0  0  0
    6.3031   -3.2447   -2.3558 H   0  0  0  0  0  0  0  0  0  0  0  0
  1  2  1  0
  1 39  1  0
  1 40  1  0
  1 41  1  0
  2 38  1  0
  2  3  1  0
  2 42  1  6
  3  4  1  0
  3 43  1  0
  3 44  1  0
  4  5  1  0
  4  6  1  0
  4 45  1  1
  5 46  1  0
  6 36  1  0
  6  7  2  3
  7  8  1  0
  7 47  1  0
  8 32  1  0
  8  9  2  0
  9 10  1  0
  9 48  1  0
 10 11  1  0
 10 49  1  0
 10 50  1  0
 11 30  1  0
 11 12  1  0
 11 51  1  1
 12 13  1  6
 12 14  1  0
 12 32  1  0
 13 52  1  0
 13 53  1  0
 13 54  1  0
 14 15  1  0
 14 55  1  0
 14 56  1  0
 15 16  1  0
 15 57  1  0
 15 58  1  0
 16 30  1  0
 16 17  1  6
 16 18  1  0
 17 59  1  0
 17 60  1  0
 17 61  1  0
 18 25  1  0
 18 19  1  0
 18 62  1  1
 19 20  1  6
 19 21  1  0
 19 28  1  0
 20 63  1  0
 20 64  1  0
 20 65  1  0
 21 22  1  0
 21 66  1  0
 21 67  1  0
 22 23  1  0
 22 68  1  0
 22 69  1  0
 23 24  2  0
 23 25  1  0
 25 26  1  0
 25 27  1  0
 26 70  1  0
 26 71  1  0
 26 72  1  0
 27 73  1  0
 27 74  1  0
 27 75  1  0
 28 29  1  0
 28 76  1  0
 28 77  1  0
 29 30  1  0
 29 78  1  0
 29 79  1  0
 30 31  1  1
 31 80  1  0
 31 81  1  0
 31 82  1  0
 32 33  1  0
 32 83  1  6
 33 34  1  0
 33 84  1  0
 33 85  1  0
 34 38  1  0
 34 35  1  0
 34 86  1  6
 35 36  1  0
 36 37  1  6
 36 38  1  0
 37 87  1  0
 38 88  1  6
M  END
>  <i_m_ct_stereo_status>  (270) 
1

>  <s_m_source_file>  (270) 
/var/tmp/pbs.5076255.sched01/tmpy0mqr2dw/78t3ouse6d.sdf

>  <i_m_source_file_index>  (270) 
32

>  <i_lp_mmshare_version>  (270) 
48012

>  <i_f3d_flags>  (270) 
0

>  <s_epik_input>  (270) 
W0NIM11bQ0BASF0xW0NIMl1bQ0BASF0oW09IXSkvQyg9W0NIXS8yKVtDQEBdKE8zKShbT0hdKVtDQEBIXTFbQ0BASF0zW0NIMl1bQ0BASF00QzI9W0NIXVtDSDJdW0NASF0oW0NAXTQ1W0NIM10pW0NAXTYoW0NIM10pW0NAQF0oW0NIM10pKFtDSDJdW0NIMl01KVtDQEBIXTdbQ0BAXShbQ0gzXSkoW0NIMl1bQ0gyXTYpW0NIMl1bQ0gyXUMoPU8pQzcoW0NIM10pW0NIM10=

>  <s_epik_cmdline>  (270) 
J2VwaWtfcHl0aG9uJywgJy1waHQnLCAnMi4wJywgJy1waCcsICc3LjAnLCAnLXRuJywgJzgnLCAnLW1hJywgJzIwMCcsICctaW1hZScsICc8aW5maWxlLm1hZT4nLCAnLW9tYWUnLCAnPG91dGZpbGUubWFlPic=

>  <r_lp_tautomer_probability>  (270) 
1

>  <r_epik_Ionization_Penalty>  (270) 
3.32206e-06

>  <r_epik_Ionization_Penalty_Charging>  (270) 
0

>  <r_epik_Ionization_Penalty_Neutral>  (270) 
3.32206e-06

>  <r_epik_State_Penalty>  (270) 
-0

>  <r_epik_Charging_Adjusted_Penalty>  (270) 
0

>  <i_epik_Tot_Q>  (270) 
0

>  <i_epik_Tot_abs_Q>  (270) 
0

>  <s_lp_Force_Field>  (270) 
OPLS3e

>  <r_lp_Energy>  (270) 
241.334

>  <b_lp_Chiralities_Consistent>  (270) 
1

>  <s_lp_Variant>  (270) 
81:0-2

>  <s_i_glide_gridfile>  (270) 
pfpi4k_grid

>  <i_i_glide_lignum>  (270) 
32

>  <i_i_glide_rotatable_bonds>  (270) 
2

>  <r_i_docking_score>  (270) 
-2.22366

>  <r_i_glide_ligand_efficiency>  (270) 
-0.0585173

>  <r_i_glide_ligand_efficiency_sa>  (270) 
-0.196734

>  <r_i_glide_ligand_efficiency_ln>  (270) 
-0.479486

>  <r_i_glide_gscore>  (270) 
-2.22366

>  <r_i_glide_lipo>  (270) 
-0.417976

>  <r_i_glide_hbond>  (270) 
0

>  <r_i_glide_metal>  (270) 
-0

>  <r_i_glide_rewards>  (270) 
0

>  <r_i_glide_evdw>  (270) 
-21.3129

>  <r_i_glide_ecoul>  (270) 
-4.20586

>  <r_i_glide_erotb>  (270) 
0

>  <r_i_glide_esite>  (270) 
-0.109156

>  <r_i_glide_emodel>  (270) 
-28.6649

>  <r_i_glide_energy>  (270) 
-25.5188

>  <r_i_glide_einternal>  (270) 
0.931352

>  <r_i_glide_intrahb_reward>  (270) 
-0

>  <i_i_glide_confnum>  (270) 
2

>  <i_i_glide_posenum>  (270) 
33

>  <r_i_glide_eff_state_penalty>  (270) 
0

>  <ligand_id>  (270) 
81

>  <original_smiles>  (270) 
CC1CC(O)C2=CC3=CCC4C(C)(CCC5(C)C6C(C)(CCC(=O)C6(C)C)CCC45C)C3CC3OC2(O)C13

>  <smiles>  (270) 
[H]OC1([H])C2=C([H])C3=C([H])C([H])([H])C4([H])C(C([H])([H])[H])(C([H])([H])C([H])([H])C5(C([H])([H])[H])C6([H])C(C([H])([H])[H])(C([H])([H])[H])C(=O)C([H])([H])C([H])([H])C6(C([H])([H])[H])C([H])([H])C([H])([H])C45C([H])([H])[H])C3([H])C([H])([H])C3([H])OC2(O[H])C3([H])C([H])(C([H])([H])[H])C1([H])[H]

$$$$
82:0:0
     RDKit          3D

 40 44  0  0  1  0  0  0  0  0999 V2000
    4.3396   -6.9280    0.8905 C   0  0  0  0  0  0  0  0  0  0  0  0
    4.9603   -5.8890    1.8404 C   0  0  2  0  0  0  0  0  0  0  0  0
    3.9580   -5.1162    2.4004 O   0  0  0  0  0  0  0  0  0  0  0  0
    4.3587   -4.3528    3.4263 C   0  0  0  0  0  0  0  0  0  0  0  0
    5.0116   -4.7593    4.3877 O   0  0  0  0  0  0  0  0  0  0  0  0
    3.9093   -2.9575    3.2437 C   0  0  0  0  0  0  0  0  0  0  0  0
    3.4084   -2.3356    4.4101 C   0  0  0  0  0  0  0  0  0  0  0  0
    2.8283   -1.0587    4.3605 C   0  0  0  0  0  0  0  0  0  0  0  0
    2.7313   -0.3961    3.1304 C   0  0  0  0  0  0  0  0  0  0  0  0
    3.2607   -0.9883    1.9720 C   0  0  0  0  0  0  0  0  0  0  0  0
    3.9165   -2.2560    1.9880 C   0  0  0  0  0  0  0  0  0  0  0  0
    4.5305   -2.7870    0.6318 C   0  0  0  0  0  0  0  0  0  0  0  0
    4.9316   -1.5942   -0.3059 C   0  0  0  0  0  0  0  0  0  0  0  0
    5.7100   -0.6931    0.0153 O   0  0  0  0  0  0  0  0  0  0  0  0
    4.2361   -1.7048   -1.5897 C   0  0  0  0  0  0  0  0  0  0  0  0
    4.3252   -0.8747   -2.7238 C   0  0  0  0  0  0  0  0  0  0  0  0
    3.5190   -1.1851   -3.8437 C   0  0  0  0  0  0  0  0  0  0  0  0
    2.6310   -2.2841   -3.7950 C   0  0  0  0  0  0  0  0  0  0  0  0
    2.5317   -3.0786   -2.6388 C   0  0  0  0  0  0  0  0  0  0  0  0
    3.3693   -2.7799   -1.5526 C   0  0  0  0  0  0  0  0  0  0  0  0
    3.4233   -3.4366   -0.2460 C   0  0  0  0  0  0  0  0  0  0  0  0
    2.6340   -4.2980    0.1424 O   0  0  0  0  0  0  0  0  0  0  0  0
    5.7996   -3.7147    0.6693 C   0  0  0  0  0  0  0  0  0  0  0  0
    7.0098   -3.3282    0.2300 N   0  0  0  0  0  0  0  0  0  0  0  0
    7.7760   -4.4229    0.4639 C   0  0  0  0  0  0  0  0  0  0  0  0
    7.1404   -5.4584    0.9832 N   0  0  0  0  0  0  0  0  0  0  0  0
    5.8811   -4.9927    1.1449 N   0  0  0  0  0  0  0  0  0  0  0  0
    5.1006   -7.6359    0.5648 H   0  0  0  0  0  0  0  0  0  0  0  0
    3.9210   -6.4525    0.0066 H   0  0  0  0  0  0  0  0  0  0  0  0
    3.5522   -7.4829    1.4008 H   0  0  0  0  0  0  0  0  0  0  0  0
    5.5147   -6.4050    2.6278 H   0  0  0  0  0  0  0  0  0  0  0  0
    3.4315   -2.8558    5.3584 H   0  0  0  0  0  0  0  0  0  0  0  0
    2.4292   -0.6037    5.2571 H   0  0  0  0  0  0  0  0  0  0  0  0
    2.2534    0.5703    3.0677 H   0  0  0  0  0  0  0  0  0  0  0  0
    3.1365   -0.4237    1.0597 H   0  0  0  0  0  0  0  0  0  0  0  0
    4.9914   -0.0231   -2.7241 H   0  0  0  0  0  0  0  0  0  0  0  0
    3.5688   -0.5773   -4.7357 H   0  0  0  0  0  0  0  0  0  0  0  0
    2.0029   -2.5278   -4.6342 H   0  0  0  0  0  0  0  0  0  0  0  0
    1.8310   -3.9020   -2.5917 H   0  0  0  0  0  0  0  0  0  0  0  0
    8.8250   -4.4723    0.2144 H   0  0  0  0  0  0  0  0  0  0  0  0
  1  2  1  0
  1 28  1  0
  1 29  1  0
  1 30  1  0
  2 27  1  0
  2  3  1  0
  2 31  1  1
  3  4  1  0
  4  5  2  0
  4  6  1  0
  6 11  2  0
  6  7  1  0
  7  8  2  0
  7 32  1  0
  8  9  1  0
  8 33  1  0
  9 10  2  0
  9 34  1  0
 10 11  1  0
 10 35  1  0
 11 12  1  0
 12 21  1  0
 12 13  1  0
 12 23  1  0
 13 14  2  0
 13 15  1  0
 15 20  2  0
 15 16  1  0
 16 17  2  0
 16 36  1  0
 17 18  1  0
 17 37  1  0
 18 19  2  0
 18 38  1  0
 19 20  1  0
 19 39  1  0
 20 21  1  0
 21 22  2  0
 23 27  1  0
 23 24  2  0
 24 25  1  0
 25 26  2  0
 25 40  1  0
 26 27  1  0
M  END
>  <i_m_ct_stereo_status>  (271) 
1

>  <s_m_source_file>  (271) 
/var/tmp/pbs.5076255.sched01/tmpy0mqr2dw/78t3ouse6d.sdf

>  <i_m_source_file_index>  (271) 
33

>  <i_lp_mmshare_version>  (271) 
48012

>  <i_f3d_flags>  (271) 
0

>  <s_epik_input>  (271) 
bjFbY0hdbmMybjFbQ0BIXShbQ0gzXSlPQyg9TyljKFtjSF1bY0hdW2NIXVtjSF0zKWMzQzI0Qyg9TyljNWMoQzQ9TylbY0hdW2NIXVtjSF1bY0hdNQ==

>  <s_epik_cmdline>  (271) 
J2VwaWtfcHl0aG9uJywgJy1waHQnLCAnMi4wJywgJy1waCcsICc3LjAnLCAnLXRuJywgJzgnLCAnLW1hJywgJzIwMCcsICctaW1hZScsICc8aW5maWxlLm1hZT4nLCAnLW9tYWUnLCAnPG91dGZpbGUubWFlPic=

>  <r_lp_tautomer_probability>  (271) 
1

>  <r_epik_Ionization_Penalty>  (271) 
2.70204e-08

>  <r_epik_Ionization_Penalty_Charging>  (271) 
0

>  <r_epik_Ionization_Penalty_Neutral>  (271) 
2.70204e-08

>  <r_epik_State_Penalty>  (271) 
-0

>  <r_epik_Charging_Adjusted_Penalty>  (271) 
0

>  <i_epik_Tot_Q>  (271) 
0

>  <i_epik_Tot_abs_Q>  (271) 
0

>  <s_epik_Chemistry_Notes>  (271) 
This compound has an ester and may undergo hydrolysis at high or low pH. This compound contains an acetal/aminal-like group ( X-CH(R)-Y where X, Y are N, S, or O) that may be acid/base labile, releasing an aldehyde.

>  <s_lp_Force_Field>  (271) 
OPLS3e

>  <r_lp_Energy>  (271) 
78.2176

>  <b_lp_Chiralities_Consistent>  (271) 
1

>  <s_lp_Variant>  (271) 
82:0-1

>  <s_i_glide_gridfile>  (271) 
pfpi4k_grid

>  <i_i_glide_lignum>  (271) 
33

>  <i_i_glide_rotatable_bonds>  (271) 
0

>  <r_i_docking_score>  (271) 
-3.86377

>  <r_i_glide_ligand_efficiency>  (271) 
-0.143102

>  <r_i_glide_ligand_efficiency_sa>  (271) 
-0.429307

>  <r_i_glide_ligand_efficiency_ln>  (271) 
-0.899421

>  <r_i_glide_gscore>  (271) 
-3.86377

>  <r_i_glide_lipo>  (271) 
-0.547691

>  <r_i_glide_hbond>  (271) 
0

>  <r_i_glide_metal>  (271) 
-0

>  <r_i_glide_rewards>  (271) 
-1.4788

>  <r_i_glide_evdw>  (271) 
-31.8838

>  <r_i_glide_ecoul>  (271) 
-1.50658

>  <r_i_glide_erotb>  (271) 
0

>  <r_i_glide_esite>  (271) 
-0.0171026

>  <r_i_glide_emodel>  (271) 
-41.6898

>  <r_i_glide_energy>  (271) 
-33.3904

>  <r_i_glide_einternal>  (271) 
0

>  <r_i_glide_intrahb_reward>  (271) 
-0

>  <i_i_glide_confnum>  (271) 
1

>  <i_i_glide_posenum>  (271) 
17

>  <r_i_glide_eff_state_penalty>  (271) 
0

>  <ligand_id>  (271) 
82

>  <original_smiles>  (271) 
CC1OC(=O)c2ccccc2C2(C(=O)c3ccccc3C2=O)c2ncnn21

>  <smiles>  (271) 
[H]c1nc2n(n1)C([H])(C([H])([H])[H])OC(=O)c1c([H])c([H])c([H])c([H])c1C21C(=O)c2c([H])c([H])c([H])c([H])c2C1=O

$$$$
82:0:1
     RDKit          3D

 40 44  0  0  1  0  0  0  0  0999 V2000
    3.4903    4.8354    7.5723 C   0  0  0  0  0  0  0  0  0  0  0  0
    2.1329    5.5558    7.6206 C   0  0  2  0  0  0  0  0  0  0  0  0
    1.2132    4.7665    8.2891 O   0  0  0  0  0  0  0  0  0  0  0  0
    0.0762    5.3961    8.6096 C   0  0  0  0  0  0  0  0  0  0  0  0
    0.0169    6.4919    9.1678 O   0  0  0  0  0  0  0  0  0  0  0  0
   -1.0952    4.6018    8.1892 C   0  0  0  0  0  0  0  0  0  0  0  0
   -2.1510    4.5567    9.1294 C   0  0  0  0  0  0  0  0  0  0  0  0
   -3.2685    3.7355    8.9233 C   0  0  0  0  0  0  0  0  0  0  0  0
   -3.3271    2.9423    7.7762 C   0  0  0  0  0  0  0  0  0  0  0  0
   -2.3107    3.0094    6.8126 C   0  0  0  0  0  0  0  0  0  0  0  0
   -1.1857    3.8739    6.9502 C   0  0  0  0  0  0  0  0  0  0  0  0
   -0.1361    3.9151    5.7689 C   0  0  0  0  0  0  0  0  0  0  0  0
   -0.8148    3.5565    4.3994 C   0  0  0  0  0  0  0  0  0  0  0  0
   -1.8007    4.1529    3.9559 O   0  0  0  0  0  0  0  0  0  0  0  0
   -0.1536    2.3916    3.7971 C   0  0  0  0  0  0  0  0  0  0  0  0
   -0.4106    1.7569    2.5664 C   0  0  0  0  0  0  0  0  0  0  0  0
    0.3682    0.6287    2.2267 C   0  0  0  0  0  0  0  0  0  0  0  0
    1.3541    0.1347    3.1108 C   0  0  0  0  0  0  0  0  0  0  0  0
    1.5848    0.7720    4.3495 C   0  0  0  0  0  0  0  0  0  0  0  0
    0.8209    1.9141    4.6577 C   0  0  0  0  0  0  0  0  0  0  0  0
    0.8518    2.7203    5.8783 C   0  0  0  0  0  0  0  0  0  0  0  0
    1.4755    2.4230    6.8943 O   0  0  0  0  0  0  0  0  0  0  0  0
    0.6553    5.2422    5.4958 C   0  0  0  0  0  0  0  0  0  0  0  0
    0.4508    6.0066    4.4133 N   0  0  0  0  0  0  0  0  0  0  0  0
    1.3720    6.9930    4.5652 C   0  0  0  0  0  0  0  0  0  0  0  0
    2.0833    6.9353    5.6785 N   0  0  0  0  0  0  0  0  0  0  0  0
    1.6086    5.8228    6.2833 N   0  0  0  0  0  0  0  0  0  0  0  0
    4.2537    5.5084    7.1827 H   0  0  0  0  0  0  0  0  0  0  0  0
    3.4490    3.9633    6.9242 H   0  0  0  0  0  0  0  0  0  0  0  0
    3.7854    4.5182    8.5720 H   0  0  0  0  0  0  0  0  0  0  0  0
    2.2465    6.5104    8.1389 H   0  0  0  0  0  0  0  0  0  0  0  0
   -2.0905    5.1266   10.0500 H   0  0  0  0  0  0  0  0  0  0  0  0
   -4.0578    3.6920    9.6631 H   0  0  0  0  0  0  0  0  0  0  0  0
   -4.1795    2.2990    7.6115 H   0  0  0  0  0  0  0  0  0  0  0  0
   -2.4306    2.3668    5.9542 H   0  0  0  0  0  0  0  0  0  0  0  0
   -1.1645    2.1368    1.8908 H   0  0  0  0  0  0  0  0  0  0  0  0
    0.2138    0.1429    1.2780 H   0  0  0  0  0  0  0  0  0  0  0  0
    1.9400   -0.7275    2.8292 H   0  0  0  0  0  0  0  0  0  0  0  0
    2.3271    0.3986    5.0421 H   0  0  0  0  0  0  0  0  0  0  0  0
    1.4985    7.7963    3.8558 H   0  0  0  0  0  0  0  0  0  0  0  0
  1  2  1  0
  1 28  1  0
  1 29  1  0
  1 30  1  0
  2 27  1  0
  2  3  1  0
  2 31  1  1
  3  4  1  0
  4  5  2  0
  4  6  1  0
  6 11  2  0
  6  7  1  0
  7  8  2  0
  7 32  1  0
  8  9  1  0
  8 33  1  0
  9 10  2  0
  9 34  1  0
 10 11  1  0
 10 35  1  0
 11 12  1  0
 12 21  1  0
 12 13  1  0
 12 23  1  0
 13 14  2  0
 13 15  1  0
 15 20  2  0
 15 16  1  0
 16 17  2  0
 16 36  1  0
 17 18  1  0
 17 37  1  0
 18 19  2  0
 18 38  1  0
 19 20  1  0
 19 39  1  0
 20 21  1  0
 21 22  2  0
 23 27  1  0
 23 24  2  0
 24 25  1  0
 25 26  2  0
 25 40  1  0
 26 27  1  0
M  END
>  <i_m_ct_stereo_status>  (272) 
1

>  <s_m_source_file>  (272) 
/var/tmp/pbs.5076255.sched01/tmpy0mqr2dw/78t3ouse6d.sdf

>  <i_m_source_file_index>  (272) 
33

>  <i_lp_mmshare_version>  (272) 
48012

>  <i_f3d_flags>  (272) 
0

>  <s_epik_input>  (272) 
bjFbY0hdbmMybjFbQ0BIXShbQ0gzXSlPQyg9TyljKFtjSF1bY0hdW2NIXVtjSF0zKWMzQzI0Qyg9TyljNWMoQzQ9TylbY0hdW2NIXVtjSF1bY0hdNQ==

>  <s_epik_cmdline>  (272) 
J2VwaWtfcHl0aG9uJywgJy1waHQnLCAnMi4wJywgJy1waCcsICc3LjAnLCAnLXRuJywgJzgnLCAnLW1hJywgJzIwMCcsICctaW1hZScsICc8aW5maWxlLm1hZT4nLCAnLW9tYWUnLCAnPG91dGZpbGUubWFlPic=

>  <r_lp_tautomer_probability>  (272) 
1

>  <r_epik_Ionization_Penalty>  (272) 
2.70204e-08

>  <r_epik_Ionization_Penalty_Charging>  (272) 
0

>  <r_epik_Ionization_Penalty_Neutral>  (272) 
2.70204e-08

>  <r_epik_State_Penalty>  (272) 
-0

>  <r_epik_Charging_Adjusted_Penalty>  (272) 
0

>  <i_epik_Tot_Q>  (272) 
0

>  <i_epik_Tot_abs_Q>  (272) 
0

>  <s_epik_Chemistry_Notes>  (272) 
This compound has an ester and may undergo hydrolysis at high or low pH. This compound contains an acetal/aminal-like group ( X-CH(R)-Y where X, Y are N, S, or O) that may be acid/base labile, releasing an aldehyde.

>  <s_lp_Force_Field>  (272) 
OPLS3e

>  <r_lp_Energy>  (272) 
78.2176

>  <b_lp_Chiralities_Consistent>  (272) 
1

>  <s_lp_Variant>  (272) 
82:0-1

>  <s_i_glide_gridfile>  (272) 
pfpi4k_grid

>  <i_i_glide_lignum>  (272) 
33

>  <i_i_glide_rotatable_bonds>  (272) 
0

>  <r_i_docking_score>  (272) 
-2.95788

>  <r_i_glide_ligand_efficiency>  (272) 
-0.109551

>  <r_i_glide_ligand_efficiency_sa>  (272) 
-0.328654

>  <r_i_glide_ligand_efficiency_ln>  (272) 
-0.688546

>  <r_i_glide_gscore>  (272) 
-2.95788

>  <r_i_glide_lipo>  (272) 
-0.273321

>  <r_i_glide_hbond>  (272) 
-0.0605191

>  <r_i_glide_metal>  (272) 
-0

>  <r_i_glide_rewards>  (272) 
-0.95908

>  <r_i_glide_evdw>  (272) 
-22.698

>  <r_i_glide_ecoul>  (272) 
-2.78592

>  <r_i_glide_erotb>  (272) 
0

>  <r_i_glide_esite>  (272) 
-0.112176

>  <r_i_glide_emodel>  (272) 
-31.8172

>  <r_i_glide_energy>  (272) 
-25.4839

>  <r_i_glide_einternal>  (272) 
0

>  <r_i_glide_intrahb_reward>  (272) 
-0

>  <i_i_glide_confnum>  (272) 
1

>  <i_i_glide_posenum>  (272) 
9

>  <r_i_glide_eff_state_penalty>  (272) 
0

>  <ligand_id>  (272) 
82

>  <original_smiles>  (272) 
CC1OC(=O)c2ccccc2C2(C(=O)c3ccccc3C2=O)c2ncnn21

>  <smiles>  (272) 
[H]c1nc2n(n1)C([H])(C([H])([H])[H])OC(=O)c1c([H])c([H])c([H])c([H])c1C21C(=O)c2c([H])c([H])c([H])c([H])c2C1=O

$$$$
82:0:2
     RDKit          3D

 40 44  0  0  1  0  0  0  0  0999 V2000
    4.6309   -1.8993    5.4297 C   0  0  0  0  0  0  0  0  0  0  0  0
    3.2382   -2.3817    4.9927 C   0  0  2  0  0  0  0  0  0  0  0  0
    3.2437   -3.7576    4.8444 O   0  0  0  0  0  0  0  0  0  0  0  0
    2.0264   -4.3003    4.7057 C   0  0  0  0  0  0  0  0  0  0  0  0
    1.0655   -4.0597    5.4373 O   0  0  0  0  0  0  0  0  0  0  0  0
    1.9905   -5.2152    3.5477 C   0  0  0  0  0  0  0  0  0  0  0  0
    1.2992   -6.4282    3.7709 C   0  0  0  0  0  0  0  0  0  0  0  0
    1.2949   -7.4499    2.8091 C   0  0  0  0  0  0  0  0  0  0  0  0
    2.0010   -7.2664    1.6153 C   0  0  0  0  0  0  0  0  0  0  0  0
    2.6570   -6.0487    1.3632 C   0  0  0  0  0  0  0  0  0  0  0  0
    2.6360   -4.9614    2.2878 C   0  0  0  0  0  0  0  0  0  0  0  0
    3.3613   -3.6179    1.8693 C   0  0  0  0  0  0  0  0  0  0  0  0
    3.3758   -3.4522    0.3070 C   0  0  0  0  0  0  0  0  0  0  0  0
    2.3661   -3.5110   -0.3959 O   0  0  0  0  0  0  0  0  0  0  0  0
    4.7538   -3.3104   -0.1787 C   0  0  0  0  0  0  0  0  0  0  0  0
    5.2189   -3.1072   -1.4949 C   0  0  0  0  0  0  0  0  0  0  0  0
    6.6167   -3.0489   -1.7037 C   0  0  0  0  0  0  0  0  0  0  0  0
    7.5143   -3.2048   -0.6219 C   0  0  0  0  0  0  0  0  0  0  0  0
    7.0269   -3.4299    0.6851 C   0  0  0  0  0  0  0  0  0  0  0  0
    5.6323   -3.4624    0.8785 C   0  0  0  0  0  0  0  0  0  0  0  0
    4.8915   -3.7177    2.1180 C   0  0  0  0  0  0  0  0  0  0  0  0
    5.4034   -4.0624    3.1808 O   0  0  0  0  0  0  0  0  0  0  0  0
    2.8232   -2.2499    2.4305 C   0  0  0  0  0  0  0  0  0  0  0  0
    2.2300   -1.3315    1.6644 N   0  0  0  0  0  0  0  0  0  0  0  0
    1.9408   -0.3324    2.5301 C   0  0  0  0  0  0  0  0  0  0  0  0
    2.3009   -0.5600    3.7818 N   0  0  0  0  0  0  0  0  0  0  0  0
    2.8446   -1.7986    3.7178 N   0  0  0  0  0  0  0  0  0  0  0  0
    4.5938   -0.8400    5.6833 H   0  0  0  0  0  0  0  0  0  0  0  0
    5.3597   -2.0271    4.6327 H   0  0  0  0  0  0  0  0  0  0  0  0
    4.9643   -2.4554    6.3061 H   0  0  0  0  0  0  0  0  0  0  0  0
    2.4970   -2.0913    5.7399 H   0  0  0  0  0  0  0  0  0  0  0  0
    0.8000   -6.6092    4.7138 H   0  0  0  0  0  0  0  0  0  0  0  0
    0.7909   -8.3892    3.0014 H   0  0  0  0  0  0  0  0  0  0  0  0
    2.0421   -8.0640    0.8884 H   0  0  0  0  0  0  0  0  0  0  0  0
    3.1879   -5.9861    0.4242 H   0  0  0  0  0  0  0  0  0  0  0  0
    4.5215   -3.0114   -2.3178 H   0  0  0  0  0  0  0  0  0  0  0  0
    7.0053   -2.8948   -2.7009 H   0  0  0  0  0  0  0  0  0  0  0  0
    8.5799   -3.1623   -0.7964 H   0  0  0  0  0  0  0  0  0  0  0  0
    7.6981   -3.5847    1.5194 H   0  0  0  0  0  0  0  0  0  0  0  0
    1.4441    0.5789    2.2279 H   0  0  0  0  0  0  0  0  0  0  0  0
  1  2  1  0
  1 28  1  0
  1 29  1  0
  1 30  1  0
  2 27  1  0
  2  3  1  0
  2 31  1  1
  3  4  1  0
  4  5  2  0
  4  6  1  0
  6 11  2  0
  6  7  1  0
  7  8  2  0
  7 32  1  0
  8  9  1  0
  8 33  1  0
  9 10  2  0
  9 34  1  0
 10 11  1  0
 10 35  1  0
 11 12  1  0
 12 21  1  0
 12 13  1  0
 12 23  1  0
 13 14  2  0
 13 15  1  0
 15 20  2  0
 15 16  1  0
 16 17  2  0
 16 36  1  0
 17 18  1  0
 17 37  1  0
 18 19  2  0
 18 38  1  0
 19 20  1  0
 19 39  1  0
 20 21  1  0
 21 22  2  0
 23 27  1  0
 23 24  2  0
 24 25  1  0
 25 26  2  0
 25 40  1  0
 26 27  1  0
M  END
>  <i_m_ct_stereo_status>  (273) 
1

>  <s_m_source_file>  (273) 
/var/tmp/pbs.5076255.sched01/tmpy0mqr2dw/78t3ouse6d.sdf

>  <i_m_source_file_index>  (273) 
33

>  <i_lp_mmshare_version>  (273) 
48012

>  <i_f3d_flags>  (273) 
0

>  <s_epik_input>  (273) 
bjFbY0hdbmMybjFbQ0BIXShbQ0gzXSlPQyg9TyljKFtjSF1bY0hdW2NIXVtjSF0zKWMzQzI0Qyg9TyljNWMoQzQ9TylbY0hdW2NIXVtjSF1bY0hdNQ==

>  <s_epik_cmdline>  (273) 
J2VwaWtfcHl0aG9uJywgJy1waHQnLCAnMi4wJywgJy1waCcsICc3LjAnLCAnLXRuJywgJzgnLCAnLW1hJywgJzIwMCcsICctaW1hZScsICc8aW5maWxlLm1hZT4nLCAnLW9tYWUnLCAnPG91dGZpbGUubWFlPic=

>  <r_lp_tautomer_probability>  (273) 
1

>  <r_epik_Ionization_Penalty>  (273) 
2.70204e-08

>  <r_epik_Ionization_Penalty_Charging>  (273) 
0

>  <r_epik_Ionization_Penalty_Neutral>  (273) 
2.70204e-08

>  <r_epik_State_Penalty>  (273) 
-0

>  <r_epik_Charging_Adjusted_Penalty>  (273) 
0

>  <i_epik_Tot_Q>  (273) 
0

>  <i_epik_Tot_abs_Q>  (273) 
0

>  <s_epik_Chemistry_Notes>  (273) 
This compound has an ester and may undergo hydrolysis at high or low pH. This compound contains an acetal/aminal-like group ( X-CH(R)-Y where X, Y are N, S, or O) that may be acid/base labile, releasing an aldehyde.

>  <s_lp_Force_Field>  (273) 
OPLS3e

>  <r_lp_Energy>  (273) 
78.2176

>  <b_lp_Chiralities_Consistent>  (273) 
1

>  <s_lp_Variant>  (273) 
82:0-1

>  <s_i_glide_gridfile>  (273) 
pfpi4k_grid

>  <i_i_glide_lignum>  (273) 
33

>  <i_i_glide_rotatable_bonds>  (273) 
0

>  <r_i_docking_score>  (273) 
-2.70374

>  <r_i_glide_ligand_efficiency>  (273) 
-0.100139

>  <r_i_glide_ligand_efficiency_sa>  (273) 
-0.300416

>  <r_i_glide_ligand_efficiency_ln>  (273) 
-0.629386

>  <r_i_glide_gscore>  (273) 
-2.70374

>  <r_i_glide_lipo>  (273) 
-0.446768

>  <r_i_glide_hbond>  (273) 
0

>  <r_i_glide_metal>  (273) 
-0

>  <r_i_glide_rewards>  (273) 
-1.00272

>  <r_i_glide_evdw>  (273) 
-24.495

>  <r_i_glide_ecoul>  (273) 
0.0267567

>  <r_i_glide_erotb>  (273) 
0

>  <r_i_glide_esite>  (273) 
-0.0335221

>  <r_i_glide_emodel>  (273) 
-30.2479

>  <r_i_glide_energy>  (273) 
-24.4682

>  <r_i_glide_einternal>  (273) 
0

>  <r_i_glide_intrahb_reward>  (273) 
-0

>  <i_i_glide_confnum>  (273) 
1

>  <i_i_glide_posenum>  (273) 
4

>  <r_i_glide_eff_state_penalty>  (273) 
0

>  <ligand_id>  (273) 
82

>  <original_smiles>  (273) 
CC1OC(=O)c2ccccc2C2(C(=O)c3ccccc3C2=O)c2ncnn21

>  <smiles>  (273) 
[H]c1nc2n(n1)C([H])(C([H])([H])[H])OC(=O)c1c([H])c([H])c([H])c([H])c1C21C(=O)c2c([H])c([H])c([H])c([H])c2C1=O

$$$$
83:0:0
     RDKit          3D

 39 43  0  0  1  0  0  0  0  0999 V2000
    3.6415   -2.8509   -3.8216 C   0  0  0  0  0  0  0  0  0  0  0  0
    4.3732   -2.3298   -2.5837 C   0  0  2  0  0  0  0  0  0  0  0  0
    5.6461   -3.1019   -2.2315 C   0  0  0  0  0  0  0  0  0  0  0  0
    5.8896   -2.7027   -0.7931 C   0  0  0  0  0  0  0  0  0  0  0  0
    6.9944   -2.7819   -0.2589 O   0  0  0  0  0  0  0  0  0  0  0  0
    4.6400   -2.0466   -0.1624 C   0  0  2  0  0  0  0  0  0  0  0  0
    4.9148   -0.6271    0.3550 C   0  0  0  0  0  0  0  0  0  0  0  0
    4.5957   -0.7581    1.8549 C   0  0  2  0  0  0  0  0  0  0  0  0
    5.5834   -1.7385    2.5243 C   0  0  0  0  0  0  0  0  0  0  0  0
    4.8583   -3.0912    2.2989 C   0  0  1  0  0  0  0  0  0  0  0  0
    5.7096   -4.3790    2.2926 C   0  0  0  0  0  0  0  0  0  0  0  0
    3.7721   -3.1948    3.3854 C   0  0  1  0  0  0  0  0  0  0  0  0
    4.2905   -3.1819    4.7022 O   0  0  0  0  0  0  0  0  0  0  0  0
    2.9496   -2.1020    3.1223 O   0  0  0  0  0  0  0  0  0  0  0  0
    3.3188   -1.6041    1.8288 C   0  0  2  0  0  0  0  0  0  0  0  0
    3.9953   -2.7453    1.0743 C   0  0  1  0  0  0  0  0  0  0  0  0
    3.0332   -3.7350    0.4706 C   0  0  0  0  0  0  0  0  0  0  0  0
    2.8216   -3.4529   -0.8182 C   0  0  0  0  0  0  0  0  0  0  0  0
    3.5778   -2.2163   -1.2741 C   0  0  2  0  0  0  0  0  0  0  0  0
    3.3257   -3.8863   -3.7197 H   0  0  0  0  0  0  0  0  0  0  0  0
    4.3072   -2.7883   -4.6756 H   0  0  0  0  0  0  0  0  0  0  0  0
    2.7671   -2.2364   -4.0424 H   0  0  0  0  0  0  0  0  0  0  0  0
    4.6842   -1.3161   -2.8209 H   0  0  0  0  0  0  0  0  0  0  0  0
    5.5154   -4.1799   -2.3149 H   0  0  0  0  0  0  0  0  0  0  0  0
    6.4914   -2.7973   -2.8450 H   0  0  0  0  0  0  0  0  0  0  0  0
    5.9290   -0.2680    0.1773 H   0  0  0  0  0  0  0  0  0  0  0  0
    4.2254    0.0887   -0.0996 H   0  0  0  0  0  0  0  0  0  0  0  0
    4.5004    0.1916    2.3785 H   0  0  0  0  0  0  0  0  0  0  0  0
    6.5623   -1.6991    2.0494 H   0  0  0  0  0  0  0  0  0  0  0  0
    5.7232   -1.5080    3.5789 H   0  0  0  0  0  0  0  0  0  0  0  0
    5.0968   -5.2615    2.0992 H   0  0  0  0  0  0  0  0  0  0  0  0
    6.1765   -4.5204    3.2680 H   0  0  0  0  0  0  0  0  0  0  0  0
    6.5153   -4.3615    1.5622 H   0  0  0  0  0  0  0  0  0  0  0  0
    3.1838   -4.1078    3.2881 H   0  0  0  0  0  0  0  0  0  0  0  0
    3.5709   -3.2993    5.2940 H   0  0  0  0  0  0  0  0  0  0  0  0
    2.4874   -1.1277    1.2996 H   0  0  0  0  0  0  0  0  0  0  0  0
    2.5601   -4.5333    1.0173 H   0  0  0  0  0  0  0  0  0  0  0  0
    2.1611   -3.9915   -1.4779 H   0  0  0  0  0  0  0  0  0  0  0  0
    2.8820   -1.3692   -1.2974 H   0  0  0  0  0  0  0  0  0  0  0  0
  1  2  1  0
  1 20  1  0
  1 21  1  0
  1 22  1  0
  2 19  1  0
  2  3  1  0
  2 23  1  6
  3  4  1  0
  3 24  1  0
  3 25  1  0
  4  5  2  0
  4  6  1  0
  6 16  1  0
  6 19  1  0
  6  7  1  1
  7  8  1  0
  7 26  1  0
  7 27  1  0
  8 15  1  0
  8  9  1  0
  8 28  1  1
  9 10  1  0
  9 29  1  0
  9 30  1  0
 10 16  1  0
 10 11  1  6
 10 12  1  0
 11 31  1  0
 11 32  1  0
 11 33  1  0
 12 13  1  0
 12 14  1  0
 12 34  1  6
 13 35  1  0
 14 15  1  0
 15 16  1  0
 15 36  1  6
 16 17  1  6
 17 18  2  0
 17 37  1  0
 18 19  1  0
 18 38  1  0
 19 39  1  6
M  END
>  <i_m_ct_stereo_status>  (274) 
1

>  <s_m_source_file>  (274) 
/var/tmp/pbs.5076255.sched01/tmpy0mqr2dw/78t3ouse6d.sdf

>  <i_m_source_file_index>  (274) 
34

>  <i_lp_mmshare_version>  (274) 
48012

>  <i_f3d_flags>  (274) 
0

>  <s_epik_input>  (274) 
Tz1DMVtDSDJdW0NAQEhdKFtDSDNdKVtDQEhdMltDSF09W0NIXUMzKFtDQEBdMTI0KVtDQEBdNShbQ0gzXSlbQ0gyXVtDQEhdKFtDSDJdNClbQ0hdM09bQ0BASF01W09IXQ==

>  <s_epik_cmdline>  (274) 
J2VwaWtfcHl0aG9uJywgJy1waHQnLCAnMi4wJywgJy1waCcsICc3LjAnLCAnLXRuJywgJzgnLCAnLW1hJywgJzIwMCcsICctaW1hZScsICc8aW5maWxlLm1hZT4nLCAnLW9tYWUnLCAnPG91dGZpbGUubWFlPic=

>  <r_lp_tautomer_probability>  (274) 
1

>  <r_epik_Ionization_Penalty>  (274) 
3.7389e-08

>  <r_epik_Ionization_Penalty_Charging>  (274) 
0

>  <r_epik_Ionization_Penalty_Neutral>  (274) 
3.7389e-08

>  <r_epik_State_Penalty>  (274) 
-0

>  <r_epik_Charging_Adjusted_Penalty>  (274) 
0

>  <i_epik_Tot_Q>  (274) 
0

>  <i_epik_Tot_abs_Q>  (274) 
0

>  <s_epik_Chemistry_Notes>  (274) 
This compound contains an acetal/aminal-like group ( X-CH(R)-Y where X, Y are N, S, or O) that may be acid/base labile, releasing an aldehyde.

>  <s_lp_Force_Field>  (274) 
OPLS3e

>  <r_lp_Energy>  (274) 
50.7905

>  <b_lp_Chiralities_Consistent>  (274) 
1

>  <s_lp_Variant>  (274) 
83:0-1

>  <s_i_glide_gridfile>  (274) 
pfpi4k_grid

>  <i_i_glide_lignum>  (274) 
34

>  <i_i_glide_rotatable_bonds>  (274) 
1

>  <r_i_docking_score>  (274) 
-3.72329

>  <r_i_glide_ligand_efficiency>  (274) 
-0.195962

>  <r_i_glide_ligand_efficiency_sa>  (274) 
-0.522907

>  <r_i_glide_ligand_efficiency_ln>  (274) 
-0.943933

>  <r_i_glide_gscore>  (274) 
-3.72329

>  <r_i_glide_lipo>  (274) 
-0.781424

>  <r_i_glide_hbond>  (274) 
0

>  <r_i_glide_metal>  (274) 
-0

>  <r_i_glide_rewards>  (274) 
-1.63413

>  <r_i_glide_evdw>  (274) 
-23.2921

>  <r_i_glide_ecoul>  (274) 
-0.911883

>  <r_i_glide_erotb>  (274) 
0

>  <r_i_glide_esite>  (274) 
-0.00635103

>  <r_i_glide_emodel>  (274) 
-29.3237

>  <r_i_glide_energy>  (274) 
-24.2039

>  <r_i_glide_einternal>  (274) 
0.260508

>  <r_i_glide_intrahb_reward>  (274) 
-0

>  <i_i_glide_confnum>  (274) 
2

>  <i_i_glide_posenum>  (274) 
30

>  <r_i_glide_eff_state_penalty>  (274) 
0

>  <ligand_id>  (274) 
83

>  <original_smiles>  (274) 
CC1CC(=O)C23CC4CC5(C)C(O)OC4C52C=CC13

>  <smiles>  (274) 
[H]OC1([H])OC2([H])C3([H])C([H])([H])C45C(=O)C([H])([H])C([H])(C([H])([H])[H])C4([H])C([H])=C([H])C25C1(C([H])([H])[H])C3([H])[H]

$$$$
83:0:1
     RDKit          3D

 39 43  0  0  1  0  0  0  0  0999 V2000
    3.4781   -3.0878   -3.8208 C   0  0  0  0  0  0  0  0  0  0  0  0
    4.1843   -2.5494   -2.5668 C   0  0  2  0  0  0  0  0  0  0  0  0
    5.5142   -3.2203   -2.2483 C   0  0  0  0  0  0  0  0  0  0  0  0
    5.7426   -2.8155   -0.8046 C   0  0  0  0  0  0  0  0  0  0  0  0
    6.8561   -2.8192   -0.2881 O   0  0  0  0  0  0  0  0  0  0  0  0
    4.4657   -2.2522   -0.1471 C   0  0  2  0  0  0  0  0  0  0  0  0
    4.6291   -0.8131    0.3794 C   0  0  0  0  0  0  0  0  0  0  0  0
    4.3310   -0.9937    1.8762 C   0  0  2  0  0  0  0  0  0  0  0  0
    5.3911   -1.9092    2.5236 C   0  0  0  0  0  0  0  0  0  0  0  0
    4.7664   -3.3075    2.2897 C   0  0  1  0  0  0  0  0  0  0  0  0
    5.6996   -4.5297    2.2661 C   0  0  0  0  0  0  0  0  0  0  0  0
    3.6951   -3.4989    3.3920 C   0  0  1  0  0  0  0  0  0  0  0  0
    4.2280   -3.4485    4.6946 O   0  0  0  0  0  0  0  0  0  0  0  0
    2.7968   -2.4637    3.1300 O   0  0  0  0  0  0  0  0  0  0  0  0
    3.1182   -1.9349    1.8406 C   0  0  2  0  0  0  0  0  0  0  0  0
    3.8705   -3.0155    1.0732 C   0  0  1  0  0  0  0  0  0  0  0  0
    2.9840   -4.0663    0.4684 C   0  0  0  0  0  0  0  0  0  0  0  0
    2.7486   -3.7752   -0.8076 C   0  0  0  0  0  0  0  0  0  0  0  0
    3.4132   -2.4813   -1.2482 C   0  0  2  0  0  0  0  0  0  0  0  0
    3.2464   -4.1494   -3.7484 H   0  0  0  0  0  0  0  0  0  0  0  0
    4.1365   -2.9615   -4.6826 H   0  0  0  0  0  0  0  0  0  0  0  0
    2.5585   -2.5376   -4.0267 H   0  0  0  0  0  0  0  0  0  0  0  0
    4.4171   -1.5254   -2.8063 H   0  0  0  0  0  0  0  0  0  0  0  0
    5.4559   -4.3032   -2.3391 H   0  0  0  0  0  0  0  0  0  0  0  0
    6.3357   -2.8453   -2.8677 H   0  0  0  0  0  0  0  0  0  0  0  0
    5.6063   -0.3763    0.1810 H   0  0  0  0  0  0  0  0  0  0  0  0
    3.8699   -0.1755   -0.0671 H   0  0  0  0  0  0  0  0  0  0  0  0
    4.1701   -0.0563    2.4053 H   0  0  0  0  0  0  0  0  0  0  0  0
    6.3599   -1.7942    2.0411 H   0  0  0  0  0  0  0  0  0  0  0  0
    5.5339   -1.6663    3.5756 H   0  0  0  0  0  0  0  0  0  0  0  0
    5.1517   -5.4514    2.0683 H   0  0  0  0  0  0  0  0  0  0  0  0
    6.1763   -4.6424    3.2398 H   0  0  0  0  0  0  0  0  0  0  0  0
    6.5004   -4.4471    1.5348 H   0  0  0  0  0  0  0  0  0  0  0  0
    3.1734   -4.4449    3.2981 H   0  0  0  0  0  0  0  0  0  0  0  0
    4.7308   -2.6582    4.7846 H   0  0  0  0  0  0  0  0  0  0  0  0
    2.2484   -1.5095    1.3232 H   0  0  0  0  0  0  0  0  0  0  0  0
    2.5573   -4.8939    1.0192 H   0  0  0  0  0  0  0  0  0  0  0  0
    2.1029   -4.3436   -1.4591 H   0  0  0  0  0  0  0  0  0  0  0  0
    2.6506   -1.6829   -1.2687 H   0  0  0  0  0  0  0  0  0  0  0  0
  1  2  1  0
  1 20  1  0
  1 21  1  0
  1 22  1  0
  2 19  1  0
  2  3  1  0
  2 23  1  6
  3  4  1  0
  3 24  1  0
  3 25  1  0
  4  5  2  0
  4  6  1  0
  6 16  1  0
  6 19  1  0
  6  7  1  1
  7  8  1  0
  7 26  1  0
  7 27  1  0
  8 15  1  0
  8  9  1  0
  8 28  1  1
  9 10  1  0
  9 29  1  0
  9 30  1  0
 10 16  1  0
 10 11  1  6
 10 12  1  0
 11 31  1  0
 11 32  1  0
 11 33  1  0
 12 13  1  0
 12 14  1  0
 12 34  1  6
 13 35  1  0
 14 15  1  0
 15 16  1  0
 15 36  1  6
 16 17  1  6
 17 18  2  0
 17 37  1  0
 18 19  1  0
 18 38  1  0
 19 39  1  6
M  END
>  <i_m_ct_stereo_status>  (275) 
1

>  <s_m_source_file>  (275) 
/var/tmp/pbs.5076255.sched01/tmpy0mqr2dw/78t3ouse6d.sdf

>  <i_m_source_file_index>  (275) 
34

>  <i_lp_mmshare_version>  (275) 
48012

>  <i_f3d_flags>  (275) 
0

>  <s_epik_input>  (275) 
Tz1DMVtDSDJdW0NAQEhdKFtDSDNdKVtDQEhdMltDSF09W0NIXUMzKFtDQEBdMTI0KVtDQEBdNShbQ0gzXSlbQ0gyXVtDQEhdKFtDSDJdNClbQ0hdM09bQ0BASF01W09IXQ==

>  <s_epik_cmdline>  (275) 
J2VwaWtfcHl0aG9uJywgJy1waHQnLCAnMi4wJywgJy1waCcsICc3LjAnLCAnLXRuJywgJzgnLCAnLW1hJywgJzIwMCcsICctaW1hZScsICc8aW5maWxlLm1hZT4nLCAnLW9tYWUnLCAnPG91dGZpbGUubWFlPic=

>  <r_lp_tautomer_probability>  (275) 
1

>  <r_epik_Ionization_Penalty>  (275) 
3.7389e-08

>  <r_epik_Ionization_Penalty_Charging>  (275) 
0

>  <r_epik_Ionization_Penalty_Neutral>  (275) 
3.7389e-08

>  <r_epik_State_Penalty>  (275) 
-0

>  <r_epik_Charging_Adjusted_Penalty>  (275) 
0

>  <i_epik_Tot_Q>  (275) 
0

>  <i_epik_Tot_abs_Q>  (275) 
0

>  <s_epik_Chemistry_Notes>  (275) 
This compound contains an acetal/aminal-like group ( X-CH(R)-Y where X, Y are N, S, or O) that may be acid/base labile, releasing an aldehyde.

>  <s_lp_Force_Field>  (275) 
OPLS3e

>  <r_lp_Energy>  (275) 
50.7905

>  <b_lp_Chiralities_Consistent>  (275) 
1

>  <s_lp_Variant>  (275) 
83:0-1

>  <s_i_glide_gridfile>  (275) 
pfpi4k_grid

>  <i_i_glide_lignum>  (275) 
34

>  <i_i_glide_rotatable_bonds>  (275) 
1

>  <r_i_docking_score>  (275) 
-3.53508

>  <r_i_glide_ligand_efficiency>  (275) 
-0.186057

>  <r_i_glide_ligand_efficiency_sa>  (275) 
-0.496474

>  <r_i_glide_ligand_efficiency_ln>  (275) 
-0.896218

>  <r_i_glide_gscore>  (275) 
-3.53508

>  <r_i_glide_lipo>  (275) 
-0.654368

>  <r_i_glide_hbond>  (275) 
0

>  <r_i_glide_metal>  (275) 
-0

>  <r_i_glide_rewards>  (275) 
-1.63413

>  <r_i_glide_evdw>  (275) 
-22.0943

>  <r_i_glide_ecoul>  (275) 
-0.945369

>  <r_i_glide_erotb>  (275) 
0

>  <r_i_glide_esite>  (275) 
-5.95088e-05

>  <r_i_glide_emodel>  (275) 
-27.9422

>  <r_i_glide_energy>  (275) 
-23.0397

>  <r_i_glide_einternal>  (275) 
0.000243695

>  <r_i_glide_intrahb_reward>  (275) 
-0

>  <i_i_glide_confnum>  (275) 
2

>  <i_i_glide_posenum>  (275) 
12

>  <r_i_glide_eff_state_penalty>  (275) 
0

>  <ligand_id>  (275) 
83

>  <original_smiles>  (275) 
CC1CC(=O)C23CC4CC5(C)C(O)OC4C52C=CC13

>  <smiles>  (275) 
[H]OC1([H])OC2([H])C3([H])C([H])([H])C45C(=O)C([H])([H])C([H])(C([H])([H])[H])C4([H])C([H])=C([H])C25C1(C([H])([H])[H])C3([H])[H]

$$$$
83:0:2
     RDKit          3D

 39 43  0  0  1  0  0  0  0  0999 V2000
    3.6537   -1.8062   -4.2500 C   0  0  0  0  0  0  0  0  0  0  0  0
    3.8103   -2.6848   -3.0158 C   0  0  2  0  0  0  0  0  0  0  0  0
    2.4842   -3.0447   -2.3631 C   0  0  0  0  0  0  0  0  0  0  0  0
    2.9141   -3.4541   -0.9669 C   0  0  0  0  0  0  0  0  0  0  0  0
    2.2322   -4.1676   -0.2471 O   0  0  0  0  0  0  0  0  0  0  0  0
    4.3652   -3.0344   -0.6648 C   0  0  2  0  0  0  0  0  0  0  0  0
    5.2851   -4.2215   -0.3257 C   0  0  0  0  0  0  0  0  0  0  0  0
    5.7343   -3.8691    1.1036 C   0  0  2  0  0  0  0  0  0  0  0  0
    4.5249   -3.8681    2.0704 C   0  0  0  0  0  0  0  0  0  0  0  0
    4.0283   -2.4012    1.9133 C   0  0  1  0  0  0  0  0  0  0  0  0
    2.5531   -2.1018    2.2523 C   0  0  0  0  0  0  0  0  0  0  0  0
    4.9410   -1.5270    2.8010 C   0  0  1  0  0  0  0  0  0  0  0  0
    4.9097   -1.8893    4.1653 O   0  0  0  0  0  0  0  0  0  0  0  0
    6.1983   -1.6925    2.2197 O   0  0  0  0  0  0  0  0  0  0  0  0
    6.0062   -2.3643    0.9703 C   0  0  2  0  0  0  0  0  0  0  0  0
    4.5874   -2.0605    0.5228 C   0  0  1  0  0  0  0  0  0  0  0  0
    4.4351   -0.6886   -0.0891 C   0  0  0  0  0  0  0  0  0  0  0  0
    4.4941   -0.7779   -1.4156 C   0  0  0  0  0  0  0  0  0  0  0  0
    4.7418   -2.1915   -1.9026 C   0  0  2  0  0  0  0  0  0  0  0  0
    3.1330   -0.8599   -4.0709 H   0  0  0  0  0  0  0  0  0  0  0  0
    3.0645   -2.3853   -4.9610 H   0  0  0  0  0  0  0  0  0  0  0  0
    4.6204   -1.5987   -4.7065 H   0  0  0  0  0  0  0  0  0  0  0  0
    4.2311   -3.6239   -3.3626 H   0  0  0  0  0  0  0  0  0  0  0  0
    1.8090   -2.1951   -2.3119 H   0  0  0  0  0  0  0  0  0  0  0  0
    1.9721   -3.8609   -2.8674 H   0  0  0  0  0  0  0  0  0  0  0  0
    4.7972   -5.1929   -0.3948 H   0  0  0  0  0  0  0  0  0  0  0  0
    6.1440   -4.2337   -0.9986 H   0  0  0  0  0  0  0  0  0  0  0  0
    6.5813   -4.4562    1.4573 H   0  0  0  0  0  0  0  0  0  0  0  0
    3.7735   -4.5940    1.7654 H   0  0  0  0  0  0  0  0  0  0  0  0
    4.8231   -4.1259    3.0863 H   0  0  0  0  0  0  0  0  0  0  0  0
    2.3151   -1.0503    2.0879 H   0  0  0  0  0  0  0  0  0  0  0  0
    2.3560   -2.3191    3.3020 H   0  0  0  0  0  0  0  0  0  0  0  0
    1.8509   -2.6898    1.6725 H   0  0  0  0  0  0  0  0  0  0  0  0
    4.6814   -0.4665    2.7476 H   0  0  0  0  0  0  0  0  0  0  0  0
    5.0282   -2.8278    4.2211 H   0  0  0  0  0  0  0  0  0  0  0  0
    6.7856   -2.1202    0.2455 H   0  0  0  0  0  0  0  0  0  0  0  0
    4.3132    0.2180    0.4789 H   0  0  0  0  0  0  0  0  0  0  0  0
    4.4178    0.0599   -2.0990 H   0  0  0  0  0  0  0  0  0  0  0  0
    5.8024   -2.2676   -2.1793 H   0  0  0  0  0  0  0  0  0  0  0  0
  1  2  1  0
  1 20  1  0
  1 21  1  0
  1 22  1  0
  2 19  1  0
  2  3  1  0
  2 23  1  6
  3  4  1  0
  3 24  1  0
  3 25  1  0
  4  5  2  0
  4  6  1  0
  6 16  1  0
  6 19  1  0
  6  7  1  1
  7  8  1  0
  7 26  1  0
  7 27  1  0
  8 15  1  0
  8  9  1  0
  8 28  1  1
  9 10  1  0
  9 29  1  0
  9 30  1  0
 10 16  1  0
 10 11  1  6
 10 12  1  0
 11 31  1  0
 11 32  1  0
 11 33  1  0
 12 13  1  0
 12 14  1  0
 12 34  1  1
 13 35  1  0
 14 15  1  0
 15 16  1  0
 15 36  1  6
 16 17  1  6
 17 18  2  0
 17 37  1  0
 18 19  1  0
 18 38  1  0
 19 39  1  6
M  END
>  <i_m_ct_stereo_status>  (276) 
1

>  <s_m_source_file>  (276) 
/var/tmp/pbs.5076255.sched01/tmpy0mqr2dw/78t3ouse6d.sdf

>  <i_m_source_file_index>  (276) 
34

>  <i_lp_mmshare_version>  (276) 
48012

>  <i_f3d_flags>  (276) 
0

>  <s_epik_input>  (276) 
Tz1DMVtDSDJdW0NAQEhdKFtDSDNdKVtDQEhdMltDSF09W0NIXUMzKFtDQEBdMTI0KVtDQEBdNShbQ0gzXSlbQ0gyXVtDQEhdKFtDSDJdNClbQ0hdM09bQ0BASF01W09IXQ==

>  <s_epik_cmdline>  (276) 
J2VwaWtfcHl0aG9uJywgJy1waHQnLCAnMi4wJywgJy1waCcsICc3LjAnLCAnLXRuJywgJzgnLCAnLW1hJywgJzIwMCcsICctaW1hZScsICc8aW5maWxlLm1hZT4nLCAnLW9tYWUnLCAnPG91dGZpbGUubWFlPic=

>  <r_lp_tautomer_probability>  (276) 
1

>  <r_epik_Ionization_Penalty>  (276) 
3.7389e-08

>  <r_epik_Ionization_Penalty_Charging>  (276) 
0

>  <r_epik_Ionization_Penalty_Neutral>  (276) 
3.7389e-08

>  <r_epik_State_Penalty>  (276) 
-0

>  <r_epik_Charging_Adjusted_Penalty>  (276) 
0

>  <i_epik_Tot_Q>  (276) 
0

>  <i_epik_Tot_abs_Q>  (276) 
0

>  <s_epik_Chemistry_Notes>  (276) 
This compound contains an acetal/aminal-like group ( X-CH(R)-Y where X, Y are N, S, or O) that may be acid/base labile, releasing an aldehyde.

>  <s_lp_Force_Field>  (276) 
OPLS3e

>  <r_lp_Energy>  (276) 
50.7905

>  <b_lp_Chiralities_Consistent>  (276) 
1

>  <s_lp_Variant>  (276) 
83:0-1

>  <s_i_glide_gridfile>  (276) 
pfpi4k_grid

>  <i_i_glide_lignum>  (276) 
34

>  <i_i_glide_rotatable_bonds>  (276) 
1

>  <r_i_docking_score>  (276) 
-3.42256

>  <r_i_glide_ligand_efficiency>  (276) 
-0.180134

>  <r_i_glide_ligand_efficiency_sa>  (276) 
-0.480671

>  <r_i_glide_ligand_efficiency_ln>  (276) 
-0.867691

>  <r_i_glide_gscore>  (276) 
-3.42256

>  <r_i_glide_lipo>  (276) 
-0.356416

>  <r_i_glide_hbond>  (276) 
0

>  <r_i_glide_metal>  (276) 
-0

>  <r_i_glide_rewards>  (276) 
-1.7927

>  <r_i_glide_evdw>  (276) 
-21.2547

>  <r_i_glide_ecoul>  (276) 
-1.40469

>  <r_i_glide_erotb>  (276) 
0

>  <r_i_glide_esite>  (276) 
0

>  <r_i_glide_emodel>  (276) 
-27.418

>  <r_i_glide_energy>  (276) 
-22.6594

>  <r_i_glide_einternal>  (276) 
0.00206022

>  <r_i_glide_intrahb_reward>  (276) 
-0

>  <i_i_glide_confnum>  (276) 
1

>  <i_i_glide_posenum>  (276) 
17

>  <r_i_glide_eff_state_penalty>  (276) 
0

>  <ligand_id>  (276) 
83

>  <original_smiles>  (276) 
CC1CC(=O)C23CC4CC5(C)C(O)OC4C52C=CC13

>  <smiles>  (276) 
[H]OC1([H])OC2([H])C3([H])C([H])([H])C45C(=O)C([H])([H])C([H])(C([H])([H])[H])C4([H])C([H])=C([H])C25C1(C([H])([H])[H])C3([H])[H]

$$$$
85:0:0
     RDKit          3D

 53 56  0  0  1  0  0  0  0  0999 V2000
    1.7961    0.2571    2.0933 C   0  0  0  0  0  0  0  0  0  0  0  0
    1.3097    0.6605    3.2875 C   0  0  0  0  0  0  0  0  0  0  0  0
    0.9428   -0.3515    4.3758 C   0  0  1  0  0  0  0  0  0  0  0  0
    1.2034   -1.8343    4.0366 C   0  0  0  0  0  0  0  0  0  0  0  0
    1.6091    0.0184    5.7090 C   0  0  0  0  0  0  0  0  0  0  0  0
    1.4880    1.5212    6.0735 C   0  0  1  0  0  0  0  0  0  0  0  0
    2.0287    2.4264    4.9462 C   0  0  2  0  0  0  0  0  0  0  0  0
    2.3826    3.8815    5.4379 C   0  0  0  0  0  0  0  0  0  0  0  0
    3.1342    3.8688    6.7989 C   0  0  0  0  0  0  0  0  0  0  0  0
    3.4395    4.5253    4.5051 C   0  0  0  0  0  0  0  0  0  0  0  0
    1.1263    4.7858    5.5732 C   0  0  2  0  0  0  0  0  0  0  0  0
    0.1256    4.4368    6.7052 C   0  0  0  0  0  0  0  0  0  0  0  0
    0.1357    3.1018    7.2206 O   0  0  0  0  0  0  0  0  0  0  0  0
    0.0382    1.9438    6.4360 C   0  0  2  0  0  0  0  0  0  0  0  0
   -0.5263    0.9406    7.2805 O   0  0  0  0  0  0  0  0  0  0  0  0
   -0.9206    2.1400    5.2462 C   0  0  0  0  0  0  0  0  0  0  0  0
   -2.1184    1.9339    5.3799 O   0  0  0  0  0  0  0  0  0  0  0  0
   -0.3647    2.5991    3.8633 C   0  0  1  0  0  0  0  0  0  0  0  0
   -1.2226    1.9046    2.7508 C   0  0  0  0  0  0  0  0  0  0  0  0
   -0.6088    4.1479    3.6814 C   0  0  1  0  0  0  0  0  0  0  0  0
   -1.9369    4.5237    3.9876 O   0  0  0  0  0  0  0  0  0  0  0  0
    0.4300    5.1581    4.2444 C   0  0  1  0  0  0  0  0  0  0  0  0
   -0.0852    6.4833    4.3291 O   0  0  0  0  0  0  0  0  0  0  0  0
    1.1494    2.1688    3.6557 C   0  0  2  0  0  0  0  0  0  0  0  0
    1.6927    2.9363    2.5891 O   0  0  0  0  0  0  0  0  0  0  0  0
    2.0723    0.9484    1.3157 H   0  0  0  0  0  0  0  0  0  0  0  0
    1.9193   -0.7896    1.8423 H   0  0  0  0  0  0  0  0  0  0  0  0
   -0.1346   -0.2931    4.5214 H   0  0  0  0  0  0  0  0  0  0  0  0
    0.6243   -2.1495    3.1700 H   0  0  0  0  0  0  0  0  0  0  0  0
    0.9016   -2.4804    4.8670 H   0  0  0  0  0  0  0  0  0  0  0  0
    2.2559   -2.0327    3.8435 H   0  0  0  0  0  0  0  0  0  0  0  0
    1.2710   -0.6342    6.5121 H   0  0  0  0  0  0  0  0  0  0  0  0
    2.6799   -0.1903    5.6063 H   0  0  0  0  0  0  0  0  0  0  0  0
    2.0778    1.6086    6.9886 H   0  0  0  0  0  0  0  0  0  0  0  0
    3.0044    1.9997    4.7041 H   0  0  0  0  0  0  0  0  0  0  0  0
    3.5467    4.8460    7.0390 H   0  0  0  0  0  0  0  0  0  0  0  0
    3.9689    3.1635    6.7860 H   0  0  0  0  0  0  0  0  0  0  0  0
    2.5125    3.6055    7.6531 H   0  0  0  0  0  0  0  0  0  0  0  0
    3.7260    5.5182    4.8447 H   0  0  0  0  0  0  0  0  0  0  0  0
    3.1637    4.6305    3.4662 H   0  0  0  0  0  0  0  0  0  0  0  0
    4.3460    3.9197    4.5012 H   0  0  0  0  0  0  0  0  0  0  0  0
    1.5450    5.7469    5.8942 H   0  0  0  0  0  0  0  0  0  0  0  0
    0.3882    5.0496    7.5691 H   0  0  0  0  0  0  0  0  0  0  0  0
   -0.8874    4.7395    6.4498 H   0  0  0  0  0  0  0  0  0  0  0  0
    0.0548    0.8575    8.0149 H   0  0  0  0  0  0  0  0  0  0  0  0
   -0.8135    2.0857    1.7538 H   0  0  0  0  0  0  0  0  0  0  0  0
   -2.2617    2.2392    2.7398 H   0  0  0  0  0  0  0  0  0  0  0  0
   -1.2749    0.8206    2.8723 H   0  0  0  0  0  0  0  0  0  0  0  0
   -0.6381    4.3450    2.6212 H   0  0  0  0  0  0  0  0  0  0  0  0
   -2.4965    3.9627    3.4789 H   0  0  0  0  0  0  0  0  0  0  0  0
    1.1858    5.2783    3.4757 H   0  0  0  0  0  0  0  0  0  0  0  0
    0.2052    6.9886    3.5733 H   0  0  0  0  0  0  0  0  0  0  0  0
    1.0193    3.2078    1.9713 H   0  0  0  0  0  0  0  0  0  0  0  0
  1  2  2  0
  1 26  1  0
  1 27  1  0
  2 24  1  0
  2  3  1  0
  3  4  1  0
  3  5  1  0
  3 28  1  1
  4 29  1  0
  4 30  1  0
  4 31  1  0
  5  6  1  0
  5 32  1  0
  5 33  1  0
  6 14  1  0
  6  7  1  0
  6 34  1  1
  7 24  1  0
  7  8  1  0
  7 35  1  6
  8  9  1  0
  8 10  1  0
  8 11  1  0
  9 36  1  0
  9 37  1  0
  9 38  1  0
 10 39  1  0
 10 40  1  0
 10 41  1  0
 11 22  1  0
 11 12  1  0
 11 42  1  1
 12 13  1  0
 12 43  1  0
 12 44  1  0
 13 14  1  0
 14 15  1  1
 14 16  1  0
 15 45  1  0
 16 17  2  0
 16 18  1  0
 18 19  1  6
 18 20  1  0
 18 24  1  0
 19 46  1  0
 19 47  1  0
 19 48  1  0
 20 21  1  0
 20 22  1  0
 20 49  1  6
 21 50  1  0
 22 23  1  0
 22 51  1  6
 23 52  1  0
 24 25  1  6
 25 53  1  0
M  END
>  <i_m_ct_stereo_status>  (277) 
1

>  <s_m_source_file>  (277) 
/var/tmp/pbs.5076255.sched01/tmpy0mqr2dw/78t3ouse6d.sdf

>  <i_m_source_file_index>  (277) 
36

>  <i_lp_mmshare_version>  (277) 
48012

>  <i_f3d_flags>  (277) 
0

>  <s_epik_input>  (277) 
W09IXVtDQF0xMltDQEBIXTNbQ0BIXTRbQ0BAXShbT0hdKShDKD1bQ0gyXSlbQ0BASF0oW0NIM10pW0NIMl0zKVtDQF0oQzI9TykoW0NIM10pW0NAQEhdKFtPSF0pW0NAQEhdKFtPSF0pW0NAQEhdKFtDSDJdTzEpQzQoW0NIM10pW0NIM10=

>  <s_epik_cmdline>  (277) 
J2VwaWtfcHl0aG9uJywgJy1waHQnLCAnMi4wJywgJy1waCcsICc3LjAnLCAnLXRuJywgJzgnLCAnLW1hJywgJzIwMCcsICctaW1hZScsICc8aW5maWxlLm1hZT4nLCAnLW9tYWUnLCAnPG91dGZpbGUubWFlPic=

>  <r_lp_tautomer_probability>  (277) 
1

>  <r_epik_Ionization_Penalty>  (277) 
3.88123e-07

>  <r_epik_Ionization_Penalty_Charging>  (277) 
0

>  <r_epik_Ionization_Penalty_Neutral>  (277) 
3.88123e-07

>  <r_epik_State_Penalty>  (277) 
-0

>  <r_epik_Charging_Adjusted_Penalty>  (277) 
0

>  <i_epik_Tot_Q>  (277) 
0

>  <i_epik_Tot_abs_Q>  (277) 
0

>  <s_lp_Force_Field>  (277) 
OPLS3e

>  <r_lp_Energy>  (277) 
59.3511

>  <b_lp_Chiralities_Consistent>  (277) 
1

>  <s_lp_Variant>  (277) 
85:0-1

>  <s_i_glide_gridfile>  (277) 
pfpi4k_grid

>  <i_i_glide_lignum>  (277) 
36

>  <i_i_glide_rotatable_bonds>  (277) 
4

>  <r_i_docking_score>  (277) 
-3.87234

>  <r_i_glide_ligand_efficiency>  (277) 
-0.154894

>  <r_i_glide_ligand_efficiency_sa>  (277) 
-0.452912

>  <r_i_glide_ligand_efficiency_ln>  (277) 
-0.917862

>  <r_i_glide_gscore>  (277) 
-3.87234

>  <r_i_glide_lipo>  (277) 
-0.00642686

>  <r_i_glide_hbond>  (277) 
-0.152

>  <r_i_glide_metal>  (277) 
-0

>  <r_i_glide_rewards>  (277) 
-1.00621

>  <r_i_glide_evdw>  (277) 
-15.497

>  <r_i_glide_ecoul>  (277) 
-12.8193

>  <r_i_glide_erotb>  (277) 
0

>  <r_i_glide_esite>  (277) 
-0.00995552

>  <r_i_glide_emodel>  (277) 
-36.1362

>  <r_i_glide_energy>  (277) 
-28.3163

>  <r_i_glide_einternal>  (277) 
2.08284

>  <r_i_glide_intrahb_reward>  (277) 
-0

>  <i_i_glide_confnum>  (277) 
2

>  <i_i_glide_posenum>  (277) 
35

>  <r_i_glide_eff_state_penalty>  (277) 
0

>  <ligand_id>  (277) 
85

>  <original_smiles>  (277) 
C=C1C(C)CC2C3C(C)(C)C4COC2(O)C(=O)C(C)(C(O)C4O)C13O

>  <smiles>  (277) 
[H]OC12OC([H])([H])C3([H])C([H])(O[H])C([H])(O[H])C(C([H])([H])[H])(C1=O)C1(O[H])C(=C([H])[H])C([H])(C([H])([H])[H])C([H])([H])C2([H])C1([H])C3(C([H])([H])[H])C([H])([H])[H]

$$$$
85:0:1
     RDKit          3D

 53 56  0  0  1  0  0  0  0  0999 V2000
    2.7606   -0.5451    3.5653 C   0  0  0  0  0  0  0  0  0  0  0  0
    2.0573    0.0893    4.5263 C   0  0  0  0  0  0  0  0  0  0  0  0
    1.9561   -0.4880    5.9473 C   0  0  1  0  0  0  0  0  0  0  0  0
    2.7512   -1.7857    6.1989 C   0  0  0  0  0  0  0  0  0  0  0  0
    2.3305    0.5823    6.9768 C   0  0  0  0  0  0  0  0  0  0  0  0
    1.6461    1.9522    6.7378 C   0  0  1  0  0  0  0  0  0  0  0  0
    1.9507    2.4820    5.3169 C   0  0  2  0  0  0  0  0  0  0  0  0
    1.7295    4.0359    5.1697 C   0  0  0  0  0  0  0  0  0  0  0  0
    2.3084    4.8197    6.3860 C   0  0  0  0  0  0  0  0  0  0  0  0
    2.5917    4.6042    4.0007 C   0  0  0  0  0  0  0  0  0  0  0  0
    0.2235    4.4150    5.0139 C   0  0  2  0  0  0  0  0  0  0  0  0
   -0.6897    4.1893    6.2446 C   0  0  0  0  0  0  0  0  0  0  0  0
   -0.2833    3.2530    7.2423 O   0  0  0  0  0  0  0  0  0  0  0  0
    0.1112    1.9351    6.9819 C   0  0  2  0  0  0  0  0  0  0  0  0
   -0.1385    1.1972    8.1594 O   0  0  0  0  0  0  0  0  0  0  0  0
   -0.7456    1.2909    5.8520 C   0  0  0  0  0  0  0  0  0  0  0  0
   -1.7851    0.6851    6.1387 O   0  0  0  0  0  0  0  0  0  0  0  0
   -0.2476    1.3590    4.3686 C   0  0  1  0  0  0  0  0  0  0  0  0
   -0.6912    0.0354    3.6791 C   0  0  0  0  0  0  0  0  0  0  0  0
   -0.9919    2.5115    3.5846 C   0  0  1  0  0  0  0  0  0  0  0  0
   -2.3996    2.5030    3.8027 O   0  0  0  0  0  0  0  0  0  0  0  0
   -0.4430    3.9635    3.6986 C   0  0  1  0  0  0  0  0  0  0  0  0
   -1.3877    4.9344    3.2744 O   0  0  0  0  0  0  0  0  0  0  0  0
    1.3424    1.4568    4.2842 C   0  0  2  0  0  0  0  0  0  0  0  0
    1.6732    1.8625    2.9644 O   0  0  0  0  0  0  0  0  0  0  0  0
    2.8523   -0.1523    2.5619 H   0  0  0  0  0  0  0  0  0  0  0  0
    3.2668   -1.4793    3.7399 H   0  0  0  0  0  0  0  0  0  0  0  0
    0.9175   -0.7629    6.1098 H   0  0  0  0  0  0  0  0  0  0  0  0
    2.4035   -2.5941    5.5552 H   0  0  0  0  0  0  0  0  0  0  0  0
    2.6152   -2.1235    7.2268 H   0  0  0  0  0  0  0  0  0  0  0  0
    3.8231   -1.6554    6.0382 H   0  0  0  0  0  0  0  0  0  0  0  0
    2.1641    0.2140    7.9907 H   0  0  0  0  0  0  0  0  0  0  0  0
    3.4087    0.7472    6.9113 H   0  0  0  0  0  0  0  0  0  0  0  0
    2.0780    2.5904    7.5054 H   0  0  0  0  0  0  0  0  0  0  0  0
    3.0314    2.3805    5.2118 H   0  0  0  0  0  0  0  0  0  0  0  0
    2.3301    5.8941    6.2023 H   0  0  0  0  0  0  0  0  0  0  0  0
    3.3308    4.5151    6.6043 H   0  0  0  0  0  0  0  0  0  0  0  0
    1.7353    4.7005    7.3022 H   0  0  0  0  0  0  0  0  0  0  0  0
    2.4772    5.6853    3.9073 H   0  0  0  0  0  0  0  0  0  0  0  0
    2.3821    4.1979    3.0167 H   0  0  0  0  0  0  0  0  0  0  0  0
    3.6518    4.4194    4.1727 H   0  0  0  0  0  0  0  0  0  0  0  0
    0.2525    5.5009    4.9060 H   0  0  0  0  0  0  0  0  0  0  0  0
   -0.7376    5.1365    6.7833 H   0  0  0  0  0  0  0  0  0  0  0  0
   -1.7186    3.9996    5.9424 H   0  0  0  0  0  0  0  0  0  0  0  0
    0.3852    1.5782    8.8456 H   0  0  0  0  0  0  0  0  0  0  0  0
   -0.2766   -0.0397    2.6725 H   0  0  0  0  0  0  0  0  0  0  0  0
   -1.7765   -0.0486    3.6046 H   0  0  0  0  0  0  0  0  0  0  0  0
   -0.3669   -0.8533    4.2241 H   0  0  0  0  0  0  0  0  0  0  0  0
   -0.9168    2.2729    2.5189 H   0  0  0  0  0  0  0  0  0  0  0  0
   -2.7659    1.7247    3.3979 H   0  0  0  0  0  0  0  0  0  0  0  0
    0.2931    4.0715    2.9093 H   0  0  0  0  0  0  0  0  0  0  0  0
   -1.2950    4.9652    2.3276 H   0  0  0  0  0  0  0  0  0  0  0  0
    1.1877    2.6383    2.7294 H   0  0  0  0  0  0  0  0  0  0  0  0
  1  2  2  0
  1 26  1  0
  1 27  1  0
  2 24  1  0
  2  3  1  0
  3  4  1  0
  3  5  1  0
  3 28  1  1
  4 29  1  0
  4 30  1  0
  4 31  1  0
  5  6  1  0
  5 32  1  0
  5 33  1  0
  6 14  1  0
  6  7  1  0
  6 34  1  1
  7 24  1  0
  7  8  1  0
  7 35  1  6
  8  9  1  0
  8 10  1  0
  8 11  1  0
  9 36  1  0
  9 37  1  0
  9 38  1  0
 10 39  1  0
 10 40  1  0
 10 41  1  0
 11 22  1  0
 11 12  1  0
 11 42  1  6
 12 13  1  0
 12 43  1  0
 12 44  1  0
 13 14  1  0
 14 15  1  1
 14 16  1  0
 15 45  1  0
 16 17  2  0
 16 18  1  0
 18 19  1  6
 18 20  1  0
 18 24  1  0
 19 46  1  0
 19 47  1  0
 19 48  1  0
 20 21  1  0
 20 22  1  0
 20 49  1  6
 21 50  1  0
 22 23  1  0
 22 51  1  6
 23 52  1  0
 24 25  1  6
 25 53  1  0
M  END
>  <i_m_ct_stereo_status>  (278) 
1

>  <s_m_source_file>  (278) 
/var/tmp/pbs.5076255.sched01/tmpy0mqr2dw/78t3ouse6d.sdf

>  <i_m_source_file_index>  (278) 
36

>  <i_lp_mmshare_version>  (278) 
48012

>  <i_f3d_flags>  (278) 
0

>  <s_epik_input>  (278) 
W09IXVtDQF0xMltDQEBIXTNbQ0BIXTRbQ0BAXShbT0hdKShDKD1bQ0gyXSlbQ0BASF0oW0NIM10pW0NIMl0zKVtDQF0oQzI9TykoW0NIM10pW0NAQEhdKFtPSF0pW0NAQEhdKFtPSF0pW0NAQEhdKFtDSDJdTzEpQzQoW0NIM10pW0NIM10=

>  <s_epik_cmdline>  (278) 
J2VwaWtfcHl0aG9uJywgJy1waHQnLCAnMi4wJywgJy1waCcsICc3LjAnLCAnLXRuJywgJzgnLCAnLW1hJywgJzIwMCcsICctaW1hZScsICc8aW5maWxlLm1hZT4nLCAnLW9tYWUnLCAnPG91dGZpbGUubWFlPic=

>  <r_lp_tautomer_probability>  (278) 
1

>  <r_epik_Ionization_Penalty>  (278) 
3.88123e-07

>  <r_epik_Ionization_Penalty_Charging>  (278) 
0

>  <r_epik_Ionization_Penalty_Neutral>  (278) 
3.88123e-07

>  <r_epik_State_Penalty>  (278) 
-0

>  <r_epik_Charging_Adjusted_Penalty>  (278) 
0

>  <i_epik_Tot_Q>  (278) 
0

>  <i_epik_Tot_abs_Q>  (278) 
0

>  <s_lp_Force_Field>  (278) 
OPLS3e

>  <r_lp_Energy>  (278) 
59.3511

>  <b_lp_Chiralities_Consistent>  (278) 
1

>  <s_lp_Variant>  (278) 
85:0-1

>  <s_i_glide_gridfile>  (278) 
pfpi4k_grid

>  <i_i_glide_lignum>  (278) 
36

>  <i_i_glide_rotatable_bonds>  (278) 
4

>  <r_i_docking_score>  (278) 
-3.78598

>  <r_i_glide_ligand_efficiency>  (278) 
-0.151439

>  <r_i_glide_ligand_efficiency_sa>  (278) 
-0.442811

>  <r_i_glide_ligand_efficiency_ln>  (278) 
-0.897391

>  <r_i_glide_gscore>  (278) 
-3.78598

>  <r_i_glide_lipo>  (278) 
0

>  <r_i_glide_hbond>  (278) 
-0.0621289

>  <r_i_glide_metal>  (278) 
-0

>  <r_i_glide_rewards>  (278) 
-1.00621

>  <r_i_glide_evdw>  (278) 
-19.2732

>  <r_i_glide_ecoul>  (278) 
-11.5797

>  <r_i_glide_erotb>  (278) 
0

>  <r_i_glide_esite>  (278) 
-0.0170137

>  <r_i_glide_emodel>  (278) 
-38.631

>  <r_i_glide_energy>  (278) 
-30.853

>  <r_i_glide_einternal>  (278) 
1.64371

>  <r_i_glide_intrahb_reward>  (278) 
-0

>  <i_i_glide_confnum>  (278) 
1

>  <i_i_glide_posenum>  (278) 
20

>  <r_i_glide_eff_state_penalty>  (278) 
0

>  <ligand_id>  (278) 
85

>  <original_smiles>  (278) 
C=C1C(C)CC2C3C(C)(C)C4COC2(O)C(=O)C(C)(C(O)C4O)C13O

>  <smiles>  (278) 
[H]OC12OC([H])([H])C3([H])C([H])(O[H])C([H])(O[H])C(C([H])([H])[H])(C1=O)C1(O[H])C(=C([H])[H])C([H])(C([H])([H])[H])C([H])([H])C2([H])C1([H])C3(C([H])([H])[H])C([H])([H])[H]

$$$$
85:0:2
     RDKit          3D

 53 56  0  0  1  0  0  0  0  0999 V2000
    3.2128   -0.0349    2.5206 C   0  0  0  0  0  0  0  0  0  0  0  0
    2.5280    0.3774    3.6135 C   0  0  0  0  0  0  0  0  0  0  0  0
    2.4676   -0.4896    4.8800 C   0  0  1  0  0  0  0  0  0  0  0  0
    3.2779   -1.8013    4.8356 C   0  0  0  0  0  0  0  0  0  0  0  0
    2.8606    0.3430    6.1054 C   0  0  0  0  0  0  0  0  0  0  0  0
    2.1664    1.7266    6.1750 C   0  0  1  0  0  0  0  0  0  0  0  0
    2.4306    2.5477    4.8890 C   0  0  2  0  0  0  0  0  0  0  0  0
    2.1954    4.0930    5.0831 C   0  0  0  0  0  0  0  0  0  0  0  0
    2.8048    4.6089    6.4209 C   0  0  0  0  0  0  0  0  0  0  0  0
    3.0201    4.9047    4.0410 C   0  0  0  0  0  0  0  0  0  0  0  0
    0.6824    4.4811    5.0466 C   0  0  2  0  0  0  0  0  0  0  0  0
   -0.1944    3.9939    6.2253 C   0  0  0  0  0  0  0  0  0  0  0  0
    0.2491    2.8748    6.9912 O   0  0  0  0  0  0  0  0  0  0  0  0
    0.6394    1.6434    6.4518 C   0  0  2  0  0  0  0  0  0  0  0  0
    0.4198    0.6751    7.4565 O   0  0  0  0  0  0  0  0  0  0  0  0
   -0.2424    1.2444    5.2321 C   0  0  0  0  0  0  0  0  0  0  0  0
   -1.2900    0.6082    5.4066 O   0  0  0  0  0  0  0  0  0  0  0  0
    0.2194    1.6224    3.7860 C   0  0  1  0  0  0  0  0  0  0  0  0
   -0.2371    0.4787    2.8323 C   0  0  0  0  0  0  0  0  0  0  0  0
   -0.5620    2.8991    3.2937 C   0  0  1  0  0  0  0  0  0  0  0  0
   -1.9613    2.8197    3.5482 O   0  0  0  0  0  0  0  0  0  0  0  0
   -0.0127    4.3041    3.6799 C   0  0  1  0  0  0  0  0  0  0  0  0
   -0.9744    5.3227    3.4601 O   0  0  0  0  0  0  0  0  0  0  0  0
    1.8027    1.7573    3.6794 C   0  0  2  0  0  0  0  0  0  0  0  0
    2.1033    2.4433    2.4730 O   0  0  0  0  0  0  0  0  0  0  0  0
    3.2732    0.5626    1.6242 H   0  0  0  0  0  0  0  0  0  0  0  0
    3.7244   -0.9792    2.4856 H   0  0  0  0  0  0  0  0  0  0  0  0
    1.4349   -0.8047    5.0053 H   0  0  0  0  0  0  0  0  0  0  0  0
    2.9181   -2.4594    4.0445 H   0  0  0  0  0  0  0  0  0  0  0  0
    3.1694   -2.3491    5.7719 H   0  0  0  0  0  0  0  0  0  0  0  0
    4.3453   -1.6296    4.6806 H   0  0  0  0  0  0  0  0  0  0  0  0
    2.7200   -0.2333    7.0235 H   0  0  0  0  0  0  0  0  0  0  0  0
    3.9361    0.5296    6.0505 H   0  0  0  0  0  0  0  0  0  0  0  0
    2.6165    2.1926    7.0485 H   0  0  0  0  0  0  0  0  0  0  0  0
    3.5078    2.4809    4.7360 H   0  0  0  0  0  0  0  0  0  0  0  0
    2.8164    5.6978    6.4653 H   0  0  0  0  0  0  0  0  0  0  0  0
    3.8341    4.2762    6.5436 H   0  0  0  0  0  0  0  0  0  0  0  0
    2.2577    4.2949    7.3062 H   0  0  0  0  0  0  0  0  0  0  0  0
    2.8973    5.9792    4.1770 H   0  0  0  0  0  0  0  0  0  0  0  0
    2.7949    4.7048    2.9995 H   0  0  0  0  0  0  0  0  0  0  0  0
    4.0832    4.7010    4.1520 H   0  0  0  0  0  0  0  0  0  0  0  0
    0.7006    5.5636    5.1633 H   0  0  0  0  0  0  0  0  0  0  0  0
   -0.2376    4.8084    6.9501 H   0  0  0  0  0  0  0  0  0  0  0  0
   -1.2275    3.8515    5.9135 H   0  0  0  0  0  0  0  0  0  0  0  0
    0.9700    0.9029    8.1849 H   0  0  0  0  0  0  0  0  0  0  0  0
    0.1465    0.6195    1.8183 H   0  0  0  0  0  0  0  0  0  0  0  0
   -1.3243    0.4091    2.7655 H   0  0  0  0  0  0  0  0  0  0  0  0
    0.1037   -0.5008    3.1713 H   0  0  0  0  0  0  0  0  0  0  0  0
   -0.5369    2.8722    2.2022 H   0  0  0  0  0  0  0  0  0  0  0  0
   -2.3144    2.1016    3.0369 H   0  0  0  0  0  0  0  0  0  0  0  0
    0.7114    4.5752    2.9214 H   0  0  0  0  0  0  0  0  0  0  0  0
   -0.9384    5.4815    2.5227 H   0  0  0  0  0  0  0  0  0  0  0  0
    1.3925    3.0152    2.2175 H   0  0  0  0  0  0  0  0  0  0  0  0
  1  2  2  0
  1 26  1  0
  1 27  1  0
  2 24  1  0
  2  3  1  0
  3  4  1  0
  3  5  1  0
  3 28  1  1
  4 29  1  0
  4 30  1  0
  4 31  1  0
  5  6  1  0
  5 32  1  0
  5 33  1  0
  6 14  1  0
  6  7  1  0
  6 34  1  1
  7 24  1  0
  7  8  1  0
  7 35  1  6
  8  9  1  0
  8 10  1  0
  8 11  1  0
  9 36  1  0
  9 37  1  0
  9 38  1  0
 10 39  1  0
 10 40  1  0
 10 41  1  0
 11 22  1  0
 11 12  1  0
 11 42  1  1
 12 13  1  0
 12 43  1  0
 12 44  1  0
 13 14  1  0
 14 15  1  1
 14 16  1  0
 15 45  1  0
 16 17  2  0
 16 18  1  0
 18 19  1  6
 18 20  1  0
 18 24  1  0
 19 46  1  0
 19 47  1  0
 19 48  1  0
 20 21  1  0
 20 22  1  0
 20 49  1  6
 21 50  1  0
 22 23  1  0
 22 51  1  6
 23 52  1  0
 24 25  1  6
 25 53  1  0
M  END
>  <i_m_ct_stereo_status>  (279) 
1

>  <s_m_source_file>  (279) 
/var/tmp/pbs.5076255.sched01/tmpy0mqr2dw/78t3ouse6d.sdf

>  <i_m_source_file_index>  (279) 
36

>  <i_lp_mmshare_version>  (279) 
48012

>  <i_f3d_flags>  (279) 
0

>  <s_epik_input>  (279) 
W09IXVtDQF0xMltDQEBIXTNbQ0BIXTRbQ0BAXShbT0hdKShDKD1bQ0gyXSlbQ0BASF0oW0NIM10pW0NIMl0zKVtDQF0oQzI9TykoW0NIM10pW0NAQEhdKFtPSF0pW0NAQEhdKFtPSF0pW0NAQEhdKFtDSDJdTzEpQzQoW0NIM10pW0NIM10=

>  <s_epik_cmdline>  (279) 
J2VwaWtfcHl0aG9uJywgJy1waHQnLCAnMi4wJywgJy1waCcsICc3LjAnLCAnLXRuJywgJzgnLCAnLW1hJywgJzIwMCcsICctaW1hZScsICc8aW5maWxlLm1hZT4nLCAnLW9tYWUnLCAnPG91dGZpbGUubWFlPic=

>  <r_lp_tautomer_probability>  (279) 
1

>  <r_epik_Ionization_Penalty>  (279) 
3.88123e-07

>  <r_epik_Ionization_Penalty_Charging>  (279) 
0

>  <r_epik_Ionization_Penalty_Neutral>  (279) 
3.88123e-07

>  <r_epik_State_Penalty>  (279) 
-0

>  <r_epik_Charging_Adjusted_Penalty>  (279) 
0

>  <i_epik_Tot_Q>  (279) 
0

>  <i_epik_Tot_abs_Q>  (279) 
0

>  <s_lp_Force_Field>  (279) 
OPLS3e

>  <r_lp_Energy>  (279) 
59.3511

>  <b_lp_Chiralities_Consistent>  (279) 
1

>  <s_lp_Variant>  (279) 
85:0-1

>  <s_i_glide_gridfile>  (279) 
pfpi4k_grid

>  <i_i_glide_lignum>  (279) 
36

>  <i_i_glide_rotatable_bonds>  (279) 
4

>  <r_i_docking_score>  (279) 
-3.46154

>  <r_i_glide_ligand_efficiency>  (279) 
-0.138462

>  <r_i_glide_ligand_efficiency_sa>  (279) 
-0.404865

>  <r_i_glide_ligand_efficiency_ln>  (279) 
-0.820489

>  <r_i_glide_gscore>  (279) 
-3.46154

>  <r_i_glide_lipo>  (279) 
-0.0302244

>  <r_i_glide_hbond>  (279) 
-0.031595

>  <r_i_glide_metal>  (279) 
-0

>  <r_i_glide_rewards>  (279) 
-1.00621

>  <r_i_glide_evdw>  (279) 
-18.9191

>  <r_i_glide_ecoul>  (279) 
-9.58656

>  <r_i_glide_erotb>  (279) 
0

>  <r_i_glide_esite>  (279) 
-0.00956909

>  <r_i_glide_emodel>  (279) 
-35.4144

>  <r_i_glide_energy>  (279) 
-28.5057

>  <r_i_glide_einternal>  (279) 
1.79575

>  <r_i_glide_intrahb_reward>  (279) 
-0

>  <i_i_glide_confnum>  (279) 
1

>  <i_i_glide_posenum>  (279) 
8

>  <r_i_glide_eff_state_penalty>  (279) 
0

>  <ligand_id>  (279) 
85

>  <original_smiles>  (279) 
C=C1C(C)CC2C3C(C)(C)C4COC2(O)C(=O)C(C)(C(O)C4O)C13O

>  <smiles>  (279) 
[H]OC12OC([H])([H])C3([H])C([H])(O[H])C([H])(O[H])C(C([H])([H])[H])(C1=O)C1(O[H])C(=C([H])[H])C([H])(C([H])([H])[H])C([H])([H])C2([H])C1([H])C3(C([H])([H])[H])C([H])([H])[H]

$$$$
87:0:0
     RDKit          3D

 42 45  0  0  1  0  0  0  0  0999 V2000
   -2.0623    4.1245    3.1211 C   0  0  0  0  0  0  0  0  0  0  0  0
   -0.9882    3.7710    4.0606 N   0  0  0  0  0  0  0  0  0  0  0  0
    0.1538    4.5251    4.1431 C   0  0  0  0  0  0  0  0  0  0  0  0
    0.0519    5.8524    4.0090 N   0  0  0  0  0  0  0  0  0  0  0  0
    1.1508    6.5837    4.0553 C   0  0  0  0  0  0  0  0  0  0  0  0
    2.4255    6.0015    4.1515 C   0  0  0  0  0  0  0  0  0  0  0  0
    2.4598    4.6050    4.2572 C   0  0  0  0  0  0  0  0  0  0  0  0
    1.3011    3.8748    4.3228 N   0  0  0  0  0  0  0  0  0  0  0  0
   -1.3469    2.6869    4.8622 C   0  0  0  0  0  0  0  0  0  0  0  0
   -2.2091    2.9568    5.8431 N   0  0  0  0  0  0  0  0  0  0  0  0
   -2.4656    1.9756    6.7117 C   0  0  0  0  0  0  0  0  0  0  0  0
   -1.9736    0.7358    6.7544 N   0  0  0  0  0  0  0  0  0  0  0  0
   -1.1563    0.4641    5.7195 C   0  0  0  0  0  0  0  0  0  0  0  0
   -0.3002   -1.0736    5.4755 S   0  0  0  0  0  0  0  0  0  0  0  0
    0.4018   -0.4561    4.0147 C   0  0  0  0  0  0  0  0  0  0  0  0
    0.0256    0.8312    3.6688 C   0  0  0  0  0  0  0  0  0  0  0  0
   -0.8182    1.3799    4.6876 C   0  0  0  0  0  0  0  0  0  0  0  0
    0.5340    1.5343    2.4735 C   0  0  0  0  0  0  0  0  0  0  0  0
    1.2599    0.6665    1.5562 N   0  0  0  0  0  0  0  0  0  0  0  0
    2.2092   -0.2578    2.2390 C   0  0  0  0  0  0  0  0  0  0  0  0
    3.0013   -0.9648    1.1266 C   0  0  0  0  0  0  0  0  0  0  0  0
    3.2784    0.5176    3.0872 C   0  0  0  0  0  0  0  0  0  0  0  0
    1.3957   -1.2332    3.1518 C   0  0  0  0  0  0  0  0  0  0  0  0
   -2.7577    3.3032    2.9565 H   0  0  0  0  0  0  0  0  0  0  0  0
   -1.6725    4.4180    2.1441 H   0  0  0  0  0  0  0  0  0  0  0  0
   -2.6218    4.9512    3.5352 H   0  0  0  0  0  0  0  0  0  0  0  0
    0.9990    7.6766    4.0750 H   0  0  0  0  0  0  0  0  0  0  0  0
    3.3011    6.5973    4.1258 H   0  0  0  0  0  0  0  0  0  0  0  0
    3.3765    4.0762    4.2305 H   0  0  0  0  0  0  0  0  0  0  0  0
   -3.1834    2.2043    7.4773 H   0  0  0  0  0  0  0  0  0  0  0  0
   -0.2385    2.1147    1.9750 H   0  0  0  0  0  0  0  0  0  0  0  0
    1.3506    2.2087    2.7078 H   0  0  0  0  0  0  0  0  0  0  0  0
    0.6338    0.1620    0.9180 H   0  0  0  0  0  0  0  0  0  0  0  0
    3.7685   -1.6355    1.5199 H   0  0  0  0  0  0  0  0  0  0  0  0
    3.5168   -0.2439    0.4725 H   0  0  0  0  0  0  0  0  0  0  0  0
    2.3525   -1.5542    0.4836 H   0  0  0  0  0  0  0  0  0  0  0  0
    4.0812   -0.1381    3.4554 H   0  0  0  0  0  0  0  0  0  0  0  0
    2.8641    0.9888    3.9739 H   0  0  0  0  0  0  0  0  0  0  0  0
    3.7516    1.3198    2.5165 H   0  0  0  0  0  0  0  0  0  0  0  0
    2.0851   -1.8837    3.7145 H   0  0  0  0  0  0  0  0  0  0  0  0
    0.8314   -1.8832    2.4898 H   0  0  0  0  0  0  0  0  0  0  0  0
    1.7766    1.3398    1.0063 H   0  0  0  0  0  0  0  0  0  0  0  0
  1  2  1  0
  1 24  1  0
  1 25  1  0
  1 26  1  0
  2  3  1  0
  2  9  1  0
  3  8  1  0
  3  4  2  0
  4  5  1  0
  5  6  2  0
  5 27  1  0
  6  7  1  0
  6 28  1  0
  7  8  2  0
  7 29  1  0
  9 17  1  0
  9 10  2  0
 10 11  1  0
 11 12  2  0
 11 30  1  0
 12 13  1  0
 13 17  2  0
 13 14  1  0
 14 15  1  0
 15 23  1  0
 15 16  2  0
 16 17  1  0
 16 18  1  0
 18 19  1  0
 18 31  1  0
 18 32  1  0
 19 20  1  0
 19 33  1  0
 19 42  1  0
 20 21  1  0
 20 22  1  0
 20 23  1  0
 21 34  1  0
 21 35  1  0
 21 36  1  0
 22 37  1  0
 22 38  1  0
 22 39  1  0
 23 40  1  0
 23 41  1  0
M  CHG  1  19   1
M  END
>  <i_m_ct_stereo_status>  (280) 
1

>  <s_m_source_file>  (280) 
/var/tmp/pbs.5076255.sched01/tmpy0mqr2dw/78t3ouse6d.sdf

>  <i_m_source_file_index>  (280) 
38

>  <i_lp_mmshare_version>  (280) 
48012

>  <i_f3d_flags>  (280) 
0

>  <s_epik_input>  (280) 
bjFbY0hdW2NIXVtjSF1uYzFOKFtDSDNdKWMobltjSF1uMiljKGMyMyljNGMoczMpW0NIMl1DKFtDSDNdKShbQ0gzXSlbTkhdW0NIMl00

>  <s_epik_cmdline>  (280) 
J2VwaWtfcHl0aG9uJywgJy1waHQnLCAnMi4wJywgJy1waCcsICc3LjAnLCAnLXRuJywgJzgnLCAnLW1hJywgJzIwMCcsICctaW1hZScsICc8aW5maWxlLm1hZT4nLCAnLW9tYWUnLCAnPG91dGZpbGUubWFlPic=

>  <r_lp_tautomer_probability>  (280) 
1

>  <r_epik_Ionization_Penalty>  (280) 
0.00584606

>  <r_epik_Ionization_Penalty_Charging>  (280) 
0.00578305

>  <r_epik_Ionization_Penalty_Neutral>  (280) 
6.30178e-05

>  <r_epik_State_Penalty>  (280) 
0.00424616

>  <r_epik_Charging_Adjusted_Penalty>  (280) 
0.0100292

>  <i_epik_Tot_Q>  (280) 
1

>  <i_epik_Tot_abs_Q>  (280) 
1

>  <s_lp_Force_Field>  (280) 
OPLS3e

>  <r_lp_Energy>  (280) 
61.3947

>  <b_lp_Chiralities_Consistent>  (280) 
1

>  <s_lp_Variant>  (280) 
87:0-1

>  <s_i_glide_gridfile>  (280) 
pfpi4k_grid

>  <i_i_glide_lignum>  (280) 
38

>  <i_i_glide_rotatable_bonds>  (280) 
2

>  <r_i_docking_score>  (280) 
-3.85433

>  <r_i_glide_ligand_efficiency>  (280) 
-0.16758

>  <r_i_glide_ligand_efficiency_sa>  (280) 
-0.476574

>  <r_i_glide_ligand_efficiency_ln>  (280) 
-0.932013

>  <r_i_glide_gscore>  (280) 
-3.85433

>  <r_i_glide_lipo>  (280) 
-0.0109821

>  <r_i_glide_hbond>  (280) 
-0.325365

>  <r_i_glide_metal>  (280) 
-0

>  <r_i_glide_rewards>  (280) 
-1.17663

>  <r_i_glide_evdw>  (280) 
-20.7084

>  <r_i_glide_ecoul>  (280) 
-9.60087

>  <r_i_glide_erotb>  (280) 
0.35012

>  <r_i_glide_esite>  (280) 
-0.215933

>  <r_i_glide_emodel>  (280) 
-35.7452

>  <r_i_glide_energy>  (280) 
-30.3092

>  <r_i_glide_einternal>  (280) 
3.62359

>  <r_i_glide_intrahb_reward>  (280) 
-0

>  <i_i_glide_confnum>  (280) 
4

>  <i_i_glide_posenum>  (280) 
1

>  <r_i_glide_eff_state_penalty>  (280) 
0

>  <ligand_id>  (280) 
87

>  <original_smiles>  (280) 
CN(c1ncccn1)c1ncnc2sc3c(c12)CNC(C)(C)C3

>  <smiles>  (280) 
[H]c1nc(N(c2nc([H])c([H])c([H])n2)C([H])([H])[H])c2c3c(sc2n1)C([H])([H])C(C([H])([H])[H])(C([H])([H])[H])[N+]([H])([H])C3([H])[H]

$$$$
87:0:1
     RDKit          3D

 42 45  0  0  1  0  0  0  0  0999 V2000
    4.4966    0.0709    1.5275 C   0  0  0  0  0  0  0  0  0  0  0  0
    3.8317   -1.1997    1.2373 N   0  0  0  0  0  0  0  0  0  0  0  0
    3.7328   -1.6486   -0.0746 C   0  0  0  0  0  0  0  0  0  0  0  0
    3.0707   -2.8023   -0.2496 N   0  0  0  0  0  0  0  0  0  0  0  0
    2.9971   -3.2811   -1.5054 C   0  0  0  0  0  0  0  0  0  0  0  0
    3.5870   -2.6066   -2.5856 C   0  0  0  0  0  0  0  0  0  0  0  0
    4.1956   -1.3746   -2.2999 C   0  0  0  0  0  0  0  0  0  0  0  0
    4.2555   -0.9091   -1.0363 N   0  0  0  0  0  0  0  0  0  0  0  0
    3.4436   -1.8645    2.3887 C   0  0  0  0  0  0  0  0  0  0  0  0
    4.2330   -2.8720    2.8249 N   0  0  0  0  0  0  0  0  0  0  0  0
    3.8301   -3.5573    3.8753 C   0  0  0  0  0  0  0  0  0  0  0  0
    2.7073   -3.4093    4.6257 N   0  0  0  0  0  0  0  0  0  0  0  0
    1.9241   -2.3893    4.1945 C   0  0  0  0  0  0  0  0  0  0  0  0
    0.4015   -1.8731    4.9454 S   0  0  0  0  0  0  0  0  0  0  0  0
    0.2536   -0.5939    3.7829 C   0  0  0  0  0  0  0  0  0  0  0  0
    1.2570   -0.5499    2.8483 C   0  0  0  0  0  0  0  0  0  0  0  0
    2.2422   -1.5643    3.0681 C   0  0  0  0  0  0  0  0  0  0  0  0
    1.3268    0.5194    1.8000 C   0  0  0  0  0  0  0  0  0  0  0  0
    0.0929    1.3205    1.7049 N   0  0  0  0  0  0  0  0  0  0  0  0
   -0.4802    1.6911    3.0381 C   0  0  0  0  0  0  0  0  0  0  0  0
    0.5497    2.5447    3.8327 C   0  0  0  0  0  0  0  0  0  0  0  0
   -1.6946    2.5999    2.7699 C   0  0  0  0  0  0  0  0  0  0  0  0
   -0.8724    0.4104    3.8354 C   0  0  0  0  0  0  0  0  0  0  0  0
    4.2176    0.4375    2.5247 H   0  0  0  0  0  0  0  0  0  0  0  0
    4.1846    0.8352    0.8034 H   0  0  0  0  0  0  0  0  0  0  0  0
    5.5886   -0.0502    1.4855 H   0  0  0  0  0  0  0  0  0  0  0  0
    2.4956   -4.2339   -1.6199 H   0  0  0  0  0  0  0  0  0  0  0  0
    3.5748   -3.0045   -3.5830 H   0  0  0  0  0  0  0  0  0  0  0  0
    4.6710   -0.7572   -3.0467 H   0  0  0  0  0  0  0  0  0  0  0  0
    4.4485   -4.3680    4.2017 H   0  0  0  0  0  0  0  0  0  0  0  0
    2.1288    1.1919    2.0704 H   0  0  0  0  0  0  0  0  0  0  0  0
    1.5646    0.1181    0.8336 H   0  0  0  0  0  0  0  0  0  0  0  0
    0.3224    2.1676    1.1845 H   0  0  0  0  0  0  0  0  0  0  0  0
    0.1356    2.9558    4.7546 H   0  0  0  0  0  0  0  0  0  0  0  0
    0.9197    3.3827    3.2337 H   0  0  0  0  0  0  0  0  0  0  0  0
    1.4281    1.9797    4.1379 H   0  0  0  0  0  0  0  0  0  0  0  0
   -2.0925    3.0543    3.6745 H   0  0  0  0  0  0  0  0  0  0  0  0
   -2.5130    2.0939    2.2521 H   0  0  0  0  0  0  0  0  0  0  0  0
   -1.3898    3.4470    2.1409 H   0  0  0  0  0  0  0  0  0  0  0  0
   -1.7516   -0.0246    3.3754 H   0  0  0  0  0  0  0  0  0  0  0  0
   -1.1925    0.6742    4.8507 H   0  0  0  0  0  0  0  0  0  0  0  0
   -0.5577    0.7965    1.1256 H   0  0  0  0  0  0  0  0  0  0  0  0
  1  2  1  0
  1 24  1  0
  1 25  1  0
  1 26  1  0
  2  3  1  0
  2  9  1  0
  3  8  1  0
  3  4  2  0
  4  5  1  0
  5  6  2  0
  5 27  1  0
  6  7  1  0
  6 28  1  0
  7  8  2  0
  7 29  1  0
  9 17  1  0
  9 10  2  0
 10 11  1  0
 11 12  2  0
 11 30  1  0
 12 13  1  0
 13 17  2  0
 13 14  1  0
 14 15  1  0
 15 23  1  0
 15 16  2  0
 16 17  1  0
 16 18  1  0
 18 19  1  0
 18 31  1  0
 18 32  1  0
 19 20  1  0
 19 33  1  0
 19 42  1  0
 20 21  1  0
 20 22  1  0
 20 23  1  0
 21 34  1  0
 21 35  1  0
 21 36  1  0
 22 37  1  0
 22 38  1  0
 22 39  1  0
 23 40  1  0
 23 41  1  0
M  CHG  1  19   1
M  END
>  <i_m_ct_stereo_status>  (281) 
1

>  <s_m_source_file>  (281) 
/var/tmp/pbs.5076255.sched01/tmpy0mqr2dw/78t3ouse6d.sdf

>  <i_m_source_file_index>  (281) 
38

>  <i_lp_mmshare_version>  (281) 
48012

>  <i_f3d_flags>  (281) 
0

>  <s_epik_input>  (281) 
bjFbY0hdW2NIXVtjSF1uYzFOKFtDSDNdKWMobltjSF1uMiljKGMyMyljNGMoczMpW0NIMl1DKFtDSDNdKShbQ0gzXSlbTkhdW0NIMl00

>  <s_epik_cmdline>  (281) 
J2VwaWtfcHl0aG9uJywgJy1waHQnLCAnMi4wJywgJy1waCcsICc3LjAnLCAnLXRuJywgJzgnLCAnLW1hJywgJzIwMCcsICctaW1hZScsICc8aW5maWxlLm1hZT4nLCAnLW9tYWUnLCAnPG91dGZpbGUubWFlPic=

>  <r_lp_tautomer_probability>  (281) 
1

>  <r_epik_Ionization_Penalty>  (281) 
0.00584606

>  <r_epik_Ionization_Penalty_Charging>  (281) 
0.00578305

>  <r_epik_Ionization_Penalty_Neutral>  (281) 
6.30178e-05

>  <r_epik_State_Penalty>  (281) 
0.00424616

>  <r_epik_Charging_Adjusted_Penalty>  (281) 
0.0100292

>  <i_epik_Tot_Q>  (281) 
1

>  <i_epik_Tot_abs_Q>  (281) 
1

>  <s_lp_Force_Field>  (281) 
OPLS3e

>  <r_lp_Energy>  (281) 
61.3947

>  <b_lp_Chiralities_Consistent>  (281) 
1

>  <s_lp_Variant>  (281) 
87:0-1

>  <s_i_glide_gridfile>  (281) 
pfpi4k_grid

>  <i_i_glide_lignum>  (281) 
38

>  <i_i_glide_rotatable_bonds>  (281) 
2

>  <r_i_docking_score>  (281) 
-3.34266

>  <r_i_glide_ligand_efficiency>  (281) 
-0.145333

>  <r_i_glide_ligand_efficiency_sa>  (281) 
-0.413308

>  <r_i_glide_ligand_efficiency_ln>  (281) 
-0.808285

>  <r_i_glide_gscore>  (281) 
-3.34266

>  <r_i_glide_lipo>  (281) 
-0.160014

>  <r_i_glide_hbond>  (281) 
-0.290047

>  <r_i_glide_metal>  (281) 
-0

>  <r_i_glide_rewards>  (281) 
-1.17663

>  <r_i_glide_evdw>  (281) 
-23.3927

>  <r_i_glide_ecoul>  (281) 
-4.89279

>  <r_i_glide_erotb>  (281) 
0.35012

>  <r_i_glide_esite>  (281) 
-0.162538

>  <r_i_glide_emodel>  (281) 
-35.5378

>  <r_i_glide_energy>  (281) 
-28.2855

>  <r_i_glide_einternal>  (281) 
1.01429

>  <r_i_glide_intrahb_reward>  (281) 
-0

>  <i_i_glide_confnum>  (281) 
1

>  <i_i_glide_posenum>  (281) 
2

>  <r_i_glide_eff_state_penalty>  (281) 
0

>  <ligand_id>  (281) 
87

>  <original_smiles>  (281) 
CN(c1ncccn1)c1ncnc2sc3c(c12)CNC(C)(C)C3

>  <smiles>  (281) 
[H]c1nc(N(c2nc([H])c([H])c([H])n2)C([H])([H])[H])c2c3c(sc2n1)C([H])([H])C(C([H])([H])[H])(C([H])([H])[H])[N+]([H])([H])C3([H])[H]

$$$$
87:0:2
     RDKit          3D

 42 45  0  0  1  0  0  0  0  0999 V2000
    5.2221   -0.6252    0.9850 C   0  0  0  0  0  0  0  0  0  0  0  0
    4.3323   -1.7077    0.5803 N   0  0  0  0  0  0  0  0  0  0  0  0
    3.9693   -1.8671   -0.7361 C   0  0  0  0  0  0  0  0  0  0  0  0
    4.4718   -1.0457   -1.6267 N   0  0  0  0  0  0  0  0  0  0  0  0
    4.1106   -1.2104   -2.9252 C   0  0  0  0  0  0  0  0  0  0  0  0
    3.2489   -2.2538   -3.3039 C   0  0  0  0  0  0  0  0  0  0  0  0
    2.7279   -3.0461   -2.2724 C   0  0  0  0  0  0  0  0  0  0  0  0
    3.0969   -2.8499   -0.9891 N   0  0  0  0  0  0  0  0  0  0  0  0
    3.9664   -2.4843    1.6695 C   0  0  0  0  0  0  0  0  0  0  0  0
    4.6955   -3.5899    1.9354 N   0  0  0  0  0  0  0  0  0  0  0  0
    4.2992   -4.3611    2.9295 C   0  0  0  0  0  0  0  0  0  0  0  0
    3.2696   -4.2357    3.7682 N   0  0  0  0  0  0  0  0  0  0  0  0
    2.5429   -3.0959    3.5058 C   0  0  0  0  0  0  0  0  0  0  0  0
    1.1037   -2.6070    4.4566 S   0  0  0  0  0  0  0  0  0  0  0  0
    0.9832   -1.1678    3.4845 C   0  0  0  0  0  0  0  0  0  0  0  0
    1.9292   -1.0749    2.4820 C   0  0  0  0  0  0  0  0  0  0  0  0
    2.8415   -2.1808    2.4764 C   0  0  0  0  0  0  0  0  0  0  0  0
    2.0229    0.1202    1.5881 C   0  0  0  0  0  0  0  0  0  0  0  0
    0.8415    0.9868    1.7139 N   0  0  0  0  0  0  0  0  0  0  0  0
    0.3866    1.2376    3.1287 C   0  0  0  0  0  0  0  0  0  0  0  0
    1.5313    1.8960    3.9507 C   0  0  0  0  0  0  0  0  0  0  0  0
   -0.7753    2.2446    3.0764 C   0  0  0  0  0  0  0  0  0  0  0  0
   -0.0432   -0.1118    3.7710 C   0  0  0  0  0  0  0  0  0  0  0  0
    5.1310   -0.3979    2.0635 H   0  0  0  0  0  0  0  0  0  0  0  0
    4.9507    0.3035    0.4515 H   0  0  0  0  0  0  0  0  0  0  0  0
    6.2783   -0.8834    0.7605 H   0  0  0  0  0  0  0  0  0  0  0  0
    4.5668   -0.5316   -3.6300 H   0  0  0  0  0  0  0  0  0  0  0  0
    2.9932   -2.4342   -4.3376 H   0  0  0  0  0  0  0  0  0  0  0  0
    2.0296   -3.8627   -2.4722 H   0  0  0  0  0  0  0  0  0  0  0  0
    4.8653   -5.2642    3.1148 H   0  0  0  0  0  0  0  0  0  0  0  0
    2.9112    0.6781    1.8655 H   0  0  0  0  0  0  0  0  0  0  0  0
    2.1830   -0.1556    0.5529 H   0  0  0  0  0  0  0  0  0  0  0  0
    1.0539    1.8922    1.2867 H   0  0  0  0  0  0  0  0  0  0  0  0
    1.2127    2.2165    4.9432 H   0  0  0  0  0  0  0  0  0  0  0  0
    1.9201    2.7775    3.4396 H   0  0  0  0  0  0  0  0  0  0  0  0
    2.3800    1.2417    4.1136 H   0  0  0  0  0  0  0  0  0  0  0  0
   -1.0955    2.5863    4.0618 H   0  0  0  0  0  0  0  0  0  0  0  0
   -1.6542    1.8710    2.5422 H   0  0  0  0  0  0  0  0  0  0  0  0
   -0.4737    3.1564    2.5675 H   0  0  0  0  0  0  0  0  0  0  0  0
   -0.9819   -0.4193    3.3338 H   0  0  0  0  0  0  0  0  0  0  0  0
   -0.2664   -0.0053    4.8372 H   0  0  0  0  0  0  0  0  0  0  0  0
    0.1027    0.5717    1.1419 H   0  0  0  0  0  0  0  0  0  0  0  0
  1  2  1  0
  1 24  1  0
  1 25  1  0
  1 26  1  0
  2  3  1  0
  2  9  1  0
  3  8  1  0
  3  4  2  0
  4  5  1  0
  5  6  2  0
  5 27  1  0
  6  7  1  0
  6 28  1  0
  7  8  2  0
  7 29  1  0
  9 17  1  0
  9 10  2  0
 10 11  1  0
 11 12  2  0
 11 30  1  0
 12 13  1  0
 13 17  2  0
 13 14  1  0
 14 15  1  0
 15 23  1  0
 15 16  2  0
 16 17  1  0
 16 18  1  0
 18 19  1  0
 18 31  1  0
 18 32  1  0
 19 20  1  0
 19 33  1  0
 19 42  1  0
 20 21  1  0
 20 22  1  0
 20 23  1  0
 21 34  1  0
 21 35  1  0
 21 36  1  0
 22 37  1  0
 22 38  1  0
 22 39  1  0
 23 40  1  0
 23 41  1  0
M  CHG  1  19   1
M  END
>  <i_m_ct_stereo_status>  (282) 
1

>  <s_m_source_file>  (282) 
/var/tmp/pbs.5076255.sched01/tmpy0mqr2dw/78t3ouse6d.sdf

>  <i_m_source_file_index>  (282) 
38

>  <i_lp_mmshare_version>  (282) 
48012

>  <i_f3d_flags>  (282) 
0

>  <s_epik_input>  (282) 
bjFbY0hdW2NIXVtjSF1uYzFOKFtDSDNdKWMobltjSF1uMiljKGMyMyljNGMoczMpW0NIMl1DKFtDSDNdKShbQ0gzXSlbTkhdW0NIMl00

>  <s_epik_cmdline>  (282) 
J2VwaWtfcHl0aG9uJywgJy1waHQnLCAnMi4wJywgJy1waCcsICc3LjAnLCAnLXRuJywgJzgnLCAnLW1hJywgJzIwMCcsICctaW1hZScsICc8aW5maWxlLm1hZT4nLCAnLW9tYWUnLCAnPG91dGZpbGUubWFlPic=

>  <r_lp_tautomer_probability>  (282) 
1

>  <r_epik_Ionization_Penalty>  (282) 
0.00584606

>  <r_epik_Ionization_Penalty_Charging>  (282) 
0.00578305

>  <r_epik_Ionization_Penalty_Neutral>  (282) 
6.30178e-05

>  <r_epik_State_Penalty>  (282) 
0.00424616

>  <r_epik_Charging_Adjusted_Penalty>  (282) 
0.0100292

>  <i_epik_Tot_Q>  (282) 
1

>  <i_epik_Tot_abs_Q>  (282) 
1

>  <s_lp_Force_Field>  (282) 
OPLS3e

>  <r_lp_Energy>  (282) 
61.3947

>  <b_lp_Chiralities_Consistent>  (282) 
1

>  <s_lp_Variant>  (282) 
87:0-1

>  <s_i_glide_gridfile>  (282) 
pfpi4k_grid

>  <i_i_glide_lignum>  (282) 
38

>  <i_i_glide_rotatable_bonds>  (282) 
2

>  <r_i_docking_score>  (282) 
-3.2861

>  <r_i_glide_ligand_efficiency>  (282) 
-0.142874

>  <r_i_glide_ligand_efficiency_sa>  (282) 
-0.406315

>  <r_i_glide_ligand_efficiency_ln>  (282) 
-0.79461

>  <r_i_glide_gscore>  (282) 
-3.2861

>  <r_i_glide_lipo>  (282) 
-0.30319

>  <r_i_glide_hbond>  (282) 
-0.0691543

>  <r_i_glide_metal>  (282) 
-0

>  <r_i_glide_rewards>  (282) 
-1.18141

>  <r_i_glide_evdw>  (282) 
-25.87

>  <r_i_glide_ecoul>  (282) 
-4.38593

>  <r_i_glide_erotb>  (282) 
0.35012

>  <r_i_glide_esite>  (282) 
-0.131078

>  <r_i_glide_emodel>  (282) 
-37.7826

>  <r_i_glide_energy>  (282) 
-30.2559

>  <r_i_glide_einternal>  (282) 
0.987951

>  <r_i_glide_intrahb_reward>  (282) 
-0

>  <i_i_glide_confnum>  (282) 
5

>  <i_i_glide_posenum>  (282) 
9

>  <r_i_glide_eff_state_penalty>  (282) 
0

>  <ligand_id>  (282) 
87

>  <original_smiles>  (282) 
CN(c1ncccn1)c1ncnc2sc3c(c12)CNC(C)(C)C3

>  <smiles>  (282) 
[H]c1nc(N(c2nc([H])c([H])c([H])n2)C([H])([H])[H])c2c3c(sc2n1)C([H])([H])C(C([H])([H])[H])(C([H])([H])[H])[N+]([H])([H])C3([H])[H]

$$$$
88:0:0
     RDKit          3D

 61 66  0  0  1  0  0  0  0  0999 V2000
    4.7767  -12.9831    4.6849 C   0  0  0  0  0  0  0  0  0  0  0  0
    3.3674  -12.4453    4.8639 C   0  0  0  0  0  0  0  0  0  0  0  0
    2.8884  -11.2174    4.5841 C   0  0  0  0  0  0  0  0  0  0  0  0
    3.6894  -10.0779    3.9647 C   0  0  0  0  0  0  0  0  0  0  0  0
    2.9821   -9.4889    2.7969 N   0  0  2  0  0  0  0  0  0  0  0  0
    3.7673   -8.4090    2.1534 C   0  0  0  0  0  0  0  0  0  0  0  0
    1.5392   -9.1545    3.0356 C   0  0  1  0  0  0  0  0  0  0  0  0
    0.8287  -10.4441    3.4888 C   0  0  0  0  0  0  0  0  0  0  0  0
    1.4326  -10.8591    4.8407 C   0  0  2  0  0  0  0  0  0  0  0  0
    1.3185   -9.7331    5.9033 C   0  0  0  0  0  0  0  0  0  0  0  0
    0.6232   -8.4636    5.3744 C   0  0  1  0  0  0  0  0  0  0  0  0
    0.5666   -7.3451    6.4323 C   0  0  0  0  0  0  0  0  0  0  0  0
   -0.1834   -6.1237    5.8630 C   0  0  1  0  0  0  0  0  0  0  0  0
   -0.5824   -5.0572    6.9101 C   0  0  0  0  0  0  0  0  0  0  0  0
   -0.5468   -5.3776    8.1158 O   0  0  0  0  0  0  0  0  0  0  0  0
   -0.9478   -3.9345    6.4886 O   0  0  0  0  0  0  0  0  0  0  0  0
    0.5304   -5.5938    4.5818 C   0  0  1  0  0  0  0  0  0  0  0  0
    1.9240   -4.9364    4.7457 C   0  0  0  0  0  0  0  0  0  0  0  0
    2.4676   -4.5509    5.9977 C   0  0  0  0  0  0  0  0  0  0  0  0
    3.7535   -3.9875    6.0856 C   0  0  0  0  0  0  0  0  0  0  0  0
    4.5214   -3.7917    4.9251 C   0  0  0  0  0  0  0  0  0  0  0  0
    4.0063   -4.1677    3.6727 C   0  0  0  0  0  0  0  0  0  0  0  0
    2.7210   -4.7450    3.5853 C   0  0  0  0  0  0  0  0  0  0  0  0
    2.2311   -5.2103    2.3465 N   0  0  0  0  0  0  0  0  0  0  0  0
    2.6120   -4.7975    1.0789 C   0  0  0  0  0  0  0  0  0  0  0  0
    1.8333   -5.4694    0.1799 C   0  0  0  0  0  0  0  0  0  0  0  0
    0.9782   -6.3458    0.9019 C   0  0  0  0  0  0  0  0  0  0  0  0
    1.2230   -6.1583    2.2361 C   0  0  0  0  0  0  0  0  0  0  0  0
    0.5674   -6.7064    3.4739 C   0  0  2  0  0  0  0  0  0  0  0  0
   -0.7698   -7.0586    3.1468 O   0  0  0  0  0  0  0  0  0  0  0  0
    1.2911   -7.9781    4.0525 C   0  0  2  0  0  0  0  0  0  0  0  0
    5.1094  -13.4433    5.6165 H   0  0  0  0  0  0  0  0  0  0  0  0
    5.5054  -12.2242    4.4134 H   0  0  0  0  0  0  0  0  0  0  0  0
    4.7787  -13.7616    3.9228 H   0  0  0  0  0  0  0  0  0  0  0  0
    2.6744  -13.1567    5.2694 H   0  0  0  0  0  0  0  0  0  0  0  0
    3.8690   -9.3170    4.7202 H   0  0  0  0  0  0  0  0  0  0  0  0
    4.6677  -10.4273    3.6463 H   0  0  0  0  0  0  0  0  0  0  0  0
    3.9194   -7.5663    2.8273 H   0  0  0  0  0  0  0  0  0  0  0  0
    3.2719   -8.0463    1.2542 H   0  0  0  0  0  0  0  0  0  0  0  0
    4.7523   -8.7754    1.8604 H   0  0  0  0  0  0  0  0  0  0  0  0
    1.1213   -8.8912    2.0653 H   0  0  0  0  0  0  0  0  0  0  0  0
   -0.2475  -10.2968    3.5559 H   0  0  0  0  0  0  0  0  0  0  0  0
    0.9784  -11.2383    2.7557 H   0  0  0  0  0  0  0  0  0  0  0  0
    0.8979  -11.7433    5.2037 H   0  0  0  0  0  0  0  0  0  0  0  0
    0.7757  -10.1107    6.7671 H   0  0  0  0  0  0  0  0  0  0  0  0
    2.3025   -9.4620    6.2864 H   0  0  0  0  0  0  0  0  0  0  0  0
   -0.4138   -8.7387    5.1664 H   0  0  0  0  0  0  0  0  0  0  0  0
    0.0852   -7.7177    7.3359 H   0  0  0  0  0  0  0  0  0  0  0  0
    1.5779   -7.0631    6.7199 H   0  0  0  0  0  0  0  0  0  0  0  0
   -1.1619   -6.4864    5.5565 H   0  0  0  0  0  0  0  0  0  0  0  0
   -0.0944   -4.7883    4.1933 H   0  0  0  0  0  0  0  0  0  0  0  0
    1.9362   -4.6964    6.9245 H   0  0  0  0  0  0  0  0  0  0  0  0
    4.1539   -3.7129    7.0497 H   0  0  0  0  0  0  0  0  0  0  0  0
    5.5129   -3.3687    4.9968 H   0  0  0  0  0  0  0  0  0  0  0  0
    4.6160   -4.0395    2.7918 H   0  0  0  0  0  0  0  0  0  0  0  0
    3.3552   -4.0236    0.9231 H   0  0  0  0  0  0  0  0  0  0  0  0
    1.8499   -5.3151   -0.8867 H   0  0  0  0  0  0  0  0  0  0  0  0
    0.2159   -7.0006    0.4961 H   0  0  0  0  0  0  0  0  0  0  0  0
   -0.7530   -7.8955    2.7036 H   0  0  0  0  0  0  0  0  0  0  0  0
    2.2737   -7.6220    4.3596 H   0  0  0  0  0  0  0  0  0  0  0  0
    2.9675  -10.2388    2.1145 H   0  0  0  0  0  0  0  0  0  0  0  0
  1  2  1  0
  1 32  1  0
  1 33  1  0
  1 34  1  0
  2  3  2  3
  2 35  1  0
  3  9  1  0
  3  4  1  0
  4  5  1  0
  4 36  1  0
  4 37  1  0
  5  6  1  0
  5  7  1  0
  5 61  1  6
  6 38  1  0
  6 39  1  0
  6 40  1  0
  7 31  1  0
  7  8  1  0
  7 41  1  6
  8  9  1  0
  8 42  1  0
  8 43  1  0
  9 10  1  0
  9 44  1  1
 10 11  1  0
 10 45  1  0
 10 46  1  0
 11 31  1  0
 11 12  1  0
 11 47  1  6
 12 13  1  0
 12 48  1  0
 12 49  1  0
 13 14  1  0
 13 17  1  0
 13 50  1  6
 14 15  2  0
 14 16  1  0
 17 29  1  0
 17 18  1  0
 17 51  1  6
 18 23  2  0
 18 19  1  0
 19 20  2  0
 19 52  1  0
 20 21  1  0
 20 53  1  0
 21 22  2  0
 21 54  1  0
 22 23  1  0
 22 55  1  0
 23 24  1  0
 24 28  1  0
 24 25  1  0
 25 26  2  0
 25 56  1  0
 26 27  1  0
 26 57  1  0
 27 28  2  0
 27 58  1  0
 28 29  1  0
 29 30  1  6
 29 31  1  0
 30 59  1  0
 31 60  1  1
M  CHG  2   5   1  16  -1
M  END
>  <i_m_ct_stereo_status>  (283) 
1

>  <s_m_source_file>  (283) 
/var/tmp/pbs.5076255.sched01/tmpy0mqr2dw/78t3ouse6d.sdf

>  <i_m_source_file_index>  (283) 
39

>  <i_lp_mmshare_version>  (283) 
48012

>  <i_f3d_flags>  (283) 
0

>  <s_epik_input>  (283) 
W0NIM10vW0NIXT1DKFtDQEhdKFtDSDJdMSlbQ0gyXTIpXFtDSDJdTihbQ0gzXSlbQ0BASF0xW0NAQEhdM1tDQEBIXTJbQ0gyXVtDQEBIXShDKD1PKVtPSF0pW0NASF0oW0NAXTM0W09IXSljNWMoW2NIXVtjSF1bY0hdW2NIXTUpbjZjNFtjSF1bY0hdW2NIXTY=

>  <s_epik_cmdline>  (283) 
J2VwaWtfcHl0aG9uJywgJy1waHQnLCAnMi4wJywgJy1waCcsICc3LjAnLCAnLXRuJywgJzgnLCAnLW1hJywgJzIwMCcsICctaW1hZScsICc8aW5maWxlLm1hZT4nLCAnLW9tYWUnLCAnPG91dGZpbGUubWFlPic=

>  <r_lp_tautomer_probability>  (283) 
1

>  <r_epik_Ionization_Penalty>  (283) 
0.00638275

>  <r_epik_Ionization_Penalty_Charging>  (283) 
0.00638268

>  <r_epik_Ionization_Penalty_Neutral>  (283) 
7.44004e-08

>  <r_epik_State_Penalty>  (283) 
-0

>  <r_epik_Charging_Adjusted_Penalty>  (283) 
0.00638268

>  <i_epik_Tot_Q>  (283) 
0

>  <i_epik_Tot_abs_Q>  (283) 
2

>  <s_lp_Force_Field>  (283) 
OPLS3e

>  <r_lp_Energy>  (283) 
49.9564

>  <b_lp_Chiralities_Consistent>  (283) 
1

>  <s_lp_Variant>  (283) 
88:0-1

>  <s_i_glide_gridfile>  (283) 
pfpi4k_grid

>  <i_i_glide_lignum>  (283) 
39

>  <i_i_glide_rotatable_bonds>  (283) 
2

>  <r_i_docking_score>  (283) 
-2.98227

>  <r_i_glide_ligand_efficiency>  (283) 
-0.0962023

>  <r_i_glide_ligand_efficiency_sa>  (283) 
-0.302208

>  <r_i_glide_ligand_efficiency_ln>  (283) 
-0.672594

>  <r_i_glide_gscore>  (283) 
-2.98227

>  <r_i_glide_lipo>  (283) 
-0.0544632

>  <r_i_glide_hbond>  (283) 
-0.121664

>  <r_i_glide_metal>  (283) 
-0

>  <r_i_glide_rewards>  (283) 
-0.614735

>  <r_i_glide_evdw>  (283) 
-20.6859

>  <r_i_glide_ecoul>  (283) 
-7.4986

>  <r_i_glide_erotb>  (283) 
0

>  <r_i_glide_esite>  (283) 
-0.032326

>  <r_i_glide_emodel>  (283) 
-36.448

>  <r_i_glide_energy>  (283) 
-28.1845

>  <r_i_glide_einternal>  (283) 
0.865207

>  <r_i_glide_intrahb_reward>  (283) 
-0

>  <i_i_glide_confnum>  (283) 
1

>  <i_i_glide_posenum>  (283) 
15

>  <r_i_glide_eff_state_penalty>  (283) 
0

>  <ligand_id>  (283) 
88

>  <original_smiles>  (283) 
CC=C1CN(C)C2CC1CC1CC(C(=O)O)C3c4ccccc4-n4cccc4C3(O)C12

>  <smiles>  (283) 
[H]OC12c3c([H])c([H])c([H])n3-c3c([H])c([H])c([H])c([H])c3C1([H])C([H])(C(=O)[O-])C([H])([H])C1([H])C([H])([H])C3([H])C(=C([H])C([H])([H])[H])C([H])([H])[N+]([H])(C([H])([H])[H])C([H])(C3([H])[H])C21[H]

$$$$
88:0:1
     RDKit          3D

 61 66  0  0  1  0  0  0  0  0999 V2000
    7.3919  -12.8213    2.8206 C   0  0  0  0  0  0  0  0  0  0  0  0
    6.0585  -12.9072    3.5450 C   0  0  0  0  0  0  0  0  0  0  0  0
    5.1323  -11.9394    3.7097 C   0  0  0  0  0  0  0  0  0  0  0  0
    5.2169  -10.5218    3.1479 C   0  0  0  0  0  0  0  0  0  0  0  0
    3.9729  -10.1490    2.4192 N   0  0  2  0  0  0  0  0  0  0  0  0
    4.0556   -8.7933    1.8262 C   0  0  0  0  0  0  0  0  0  0  0  0
    2.6983  -10.4161    3.1590 C   0  0  1  0  0  0  0  0  0  0  0  0
    2.6839  -11.9126    3.5090 C   0  0  0  0  0  0  0  0  0  0  0  0
    3.8468  -12.1941    4.4799 C   0  0  2  0  0  0  0  0  0  0  0  0
    3.7713  -11.3060    5.7497 C   0  0  0  0  0  0  0  0  0  0  0  0
    2.5530  -10.3615    5.7588 C   0  0  1  0  0  0  0  0  0  0  0  0
    2.5202   -9.4608    7.0107 C   0  0  0  0  0  0  0  0  0  0  0  0
    1.2456   -8.5946    6.9991 C   0  0  1  0  0  0  0  0  0  0  0  0
    0.9463   -7.8735    8.3309 C   0  0  0  0  0  0  0  0  0  0  0  0
    1.8161   -7.8915    9.2303 O   0  0  0  0  0  0  0  0  0  0  0  0
   -0.1745   -7.3232    8.4481 O   0  0  0  0  0  0  0  0  0  0  0  0
    1.2118   -7.7016    5.7175 C   0  0  1  0  0  0  0  0  0  0  0  0
    2.2659   -6.5672    5.5807 C   0  0  0  0  0  0  0  0  0  0  0  0
    3.0833   -6.1145    6.6507 C   0  0  0  0  0  0  0  0  0  0  0  0
    4.0418   -5.1053    6.4590 C   0  0  0  0  0  0  0  0  0  0  0  0
    4.2106   -4.5185    5.1958 C   0  0  0  0  0  0  0  0  0  0  0  0
    3.4188   -4.9515    4.1147 C   0  0  0  0  0  0  0  0  0  0  0  0
    2.4589   -5.9703    4.3082 C   0  0  0  0  0  0  0  0  0  0  0  0
    1.7197   -6.4684    3.2161 N   0  0  0  0  0  0  0  0  0  0  0  0
    1.4416   -5.8314    2.0187 C   0  0  0  0  0  0  0  0  0  0  0  0
    0.6685   -6.6639    1.2649 C   0  0  0  0  0  0  0  0  0  0  0  0
    0.4591   -7.8514    2.0202 C   0  0  0  0  0  0  0  0  0  0  0  0
    1.1191   -7.7133    3.2123 C   0  0  0  0  0  0  0  0  0  0  0  0
    1.2108   -8.5991    4.4260 C   0  0  2  0  0  0  0  0  0  0  0  0
    0.0748   -9.4384    4.4152 O   0  0  0  0  0  0  0  0  0  0  0  0
    2.4814   -9.5253    4.4406 C   0  0  2  0  0  0  0  0  0  0  0  0
    8.1827  -13.1939    3.4711 H   0  0  0  0  0  0  0  0  0  0  0  0
    7.6628  -11.8130    2.5183 H   0  0  0  0  0  0  0  0  0  0  0  0
    7.3778  -13.4557    1.9371 H   0  0  0  0  0  0  0  0  0  0  0  0
    5.8526  -13.8807    3.9727 H   0  0  0  0  0  0  0  0  0  0  0  0
    5.3992   -9.8213    3.9612 H   0  0  0  0  0  0  0  0  0  0  0  0
    6.0601  -10.4236    2.4712 H   0  0  0  0  0  0  0  0  0  0  0  0
    4.1550   -8.0221    2.5941 H   0  0  0  0  0  0  0  0  0  0  0  0
    3.1687   -8.5689    1.2338 H   0  0  0  0  0  0  0  0  0  0  0  0
    4.9226   -8.7129    1.1682 H   0  0  0  0  0  0  0  0  0  0  0  0
    1.8824  -10.2491    2.4602 H   0  0  0  0  0  0  0  0  0  0  0  0
    1.7235  -12.2087    3.9349 H   0  0  0  0  0  0  0  0  0  0  0  0
    2.8076  -12.5099    2.6006 H   0  0  0  0  0  0  0  0  0  0  0  0
    3.8041  -13.2453    4.7779 H   0  0  0  0  0  0  0  0  0  0  0  0
    3.7336  -11.9421    6.6299 H   0  0  0  0  0  0  0  0  0  0  0  0
    4.6763  -10.7080    5.8625 H   0  0  0  0  0  0  0  0  0  0  0  0
    1.6696  -11.0014    5.8137 H   0  0  0  0  0  0  0  0  0  0  0  0
    2.5539  -10.0764    7.9101 H   0  0  0  0  0  0  0  0  0  0  0  0
    3.4099   -8.8331    7.0287 H   0  0  0  0  0  0  0  0  0  0  0  0
    0.4128   -9.2939    6.9395 H   0  0  0  0  0  0  0  0  0  0  0  0
    0.2565   -7.1755    5.7395 H   0  0  0  0  0  0  0  0  0  0  0  0
    3.0302   -6.5390    7.6356 H   0  0  0  0  0  0  0  0  0  0  0  0
    4.6573   -4.7926    7.2883 H   0  0  0  0  0  0  0  0  0  0  0  0
    4.9569   -3.7517    5.0493 H   0  0  0  0  0  0  0  0  0  0  0  0
    3.5778   -4.5123    3.1400 H   0  0  0  0  0  0  0  0  0  0  0  0
    1.8026   -4.8292    1.8197 H   0  0  0  0  0  0  0  0  0  0  0  0
    0.2841   -6.4502    0.2778 H   0  0  0  0  0  0  0  0  0  0  0  0
   -0.1253   -8.7151    1.7293 H   0  0  0  0  0  0  0  0  0  0  0  0
    0.0772   -9.9967    5.1806 H   0  0  0  0  0  0  0  0  0  0  0  0
    3.3282   -8.8481    4.5034 H   0  0  0  0  0  0  0  0  0  0  0  0
    3.9479  -10.7930    1.6266 H   0  0  0  0  0  0  0  0  0  0  0  0
  1  2  1  0
  1 32  1  0
  1 33  1  0
  1 34  1  0
  2  3  2  3
  2 35  1  0
  3  9  1  0
  3  4  1  0
  4  5  1  0
  4 36  1  0
  4 37  1  0
  5  6  1  0
  5  7  1  0
  5 61  1  6
  6 38  1  0
  6 39  1  0
  6 40  1  0
  7 31  1  0
  7  8  1  0
  7 41  1  6
  8  9  1  0
  8 42  1  0
  8 43  1  0
  9 10  1  0
  9 44  1  1
 10 11  1  0
 10 45  1  0
 10 46  1  0
 11 31  1  0
 11 12  1  0
 11 47  1  1
 12 13  1  0
 12 48  1  0
 12 49  1  0
 13 14  1  0
 13 17  1  0
 13 50  1  6
 14 15  2  0
 14 16  1  0
 17 29  1  0
 17 18  1  0
 17 51  1  1
 18 23  2  0
 18 19  1  0
 19 20  2  0
 19 52  1  0
 20 21  1  0
 20 53  1  0
 21 22  2  0
 21 54  1  0
 22 23  1  0
 22 55  1  0
 23 24  1  0
 24 28  1  0
 24 25  1  0
 25 26  2  0
 25 56  1  0
 26 27  1  0
 26 57  1  0
 27 28  2  0
 27 58  1  0
 28 29  1  0
 29 30  1  1
 29 31  1  0
 30 59  1  0
 31 60  1  1
M  CHG  2   5   1  16  -1
M  END
>  <i_m_ct_stereo_status>  (284) 
1

>  <s_m_source_file>  (284) 
/var/tmp/pbs.5076255.sched01/tmpy0mqr2dw/78t3ouse6d.sdf

>  <i_m_source_file_index>  (284) 
39

>  <i_lp_mmshare_version>  (284) 
48012

>  <i_f3d_flags>  (284) 
0

>  <s_epik_input>  (284) 
W0NIM10vW0NIXT1DKFtDQEhdKFtDSDJdMSlbQ0gyXTIpXFtDSDJdTihbQ0gzXSlbQ0BASF0xW0NAQEhdM1tDQEBIXTJbQ0gyXVtDQEBIXShDKD1PKVtPSF0pW0NASF0oW0NAXTM0W09IXSljNWMoW2NIXVtjSF1bY0hdW2NIXTUpbjZjNFtjSF1bY0hdW2NIXTY=

>  <s_epik_cmdline>  (284) 
J2VwaWtfcHl0aG9uJywgJy1waHQnLCAnMi4wJywgJy1waCcsICc3LjAnLCAnLXRuJywgJzgnLCAnLW1hJywgJzIwMCcsICctaW1hZScsICc8aW5maWxlLm1hZT4nLCAnLW9tYWUnLCAnPG91dGZpbGUubWFlPic=

>  <r_lp_tautomer_probability>  (284) 
1

>  <r_epik_Ionization_Penalty>  (284) 
0.00638275

>  <r_epik_Ionization_Penalty_Charging>  (284) 
0.00638268

>  <r_epik_Ionization_Penalty_Neutral>  (284) 
7.44004e-08

>  <r_epik_State_Penalty>  (284) 
-0

>  <r_epik_Charging_Adjusted_Penalty>  (284) 
0.00638268

>  <i_epik_Tot_Q>  (284) 
0

>  <i_epik_Tot_abs_Q>  (284) 
2

>  <s_lp_Force_Field>  (284) 
OPLS3e

>  <r_lp_Energy>  (284) 
49.9564

>  <b_lp_Chiralities_Consistent>  (284) 
1

>  <s_lp_Variant>  (284) 
88:0-1

>  <s_i_glide_gridfile>  (284) 
pfpi4k_grid

>  <i_i_glide_lignum>  (284) 
39

>  <i_i_glide_rotatable_bonds>  (284) 
2

>  <r_i_docking_score>  (284) 
-2.96225

>  <r_i_glide_ligand_efficiency>  (284) 
-0.0955563

>  <r_i_glide_ligand_efficiency_sa>  (284) 
-0.300179

>  <r_i_glide_ligand_efficiency_ln>  (284) 
-0.668077

>  <r_i_glide_gscore>  (284) 
-2.96225

>  <r_i_glide_lipo>  (284) 
-1.26992e-05

>  <r_i_glide_hbond>  (284) 
-0.296547

>  <r_i_glide_metal>  (284) 
-0

>  <r_i_glide_rewards>  (284) 
-0.555491

>  <r_i_glide_evdw>  (284) 
-20.5364

>  <r_i_glide_ecoul>  (284) 
-6.49618

>  <r_i_glide_erotb>  (284) 
0

>  <r_i_glide_esite>  (284) 
-0.108947

>  <r_i_glide_emodel>  (284) 
-35.3444

>  <r_i_glide_energy>  (284) 
-27.0326

>  <r_i_glide_einternal>  (284) 
0.466039

>  <r_i_glide_intrahb_reward>  (284) 
-0

>  <i_i_glide_confnum>  (284) 
2

>  <i_i_glide_posenum>  (284) 
8

>  <r_i_glide_eff_state_penalty>  (284) 
0

>  <ligand_id>  (284) 
88

>  <original_smiles>  (284) 
CC=C1CN(C)C2CC1CC1CC(C(=O)O)C3c4ccccc4-n4cccc4C3(O)C12

>  <smiles>  (284) 
[H]OC12c3c([H])c([H])c([H])n3-c3c([H])c([H])c([H])c([H])c3C1([H])C([H])(C(=O)[O-])C([H])([H])C1([H])C([H])([H])C3([H])C(=C([H])C([H])([H])[H])C([H])([H])[N+]([H])(C([H])([H])[H])C([H])(C3([H])[H])C21[H]

$$$$
88:0:2
     RDKit          3D

 61 66  0  0  1  0  0  0  0  0999 V2000
    4.7526  -12.9996    4.6877 C   0  0  0  0  0  0  0  0  0  0  0  0
    3.3499  -12.4550    4.8712 C   0  0  0  0  0  0  0  0  0  0  0  0
    2.8684  -11.2297    4.5878 C   0  0  0  0  0  0  0  0  0  0  0  0
    3.6719  -10.0934    3.9723 C   0  0  0  0  0  0  0  0  0  0  0  0
    2.9663   -9.4998    2.7988 N   0  0  2  0  0  0  0  0  0  0  0  0
    3.7577   -8.4197    2.1571 C   0  0  0  0  0  0  0  0  0  0  0  0
    1.5187   -9.1626    3.0334 C   0  0  1  0  0  0  0  0  0  0  0  0
    0.8118  -10.4518    3.4891 C   0  0  0  0  0  0  0  0  0  0  0  0
    1.4118  -10.8695    4.8428 C   0  0  2  0  0  0  0  0  0  0  0  0
    1.2990   -9.7417    5.9044 C   0  0  0  0  0  0  0  0  0  0  0  0
    0.6053   -8.4714    5.3761 C   0  0  1  0  0  0  0  0  0  0  0  0
    0.5521   -7.3516    6.4325 C   0  0  0  0  0  0  0  0  0  0  0  0
   -0.1961   -6.1303    5.8620 C   0  0  1  0  0  0  0  0  0  0  0  0
   -0.5892   -5.0610    6.9091 C   0  0  0  0  0  0  0  0  0  0  0  0
   -0.5309   -5.3734    8.1187 O   0  0  0  0  0  0  0  0  0  0  0  0
   -0.9816   -3.9499    6.4868 O   0  0  0  0  0  0  0  0  0  0  0  0
    0.5217   -5.6006    4.5827 C   0  0  1  0  0  0  0  0  0  0  0  0
    1.9184   -4.9468    4.7499 C   0  0  0  0  0  0  0  0  0  0  0  0
    2.4615   -4.5627    6.0046 C   0  0  0  0  0  0  0  0  0  0  0  0
    3.7473   -4.0020    6.0913 C   0  0  0  0  0  0  0  0  0  0  0  0
    4.5184   -3.8071    4.9346 C   0  0  0  0  0  0  0  0  0  0  0  0
    4.0026   -4.1807    3.6809 C   0  0  0  0  0  0  0  0  0  0  0  0
    2.7183   -4.7534    3.5943 C   0  0  0  0  0  0  0  0  0  0  0  0
    2.2256   -5.2130    2.3530 N   0  0  0  0  0  0  0  0  0  0  0  0
    2.6086   -4.8000    1.0866 C   0  0  0  0  0  0  0  0  0  0  0  0
    1.8290   -5.4648    0.1839 C   0  0  0  0  0  0  0  0  0  0  0  0
    0.9735   -6.3457    0.9031 C   0  0  0  0  0  0  0  0  0  0  0  0
    1.2175   -6.1562    2.2388 C   0  0  0  0  0  0  0  0  0  0  0  0
    0.5559   -6.7133    3.4726 C   0  0  2  0  0  0  0  0  0  0  0  0
   -0.7774   -7.0673    3.1331 O   0  0  0  0  0  0  0  0  0  0  0  0
    1.2770   -7.9848    4.0526 C   0  0  2  0  0  0  0  0  0  0  0  0
    5.0823  -13.4605    5.6180 H   0  0  0  0  0  0  0  0  0  0  0  0
    5.4813  -12.2429    4.4170 H   0  0  0  0  0  0  0  0  0  0  0  0
    4.7519  -13.7771    3.9248 H   0  0  0  0  0  0  0  0  0  0  0  0
    2.6494  -13.1646    5.2751 H   0  0  0  0  0  0  0  0  0  0  0  0
    3.8523   -9.3293    4.7265 H   0  0  0  0  0  0  0  0  0  0  0  0
    4.6510  -10.4409    3.6510 H   0  0  0  0  0  0  0  0  0  0  0  0
    3.9070   -7.5763    2.8349 H   0  0  0  0  0  0  0  0  0  0  0  0
    3.2604   -8.0573    1.2567 H   0  0  0  0  0  0  0  0  0  0  0  0
    4.7435   -8.7915    1.8661 H   0  0  0  0  0  0  0  0  0  0  0  0
    1.1021   -8.8947    2.0643 H   0  0  0  0  0  0  0  0  0  0  0  0
   -0.2647  -10.3007    3.5539 H   0  0  0  0  0  0  0  0  0  0  0  0
    0.9607  -11.2460    2.7553 H   0  0  0  0  0  0  0  0  0  0  0  0
    0.8762  -11.7509    5.2038 H   0  0  0  0  0  0  0  0  0  0  0  0
    0.7544  -10.1184    6.7665 H   0  0  0  0  0  0  0  0  0  0  0  0
    2.2838   -9.4738    6.2893 H   0  0  0  0  0  0  0  0  0  0  0  0
   -0.4288   -8.7514    5.1687 H   0  0  0  0  0  0  0  0  0  0  0  0
    0.0701   -7.7248    7.3353 H   0  0  0  0  0  0  0  0  0  0  0  0
    1.5638   -7.0740    6.7206 H   0  0  0  0  0  0  0  0  0  0  0  0
   -1.1767   -6.4875    5.5583 H   0  0  0  0  0  0  0  0  0  0  0  0
   -0.0996   -4.7923    4.1963 H   0  0  0  0  0  0  0  0  0  0  0  0
    1.9291   -4.7088    6.9299 H   0  0  0  0  0  0  0  0  0  0  0  0
    4.1493   -3.7311    7.0558 H   0  0  0  0  0  0  0  0  0  0  0  0
    5.5093   -3.3877    5.0052 H   0  0  0  0  0  0  0  0  0  0  0  0
    4.6130   -4.0535    2.7994 H   0  0  0  0  0  0  0  0  0  0  0  0
    3.3557   -4.0306    0.9314 H   0  0  0  0  0  0  0  0  0  0  0  0
    1.8485   -5.3164   -0.8834 H   0  0  0  0  0  0  0  0  0  0  0  0
    0.2146   -7.0057    0.5029 H   0  0  0  0  0  0  0  0  0  0  0  0
   -1.1065   -7.6307    3.8194 H   0  0  0  0  0  0  0  0  0  0  0  0
    2.2594   -7.6322    4.3585 H   0  0  0  0  0  0  0  0  0  0  0  0
    2.9508  -10.2493    2.1155 H   0  0  0  0  0  0  0  0  0  0  0  0
  1  2  1  0
  1 32  1  0
  1 33  1  0
  1 34  1  0
  2  3  2  3
  2 35  1  0
  3  9  1  0
  3  4  1  0
  4  5  1  0
  4 36  1  0
  4 37  1  0
  5  6  1  0
  5  7  1  0
  5 61  1  6
  6 38  1  0
  6 39  1  0
  6 40  1  0
  7 31  1  0
  7  8  1  0
  7 41  1  6
  8  9  1  0
  8 42  1  0
  8 43  1  0
  9 10  1  0
  9 44  1  1
 10 11  1  0
 10 45  1  0
 10 46  1  0
 11 31  1  0
 11 12  1  0
 11 47  1  6
 12 13  1  0
 12 48  1  0
 12 49  1  0
 13 14  1  0
 13 17  1  0
 13 50  1  6
 14 15  2  0
 14 16  1  0
 17 29  1  0
 17 18  1  0
 17 51  1  6
 18 23  2  0
 18 19  1  0
 19 20  2  0
 19 52  1  0
 20 21  1  0
 20 53  1  0
 21 22  2  0
 21 54  1  0
 22 23  1  0
 22 55  1  0
 23 24  1  0
 24 28  1  0
 24 25  1  0
 25 26  2  0
 25 56  1  0
 26 27  1  0
 26 57  1  0
 27 28  2  0
 27 58  1  0
 28 29  1  0
 29 30  1  6
 29 31  1  0
 30 59  1  0
 31 60  1  1
M  CHG  2   5   1  16  -1
M  END
>  <i_m_ct_stereo_status>  (285) 
1

>  <s_m_source_file>  (285) 
/var/tmp/pbs.5076255.sched01/tmpy0mqr2dw/78t3ouse6d.sdf

>  <i_m_source_file_index>  (285) 
39

>  <i_lp_mmshare_version>  (285) 
48012

>  <i_f3d_flags>  (285) 
0

>  <s_epik_input>  (285) 
W0NIM10vW0NIXT1DKFtDQEhdKFtDSDJdMSlbQ0gyXTIpXFtDSDJdTihbQ0gzXSlbQ0BASF0xW0NAQEhdM1tDQEBIXTJbQ0gyXVtDQEBIXShDKD1PKVtPSF0pW0NASF0oW0NAXTM0W09IXSljNWMoW2NIXVtjSF1bY0hdW2NIXTUpbjZjNFtjSF1bY0hdW2NIXTY=

>  <s_epik_cmdline>  (285) 
J2VwaWtfcHl0aG9uJywgJy1waHQnLCAnMi4wJywgJy1waCcsICc3LjAnLCAnLXRuJywgJzgnLCAnLW1hJywgJzIwMCcsICctaW1hZScsICc8aW5maWxlLm1hZT4nLCAnLW9tYWUnLCAnPG91dGZpbGUubWFlPic=

>  <r_lp_tautomer_probability>  (285) 
1

>  <r_epik_Ionization_Penalty>  (285) 
0.00638275

>  <r_epik_Ionization_Penalty_Charging>  (285) 
0.00638268

>  <r_epik_Ionization_Penalty_Neutral>  (285) 
7.44004e-08

>  <r_epik_State_Penalty>  (285) 
-0

>  <r_epik_Charging_Adjusted_Penalty>  (285) 
0.00638268

>  <i_epik_Tot_Q>  (285) 
0

>  <i_epik_Tot_abs_Q>  (285) 
2

>  <s_lp_Force_Field>  (285) 
OPLS3e

>  <r_lp_Energy>  (285) 
49.9564

>  <b_lp_Chiralities_Consistent>  (285) 
1

>  <s_lp_Variant>  (285) 
88:0-1

>  <s_i_glide_gridfile>  (285) 
pfpi4k_grid

>  <i_i_glide_lignum>  (285) 
39

>  <i_i_glide_rotatable_bonds>  (285) 
2

>  <r_i_docking_score>  (285) 
-2.93792

>  <r_i_glide_ligand_efficiency>  (285) 
-0.0947715

>  <r_i_glide_ligand_efficiency_sa>  (285) 
-0.297713

>  <r_i_glide_ligand_efficiency_ln>  (285) 
-0.66259

>  <r_i_glide_gscore>  (285) 
-2.93792

>  <r_i_glide_lipo>  (285) 
-0.0504809

>  <r_i_glide_hbond>  (285) 
-0.121459

>  <r_i_glide_metal>  (285) 
-0

>  <r_i_glide_rewards>  (285) 
-0.616119

>  <r_i_glide_evdw>  (285) 
-20.6565

>  <r_i_glide_ecoul>  (285) 
-7.23381

>  <r_i_glide_erotb>  (285) 
0

>  <r_i_glide_esite>  (285) 
-0.0319626

>  <r_i_glide_emodel>  (285) 
-36.2731

>  <r_i_glide_energy>  (285) 
-27.8903

>  <r_i_glide_einternal>  (285) 
0.380448

>  <r_i_glide_intrahb_reward>  (285) 
-0

>  <i_i_glide_confnum>  (285) 
2

>  <i_i_glide_posenum>  (285) 
18

>  <r_i_glide_eff_state_penalty>  (285) 
0

>  <ligand_id>  (285) 
88

>  <original_smiles>  (285) 
CC=C1CN(C)C2CC1CC1CC(C(=O)O)C3c4ccccc4-n4cccc4C3(O)C12

>  <smiles>  (285) 
[H]OC12c3c([H])c([H])c([H])n3-c3c([H])c([H])c([H])c([H])c3C1([H])C([H])(C(=O)[O-])C([H])([H])C1([H])C([H])([H])C3([H])C(=C([H])C([H])([H])[H])C([H])([H])[N+]([H])(C([H])([H])[H])C([H])(C3([H])[H])C21[H]

$$$$
88:1:0
     RDKit          3D

 61 66  0  0  1  0  0  0  0  0999 V2000
    6.3730   -3.4126   -0.2464 C   0  0  0  0  0  0  0  0  0  0  0  0
    5.5197   -4.6710   -0.3003 C   0  0  0  0  0  0  0  0  0  0  0  0
    4.9334   -5.3293    0.7227 C   0  0  0  0  0  0  0  0  0  0  0  0
    4.1335   -6.6141    0.5051 C   0  0  0  0  0  0  0  0  0  0  0  0
    4.5710   -7.7043    1.4268 N   0  0  2  0  0  0  0  0  0  0  0  0
    3.8526   -8.9820    1.1938 C   0  0  0  0  0  0  0  0  0  0  0  0
    4.6845   -7.3033    2.8698 C   0  0  1  0  0  0  0  0  0  0  0  0
    5.6530   -6.1053    2.9414 C   0  0  0  0  0  0  0  0  0  0  0  0
    5.0128   -4.9243    2.1894 C   0  0  2  0  0  0  0  0  0  0  0  0
    3.6057   -4.5716    2.7432 C   0  0  0  0  0  0  0  0  0  0  0  0
    3.1823   -5.4597    3.9309 C   0  0  1  0  0  0  0  0  0  0  0  0
    1.7716   -5.1119    4.4442 C   0  0  0  0  0  0  0  0  0  0  0  0
    1.4407   -5.9883    5.6682 C   0  0  1  0  0  0  0  0  0  0  0  0
    0.1970   -5.5390    6.4664 C   0  0  0  0  0  0  0  0  0  0  0  0
   -0.3931   -4.4955    6.1126 O   0  0  0  0  0  0  0  0  0  0  0  0
   -0.1465   -6.2545    7.4353 O   0  0  0  0  0  0  0  0  0  0  0  0
    1.4884   -7.5009    5.2878 C   0  0  1  0  0  0  0  0  0  0  0  0
    0.4054   -8.0416    4.3182 C   0  0  0  0  0  0  0  0  0  0  0  0
   -0.7721   -7.3254    3.9795 C   0  0  0  0  0  0  0  0  0  0  0  0
   -1.7020   -7.8535    3.0707 C   0  0  0  0  0  0  0  0  0  0  0  0
   -1.4840   -9.1045    2.4826 C   0  0  0  0  0  0  0  0  0  0  0  0
   -0.3267   -9.8353    2.8016 C   0  0  0  0  0  0  0  0  0  0  0  0
    0.6124   -9.3065    3.7084 C   0  0  0  0  0  0  0  0  0  0  0  0
    1.8156   -9.9925    3.9689 N   0  0  0  0  0  0  0  0  0  0  0  0
    2.0658  -11.3482    3.8262 C   0  0  0  0  0  0  0  0  0  0  0  0
    3.3544  -11.5776    4.2131 C   0  0  0  0  0  0  0  0  0  0  0  0
    3.9126  -10.3310    4.6150 C   0  0  0  0  0  0  0  0  0  0  0  0
    2.9501   -9.3675    4.4597 C   0  0  0  0  0  0  0  0  0  0  0  0
    2.9204   -7.8945    4.7816 C   0  0  2  0  0  0  0  0  0  0  0  0
    3.8530   -7.6521    5.8203 O   0  0  0  0  0  0  0  0  0  0  0  0
    3.3097   -6.9740    3.5661 C   0  0  2  0  0  0  0  0  0  0  0  0
    5.9685   -2.6641   -0.9264 H   0  0  0  0  0  0  0  0  0  0  0  0
    7.3869   -3.6409   -0.5740 H   0  0  0  0  0  0  0  0  0  0  0  0
    6.4345   -2.9585    0.7381 H   0  0  0  0  0  0  0  0  0  0  0  0
    5.3917   -5.0646   -1.2982 H   0  0  0  0  0  0  0  0  0  0  0  0
    3.0725   -6.4180    0.6513 H   0  0  0  0  0  0  0  0  0  0  0  0
    4.2407   -6.9422   -0.5283 H   0  0  0  0  0  0  0  0  0  0  0  0
    2.7882   -8.8865    1.4123 H   0  0  0  0  0  0  0  0  0  0  0  0
    4.2641   -9.7822    1.8097 H   0  0  0  0  0  0  0  0  0  0  0  0
    3.9479   -9.2931    0.1523 H   0  0  0  0  0  0  0  0  0  0  0  0
    5.1666   -8.1285    3.3911 H   0  0  0  0  0  0  0  0  0  0  0  0
    5.8807   -5.8470    3.9755 H   0  0  0  0  0  0  0  0  0  0  0  0
    6.6117   -6.3625    2.4826 H   0  0  0  0  0  0  0  0  0  0  0  0
    5.6639   -4.0627    2.3232 H   0  0  0  0  0  0  0  0  0  0  0  0
    3.5862   -3.5273    3.0421 H   0  0  0  0  0  0  0  0  0  0  0  0
    2.8486   -4.6545    1.9632 H   0  0  0  0  0  0  0  0  0  0  0  0
    3.8676   -5.2397    4.7527 H   0  0  0  0  0  0  0  0  0  0  0  0
    1.7222   -4.0546    4.7015 H   0  0  0  0  0  0  0  0  0  0  0  0
    1.0437   -5.2758    3.6516 H   0  0  0  0  0  0  0  0  0  0  0  0
    2.2313   -5.8072    6.3932 H   0  0  0  0  0  0  0  0  0  0  0  0
    1.3105   -8.0614    6.2074 H   0  0  0  0  0  0  0  0  0  0  0  0
   -0.9866   -6.3497    4.3817 H   0  0  0  0  0  0  0  0  0  0  0  0
   -2.5846   -7.2936    2.8128 H   0  0  0  0  0  0  0  0  0  0  0  0
   -2.2019   -9.5062    1.7845 H   0  0  0  0  0  0  0  0  0  0  0  0
   -0.1605  -10.7868    2.3179 H   0  0  0  0  0  0  0  0  0  0  0  0
    1.3062  -12.0435    3.4883 H   0  0  0  0  0  0  0  0  0  0  0  0
    3.8274  -12.5481    4.2307 H   0  0  0  0  0  0  0  0  0  0  0  0
    4.9064  -10.1620    5.0051 H   0  0  0  0  0  0  0  0  0  0  0  0
    3.6116   -8.2057    6.5489 H   0  0  0  0  0  0  0  0  0  0  0  0
    2.5333   -7.1433    2.8233 H   0  0  0  0  0  0  0  0  0  0  0  0
    5.5262   -7.8979    1.1536 H   0  0  0  0  0  0  0  0  0  0  0  0
  1  2  1  0
  1 32  1  0
  1 33  1  0
  1 34  1  0
  2  3  2  3
  2 35  1  0
  3  9  1  0
  3  4  1  0
  4  5  1  0
  4 36  1  0
  4 37  1  0
  5  6  1  0
  5  7  1  0
  5 61  1  6
  6 38  1  0
  6 39  1  0
  6 40  1  0
  7 31  1  0
  7  8  1  0
  7 41  1  1
  8  9  1  0
  8 42  1  0
  8 43  1  0
  9 10  1  0
  9 44  1  6
 10 11  1  0
 10 45  1  0
 10 46  1  0
 11 31  1  0
 11 12  1  0
 11 47  1  1
 12 13  1  0
 12 48  1  0
 12 49  1  0
 13 14  1  0
 13 17  1  0
 13 50  1  1
 14 15  2  0
 14 16  1  0
 17 29  1  0
 17 18  1  0
 17 51  1  1
 18 23  2  0
 18 19  1  0
 19 20  2  0
 19 52  1  0
 20 21  1  0
 20 53  1  0
 21 22  2  0
 21 54  1  0
 22 23  1  0
 22 55  1  0
 23 24  1  0
 24 28  1  0
 24 25  1  0
 25 26  2  0
 25 56  1  0
 26 27  1  0
 26 57  1  0
 27 28  2  0
 27 58  1  0
 28 29  1  0
 29 30  1  1
 29 31  1  0
 30 59  1  0
 31 60  1  6
M  CHG  2   5   1  16  -1
M  END
>  <i_m_ct_stereo_status>  (286) 
1

>  <s_m_source_file>  (286) 
/var/tmp/pbs.5076255.sched01/tmpsouvlwkc/11751gt6aqu.sdf

>  <i_m_source_file_index>  (286) 
1

>  <i_lp_mmshare_version>  (286) 
48012

>  <i_f3d_flags>  (286) 
0

>  <s_epik_input>  (286) 
W0NIM10vW0NIXT1DKFtDQEhdKFtDSDJdMSlbQ0gyXTIpXFtDSDJdTihbQ0gzXSlbQ0BASF0xW0NAQEhdM1tDQEBIXTJbQ0gyXVtDQEBIXShDKD1PKVtPSF0pW0NASF0oW0NAXTM0W09IXSljNWMoW2NIXVtjSF1bY0hdW2NIXTUpbjZjNFtjSF1bY0hdW2NIXTY=

>  <s_epik_cmdline>  (286) 
J2VwaWtfcHl0aG9uJywgJy1waHQnLCAnMi4wJywgJy1waCcsICc3LjAnLCAnLXRuJywgJzgnLCAnLW1hJywgJzIwMCcsICctaW1hZScsICc8aW5maWxlLm1hZT4nLCAnLW9tYWUnLCAnPG91dGZpbGUubWFlPic=

>  <r_lp_tautomer_probability>  (286) 
1

>  <r_epik_Ionization_Penalty>  (286) 
0.00638275

>  <r_epik_Ionization_Penalty_Charging>  (286) 
0.00638268

>  <r_epik_Ionization_Penalty_Neutral>  (286) 
7.44004e-08

>  <r_epik_State_Penalty>  (286) 
-0

>  <r_epik_Charging_Adjusted_Penalty>  (286) 
0.00638268

>  <i_epik_Tot_Q>  (286) 
0

>  <i_epik_Tot_abs_Q>  (286) 
2

>  <s_lp_Force_Field>  (286) 
OPLS3e

>  <r_lp_Energy>  (286) 
49.1235

>  <b_lp_Chiralities_Consistent>  (286) 
1

>  <s_lp_Variant>  (286) 
88:0-2

>  <s_i_glide_gridfile>  (286) 
pfpi4k_grid

>  <i_i_glide_lignum>  (286) 
1

>  <i_i_glide_rotatable_bonds>  (286) 
2

>  <r_i_docking_score>  (286) 
-2.7729

>  <r_i_glide_ligand_efficiency>  (286) 
-0.0894485

>  <r_i_glide_ligand_efficiency_sa>  (286) 
-0.280992

>  <r_i_glide_ligand_efficiency_ln>  (286) 
-0.625374

>  <r_i_glide_gscore>  (286) 
-2.7729

>  <r_i_glide_lipo>  (286) 
-0.609932

>  <r_i_glide_hbond>  (286) 
0

>  <r_i_glide_metal>  (286) 
-0

>  <r_i_glide_rewards>  (286) 
-0.555491

>  <r_i_glide_evdw>  (286) 
-26.479

>  <r_i_glide_ecoul>  (286) 
-1.817

>  <r_i_glide_erotb>  (286) 
0

>  <r_i_glide_esite>  (286) 
-0.0109792

>  <r_i_glide_emodel>  (286) 
-34.2342

>  <r_i_glide_energy>  (286) 
-28.296

>  <r_i_glide_einternal>  (286) 
0.784909

>  <r_i_glide_intrahb_reward>  (286) 
-0

>  <i_i_glide_confnum>  (286) 
2

>  <i_i_glide_posenum>  (286) 
40

>  <r_i_glide_eff_state_penalty>  (286) 
0

>  <ligand_id>  (286) 
88

>  <original_smiles>  (286) 
CC=C1CN(C)C2CC1CC1CC(C(=O)O)C3c4ccccc4-n4cccc4C3(O)C12

>  <smiles>  (286) 
[H]OC12c3c([H])c([H])c([H])n3-c3c([H])c([H])c([H])c([H])c3C1([H])C([H])(C(=O)[O-])C([H])([H])C1([H])C([H])([H])C3([H])C(=C([H])C([H])([H])[H])C([H])([H])[N+]([H])(C([H])([H])[H])C([H])(C3([H])[H])C21[H]

$$$$
88:1:1
     RDKit          3D

 61 66  0  0  1  0  0  0  0  0999 V2000
    6.3728   -3.4321   -0.2660 C   0  0  0  0  0  0  0  0  0  0  0  0
    5.5197   -4.6917   -0.3116 C   0  0  0  0  0  0  0  0  0  0  0  0
    4.9333   -5.3432    0.7153 C   0  0  0  0  0  0  0  0  0  0  0  0
    4.1351   -6.6306    0.5057 C   0  0  0  0  0  0  0  0  0  0  0  0
    4.5729   -7.7134    1.4349 N   0  0  2  0  0  0  0  0  0  0  0  0
    3.8552   -8.9939    1.2112 C   0  0  0  0  0  0  0  0  0  0  0  0
    4.6834   -7.3020    2.8747 C   0  0  1  0  0  0  0  0  0  0  0  0
    5.6514   -6.1024    2.9399 C   0  0  0  0  0  0  0  0  0  0  0  0
    5.0107   -4.9273    2.1783 C   0  0  2  0  0  0  0  0  0  0  0  0
    3.6023   -4.5712    2.7268 C   0  0  0  0  0  0  0  0  0  0  0  0
    3.1787   -5.4508    3.9204 C   0  0  1  0  0  0  0  0  0  0  0  0
    1.7679   -5.1009    4.4311 C   0  0  0  0  0  0  0  0  0  0  0  0
    1.4372   -5.9680    5.6619 C   0  0  1  0  0  0  0  0  0  0  0  0
    0.1897   -5.5146    6.4527 C   0  0  0  0  0  0  0  0  0  0  0  0
   -0.4058   -4.4791    6.0821 O   0  0  0  0  0  0  0  0  0  0  0  0
   -0.1465   -6.2130    7.4346 O   0  0  0  0  0  0  0  0  0  0  0  0
    1.4886   -7.4843    5.2934 C   0  0  1  0  0  0  0  0  0  0  0  0
    0.4070   -8.0315    4.3251 C   0  0  0  0  0  0  0  0  0  0  0  0
   -0.7709   -7.3195    3.9781 C   0  0  0  0  0  0  0  0  0  0  0  0
   -1.6994   -7.8533    3.0686 C   0  0  0  0  0  0  0  0  0  0  0  0
   -1.4804   -9.1096    2.4901 C   0  0  0  0  0  0  0  0  0  0  0  0
   -0.3223   -9.8368    2.8178 C   0  0  0  0  0  0  0  0  0  0  0  0
    0.6142   -9.2999    3.7234 C   0  0  0  0  0  0  0  0  0  0  0  0
    1.8167   -9.9836    3.9907 N   0  0  0  0  0  0  0  0  0  0  0  0
    2.0676  -11.3393    3.8587 C   0  0  0  0  0  0  0  0  0  0  0  0
    3.3554  -11.5657    4.2483 C   0  0  0  0  0  0  0  0  0  0  0  0
    3.9124  -10.3170    4.6420 C   0  0  0  0  0  0  0  0  0  0  0  0
    2.9504   -9.3550    4.4788 C   0  0  0  0  0  0  0  0  0  0  0  0
    2.9233   -7.8794    4.7912 C   0  0  2  0  0  0  0  0  0  0  0  0
    3.8700   -7.6205    5.8154 O   0  0  0  0  0  0  0  0  0  0  0  0
    3.3083   -6.9686    3.5670 C   0  0  2  0  0  0  0  0  0  0  0  0
    5.9684   -2.6896   -0.9529 H   0  0  0  0  0  0  0  0  0  0  0  0
    7.3869   -3.6633   -0.5913 H   0  0  0  0  0  0  0  0  0  0  0  0
    6.4332   -2.9705    0.7148 H   0  0  0  0  0  0  0  0  0  0  0  0
    5.3918   -5.0927   -1.3065 H   0  0  0  0  0  0  0  0  0  0  0  0
    3.0738   -6.4343    0.6486 H   0  0  0  0  0  0  0  0  0  0  0  0
    4.2448   -6.9659   -0.5255 H   0  0  0  0  0  0  0  0  0  0  0  0
    2.7906   -8.8977    1.4279 H   0  0  0  0  0  0  0  0  0  0  0  0
    4.2671   -9.7888    1.8339 H   0  0  0  0  0  0  0  0  0  0  0  0
    3.9523   -9.3126    0.1723 H   0  0  0  0  0  0  0  0  0  0  0  0
    5.1657   -8.1234    3.4028 H   0  0  0  0  0  0  0  0  0  0  0  0
    5.8785   -5.8364    3.9725 H   0  0  0  0  0  0  0  0  0  0  0  0
    6.6108   -6.3623    2.4840 H   0  0  0  0  0  0  0  0  0  0  0  0
    5.6612   -4.0642    2.3066 H   0  0  0  0  0  0  0  0  0  0  0  0
    3.5823   -3.5246    3.0186 H   0  0  0  0  0  0  0  0  0  0  0  0
    2.8466   -4.6605    1.9464 H   0  0  0  0  0  0  0  0  0  0  0  0
    3.8648   -5.2163    4.7374 H   0  0  0  0  0  0  0  0  0  0  0  0
    1.7160   -4.0409    4.6797 H   0  0  0  0  0  0  0  0  0  0  0  0
    1.0405   -5.2715    3.6388 H   0  0  0  0  0  0  0  0  0  0  0  0
    2.2209   -5.7775    6.3909 H   0  0  0  0  0  0  0  0  0  0  0  0
    1.3127   -8.0386    6.2170 H   0  0  0  0  0  0  0  0  0  0  0  0
   -0.9912   -6.3428    4.3731 H   0  0  0  0  0  0  0  0  0  0  0  0
   -2.5837   -7.2965    2.8069 H   0  0  0  0  0  0  0  0  0  0  0  0
   -2.1967   -9.5166    1.7936 H   0  0  0  0  0  0  0  0  0  0  0  0
   -0.1567  -10.7928    2.3440 H   0  0  0  0  0  0  0  0  0  0  0  0
    1.3093  -12.0386    3.5258 H   0  0  0  0  0  0  0  0  0  0  0  0
    3.8290  -12.5357    4.2753 H   0  0  0  0  0  0  0  0  0  0  0  0
    4.9036  -10.1413    5.0362 H   0  0  0  0  0  0  0  0  0  0  0  0
    3.7841   -6.7150    6.0737 H   0  0  0  0  0  0  0  0  0  0  0  0
    2.5316   -7.1445    2.8259 H   0  0  0  0  0  0  0  0  0  0  0  0
    5.5283   -7.9092    1.1648 H   0  0  0  0  0  0  0  0  0  0  0  0
  1  2  1  0
  1 32  1  0
  1 33  1  0
  1 34  1  0
  2  3  2  3
  2 35  1  0
  3  9  1  0
  3  4  1  0
  4  5  1  0
  4 36  1  0
  4 37  1  0
  5  6  1  0
  5  7  1  0
  5 61  1  6
  6 38  1  0
  6 39  1  0
  6 40  1  0
  7 31  1  0
  7  8  1  0
  7 41  1  1
  8  9  1  0
  8 42  1  0
  8 43  1  0
  9 10  1  0
  9 44  1  6
 10 11  1  0
 10 45  1  0
 10 46  1  0
 11 31  1  0
 11 12  1  0
 11 47  1  1
 12 13  1  0
 12 48  1  0
 12 49  1  0
 13 14  1  0
 13 17  1  0
 13 50  1  1
 14 15  2  0
 14 16  1  0
 17 29  1  0
 17 18  1  0
 17 51  1  1
 18 23  2  0
 18 19  1  0
 19 20  2  0
 19 52  1  0
 20 21  1  0
 20 53  1  0
 21 22  2  0
 21 54  1  0
 22 23  1  0
 22 55  1  0
 23 24  1  0
 24 28  1  0
 24 25  1  0
 25 26  2  0
 25 56  1  0
 26 27  1  0
 26 57  1  0
 27 28  2  0
 27 58  1  0
 28 29  1  0
 29 30  1  1
 29 31  1  0
 30 59  1  0
 31 60  1  6
M  CHG  2   5   1  16  -1
M  END
>  <i_m_ct_stereo_status>  (287) 
1

>  <s_m_source_file>  (287) 
/var/tmp/pbs.5076255.sched01/tmpsouvlwkc/11751gt6aqu.sdf

>  <i_m_source_file_index>  (287) 
1

>  <i_lp_mmshare_version>  (287) 
48012

>  <i_f3d_flags>  (287) 
0

>  <s_epik_input>  (287) 
W0NIM10vW0NIXT1DKFtDQEhdKFtDSDJdMSlbQ0gyXTIpXFtDSDJdTihbQ0gzXSlbQ0BASF0xW0NAQEhdM1tDQEBIXTJbQ0gyXVtDQEBIXShDKD1PKVtPSF0pW0NASF0oW0NAXTM0W09IXSljNWMoW2NIXVtjSF1bY0hdW2NIXTUpbjZjNFtjSF1bY0hdW2NIXTY=

>  <s_epik_cmdline>  (287) 
J2VwaWtfcHl0aG9uJywgJy1waHQnLCAnMi4wJywgJy1waCcsICc3LjAnLCAnLXRuJywgJzgnLCAnLW1hJywgJzIwMCcsICctaW1hZScsICc8aW5maWxlLm1hZT4nLCAnLW9tYWUnLCAnPG91dGZpbGUubWFlPic=

>  <r_lp_tautomer_probability>  (287) 
1

>  <r_epik_Ionization_Penalty>  (287) 
0.00638275

>  <r_epik_Ionization_Penalty_Charging>  (287) 
0.00638268

>  <r_epik_Ionization_Penalty_Neutral>  (287) 
7.44004e-08

>  <r_epik_State_Penalty>  (287) 
-0

>  <r_epik_Charging_Adjusted_Penalty>  (287) 
0.00638268

>  <i_epik_Tot_Q>  (287) 
0

>  <i_epik_Tot_abs_Q>  (287) 
2

>  <s_lp_Force_Field>  (287) 
OPLS3e

>  <r_lp_Energy>  (287) 
49.1235

>  <b_lp_Chiralities_Consistent>  (287) 
1

>  <s_lp_Variant>  (287) 
88:0-2

>  <s_i_glide_gridfile>  (287) 
pfpi4k_grid

>  <i_i_glide_lignum>  (287) 
1

>  <i_i_glide_rotatable_bonds>  (287) 
2

>  <r_i_docking_score>  (287) 
-2.71113

>  <r_i_glide_ligand_efficiency>  (287) 
-0.0874558

>  <r_i_glide_ligand_efficiency_sa>  (287) 
-0.274732

>  <r_i_glide_ligand_efficiency_ln>  (287) 
-0.611443

>  <r_i_glide_gscore>  (287) 
-2.71113

>  <r_i_glide_lipo>  (287) 
-0.596735

>  <r_i_glide_hbond>  (287) 
0

>  <r_i_glide_metal>  (287) 
-0

>  <r_i_glide_rewards>  (287) 
-0.555491

>  <r_i_glide_evdw>  (287) 
-26.4324

>  <r_i_glide_ecoul>  (287) 
-1.50422

>  <r_i_glide_erotb>  (287) 
0

>  <r_i_glide_esite>  (287) 
-0.0116536

>  <r_i_glide_emodel>  (287) 
-34.0391

>  <r_i_glide_energy>  (287) 
-27.9366

>  <r_i_glide_einternal>  (287) 
0.134679

>  <r_i_glide_intrahb_reward>  (287) 
-0

>  <i_i_glide_confnum>  (287) 
2

>  <i_i_glide_posenum>  (287) 
30

>  <r_i_glide_eff_state_penalty>  (287) 
0

>  <ligand_id>  (287) 
88

>  <original_smiles>  (287) 
CC=C1CN(C)C2CC1CC1CC(C(=O)O)C3c4ccccc4-n4cccc4C3(O)C12

>  <smiles>  (287) 
[H]OC12c3c([H])c([H])c([H])n3-c3c([H])c([H])c([H])c([H])c3C1([H])C([H])(C(=O)[O-])C([H])([H])C1([H])C([H])([H])C3([H])C(=C([H])C([H])([H])[H])C([H])([H])[N+]([H])(C([H])([H])[H])C([H])(C3([H])[H])C21[H]

$$$$
88:1:2
     RDKit          3D

 61 66  0  0  1  0  0  0  0  0999 V2000
    4.7740   -1.4414   -0.3923 C   0  0  0  0  0  0  0  0  0  0  0  0
    4.2979   -2.8875   -0.3698 C   0  0  0  0  0  0  0  0  0  0  0  0
    3.9522   -3.6374    0.6992 C   0  0  0  0  0  0  0  0  0  0  0  0
    3.5221   -5.0967    0.5573 C   0  0  0  0  0  0  0  0  0  0  0  0
    4.2797   -5.9900    1.4806 N   0  0  2  0  0  0  0  0  0  0  0  0
    3.9258   -7.4211    1.3180 C   0  0  0  0  0  0  0  0  0  0  0  0
    4.3408   -5.5207    2.9055 C   0  0  1  0  0  0  0  0  0  0  0  0
    4.9497   -4.1037    2.8967 C   0  0  0  0  0  0  0  0  0  0  0  0
    3.9800   -3.1694    2.1484 C   0  0  2  0  0  0  0  0  0  0  0  0
    2.5553   -3.1895    2.7654 C   0  0  0  0  0  0  0  0  0  0  0  0
    2.4407   -4.1136    3.9954 C   0  0  1  0  0  0  0  0  0  0  0  0
    1.0115   -4.1394    4.5731 C   0  0  0  0  0  0  0  0  0  0  0  0
    0.9807   -5.0278    5.8319 C   0  0  1  0  0  0  0  0  0  0  0  0
   -0.2990   -4.8872    6.6882 C   0  0  0  0  0  0  0  0  0  0  0  0
   -0.9819   -3.8460    6.5736 O   0  0  0  0  0  0  0  0  0  0  0  0
   -0.5692   -5.8255    7.4716 O   0  0  0  0  0  0  0  0  0  0  0  0
    1.4220   -6.4859    5.4816 C   0  0  1  0  0  0  0  0  0  0  0  0
    0.4882   -7.3369    4.5802 C   0  0  0  0  0  0  0  0  0  0  0  0
   -0.8530   -6.9836    4.2898 C   0  0  0  0  0  0  0  0  0  0  0  0
   -1.6490   -7.7751    3.4439 C   0  0  0  0  0  0  0  0  0  0  0  0
   -1.1245   -8.9460    2.8776 C   0  0  0  0  0  0  0  0  0  0  0  0
    0.2026   -9.3215    3.1498 C   0  0  0  0  0  0  0  0  0  0  0  0
    1.0033   -8.5213    3.9914 C   0  0  0  0  0  0  0  0  0  0  0  0
    2.3592   -8.8431    4.2112 N   0  0  0  0  0  0  0  0  0  0  0  0
    2.9628  -10.0858    4.0942 C   0  0  0  0  0  0  0  0  0  0  0  0
    4.2811   -9.9425    4.4200 C   0  0  0  0  0  0  0  0  0  0  0  0
    4.4951   -8.5770    4.7613 C   0  0  0  0  0  0  0  0  0  0  0  0
    3.3005   -7.9169    4.6302 C   0  0  0  0  0  0  0  0  0  0  0  0
    2.8854   -6.4952    4.9169 C   0  0  2  0  0  0  0  0  0  0  0  0
    3.7603   -5.9692    5.8998 O   0  0  0  0  0  0  0  0  0  0  0  0
    2.9598   -5.5498    3.6616 C   0  0  2  0  0  0  0  0  0  0  0  0
    4.1504   -0.8556   -1.0680 H   0  0  0  0  0  0  0  0  0  0  0  0
    5.7968   -1.3982   -0.7652 H   0  0  0  0  0  0  0  0  0  0  0  0
    4.7498   -0.9489    0.5753 H   0  0  0  0  0  0  0  0  0  0  0  0
    4.2455   -3.3439   -1.3485 H   0  0  0  0  0  0  0  0  0  0  0  0
    2.4551   -5.1899    0.7493 H   0  0  0  0  0  0  0  0  0  0  0  0
    3.6794   -5.4232   -0.4692 H   0  0  0  0  0  0  0  0  0  0  0  0
    2.8854   -7.6100    1.5842 H   0  0  0  0  0  0  0  0  0  0  0  0
    4.5645   -8.0539    1.9340 H   0  0  0  0  0  0  0  0  0  0  0  0
    4.0683   -7.7276    0.2818 H   0  0  0  0  0  0  0  0  0  0  0  0
    5.0515   -6.1648    3.4216 H   0  0  0  0  0  0  0  0  0  0  0  0
    5.1428   -3.7551    3.9117 H   0  0  0  0  0  0  0  0  0  0  0  0
    5.9209   -4.1105    2.3947 H   0  0  0  0  0  0  0  0  0  0  0  0
    4.3768   -2.1589    2.2248 H   0  0  0  0  0  0  0  0  0  0  0  0
    2.2683   -2.1784    3.0406 H   0  0  0  0  0  0  0  0  0  0  0  0
    1.8156   -3.5013    2.0291 H   0  0  0  0  0  0  0  0  0  0  0  0
    3.0759   -3.6842    4.7745 H   0  0  0  0  0  0  0  0  0  0  0  0
    0.6905   -3.1240    4.8025 H   0  0  0  0  0  0  0  0  0  0  0  0
    0.3231   -4.5247    3.8237 H   0  0  0  0  0  0  0  0  0  0  0  0
    1.7250   -4.6155    6.5099 H   0  0  0  0  0  0  0  0  0  0  0  0
    1.4501   -7.0381    6.4229 H   0  0  0  0  0  0  0  0  0  0  0  0
   -1.3028   -6.0931    4.6919 H   0  0  0  0  0  0  0  0  0  0  0  0
   -2.6647   -7.4823    3.2325 H   0  0  0  0  0  0  0  0  0  0  0  0
   -1.7342   -9.5579    2.2298 H   0  0  0  0  0  0  0  0  0  0  0  0
    0.5985  -10.2150    2.6921 H   0  0  0  0  0  0  0  0  0  0  0  0
    2.4040  -10.9714    3.8134 H   0  0  0  0  0  0  0  0  0  0  0  0
    5.0016  -10.7473    4.4366 H   0  0  0  0  0  0  0  0  0  0  0  0
    5.4210   -8.1294    5.0951 H   0  0  0  0  0  0  0  0  0  0  0  0
    3.7026   -6.5293    6.6608 H   0  0  0  0  0  0  0  0  0  0  0  0
    2.2267   -5.9511    2.9646 H   0  0  0  0  0  0  0  0  0  0  0  0
    5.2362   -5.9266    1.1588 H   0  0  0  0  0  0  0  0  0  0  0  0
  1  2  1  0
  1 32  1  0
  1 33  1  0
  1 34  1  0
  2  3  2  3
  2 35  1  0
  3  9  1  0
  3  4  1  0
  4  5  1  0
  4 36  1  0
  4 37  1  0
  5  6  1  0
  5  7  1  0
  5 61  1  6
  6 38  1  0
  6 39  1  0
  6 40  1  0
  7 31  1  0
  7  8  1  0
  7 41  1  1
  8  9  1  0
  8 42  1  0
  8 43  1  0
  9 10  1  0
  9 44  1  6
 10 11  1  0
 10 45  1  0
 10 46  1  0
 11 31  1  0
 11 12  1  0
 11 47  1  1
 12 13  1  0
 12 48  1  0
 12 49  1  0
 13 14  1  0
 13 17  1  0
 13 50  1  1
 14 15  2  0
 14 16  1  0
 17 29  1  0
 17 18  1  0
 17 51  1  1
 18 23  2  0
 18 19  1  0
 19 20  2  0
 19 52  1  0
 20 21  1  0
 20 53  1  0
 21 22  2  0
 21 54  1  0
 22 23  1  0
 22 55  1  0
 23 24  1  0
 24 28  1  0
 24 25  1  0
 25 26  2  0
 25 56  1  0
 26 27  1  0
 26 57  1  0
 27 28  2  0
 27 58  1  0
 28 29  1  0
 29 30  1  1
 29 31  1  0
 30 59  1  0
 31 60  1  6
M  CHG  2   5   1  16  -1
M  END
>  <i_m_ct_stereo_status>  (288) 
1

>  <s_m_source_file>  (288) 
/var/tmp/pbs.5076255.sched01/tmpsouvlwkc/11751gt6aqu.sdf

>  <i_m_source_file_index>  (288) 
1

>  <i_lp_mmshare_version>  (288) 
48012

>  <i_f3d_flags>  (288) 
0

>  <s_epik_input>  (288) 
W0NIM10vW0NIXT1DKFtDQEhdKFtDSDJdMSlbQ0gyXTIpXFtDSDJdTihbQ0gzXSlbQ0BASF0xW0NAQEhdM1tDQEBIXTJbQ0gyXVtDQEBIXShDKD1PKVtPSF0pW0NASF0oW0NAXTM0W09IXSljNWMoW2NIXVtjSF1bY0hdW2NIXTUpbjZjNFtjSF1bY0hdW2NIXTY=

>  <s_epik_cmdline>  (288) 
J2VwaWtfcHl0aG9uJywgJy1waHQnLCAnMi4wJywgJy1waCcsICc3LjAnLCAnLXRuJywgJzgnLCAnLW1hJywgJzIwMCcsICctaW1hZScsICc8aW5maWxlLm1hZT4nLCAnLW9tYWUnLCAnPG91dGZpbGUubWFlPic=

>  <r_lp_tautomer_probability>  (288) 
1

>  <r_epik_Ionization_Penalty>  (288) 
0.00638275

>  <r_epik_Ionization_Penalty_Charging>  (288) 
0.00638268

>  <r_epik_Ionization_Penalty_Neutral>  (288) 
7.44004e-08

>  <r_epik_State_Penalty>  (288) 
-0

>  <r_epik_Charging_Adjusted_Penalty>  (288) 
0.00638268

>  <i_epik_Tot_Q>  (288) 
0

>  <i_epik_Tot_abs_Q>  (288) 
2

>  <s_lp_Force_Field>  (288) 
OPLS3e

>  <r_lp_Energy>  (288) 
49.1235

>  <b_lp_Chiralities_Consistent>  (288) 
1

>  <s_lp_Variant>  (288) 
88:0-2

>  <s_i_glide_gridfile>  (288) 
pfpi4k_grid

>  <i_i_glide_lignum>  (288) 
1

>  <i_i_glide_rotatable_bonds>  (288) 
2

>  <r_i_docking_score>  (288) 
-2.2891

>  <r_i_glide_ligand_efficiency>  (288) 
-0.0738419

>  <r_i_glide_ligand_efficiency_sa>  (288) 
-0.231966

>  <r_i_glide_ligand_efficiency_ln>  (288) 
-0.516262

>  <r_i_glide_gscore>  (288) 
-2.2891

>  <r_i_glide_lipo>  (288) 
-0.123023

>  <r_i_glide_hbond>  (288) 
0

>  <r_i_glide_metal>  (288) 
-0

>  <r_i_glide_rewards>  (288) 
-0.566397

>  <r_i_glide_evdw>  (288) 
-22.5126

>  <r_i_glide_ecoul>  (288) 
-3.11443

>  <r_i_glide_erotb>  (288) 
0

>  <r_i_glide_esite>  (288) 
-0.00688381

>  <r_i_glide_emodel>  (288) 
-30.5205

>  <r_i_glide_energy>  (288) 
-25.627

>  <r_i_glide_einternal>  (288) 
0.656764

>  <r_i_glide_intrahb_reward>  (288) 
-0

>  <i_i_glide_confnum>  (288) 
2

>  <i_i_glide_posenum>  (288) 
38

>  <r_i_glide_eff_state_penalty>  (288) 
0

>  <ligand_id>  (288) 
88

>  <original_smiles>  (288) 
CC=C1CN(C)C2CC1CC1CC(C(=O)O)C3c4ccccc4-n4cccc4C3(O)C12

>  <smiles>  (288) 
[H]OC12c3c([H])c([H])c([H])n3-c3c([H])c([H])c([H])c([H])c3C1([H])C([H])(C(=O)[O-])C([H])([H])C1([H])C([H])([H])C3([H])C(=C([H])C([H])([H])[H])C([H])([H])[N+]([H])(C([H])([H])[H])C([H])(C3([H])[H])C21[H]

$$$$
89:0:0
     RDKit          3D

 79 86  0  0  1  0  0  0  0  0999 V2000
    4.1869   -0.3228    2.2031 C   0  0  0  0  0  0  0  0  0  0  0  0
    4.2483    0.5673    3.3139 O   0  0  0  0  0  0  0  0  0  0  0  0
    3.0217    1.2042    3.6799 C   0  0  2  0  0  0  0  0  0  0  0  0
    3.1678    2.6161    4.2699 C   0  0  1  0  0  0  0  0  0  0  0  0
    1.7649    3.2364    4.2192 C   0  0  0  0  0  0  0  0  0  0  0  0
    0.6080    2.5084    4.2516 C   0  0  0  0  0  0  0  0  0  0  0  0
   -0.7905    3.0318    4.0089 C   0  0  1  0  0  0  0  0  0  0  0  0
   -1.5629    3.3098    5.3115 C   0  0  0  0  0  0  0  0  0  0  0  0
   -0.7929    4.2846    3.3827 O   0  0  0  0  0  0  0  0  0  0  0  0
   -1.4122    1.9021    3.1635 C   0  0  0  0  0  0  0  0  0  0  0  0
   -0.3251    0.8202    3.0128 C   0  0  1  0  0  0  0  0  0  0  0  0
    0.4046    1.0797    1.8298 O   0  0  0  0  0  0  0  0  0  0  0  0
    0.5546    0.9438    4.3522 C   0  0  1  0  0  0  0  0  0  0  0  0
    1.9788    0.3172    4.4603 C   0  0  2  0  0  0  0  0  0  0  0  0
    2.2262    0.0595    6.0262 C   0  0  2  0  0  0  0  0  0  0  0  0
    3.6612   -0.3802    6.1243 C   0  0  2  0  0  0  0  0  0  0  0  0
    3.7033   -1.9582    6.1429 C   0  0  0  0  0  0  0  0  0  0  0  0
    2.5986   -2.7533    5.2640 C   0  0  0  0  0  0  0  0  0  0  0  0
    0.9540   -2.7952    5.2825 C   0  0  2  0  0  0  0  0  0  0  0  0
    0.6343   -4.2660    4.9237 C   0  0  0  0  0  0  0  0  0  0  0  0
    1.0999   -4.6599    3.6512 O   0  0  0  0  0  0  0  0  0  0  0  0
    1.0161   -5.9416    3.2541 C   0  0  0  0  0  0  0  0  0  0  0  0
    0.7732   -6.9953    4.3463 C   0  0  0  0  0  0  0  0  0  0  0  0
    1.1323   -6.2820    2.0851 O   0  0  0  0  0  0  0  0  0  0  0  0
    0.1536   -1.8945    4.3081 C   0  0  0  0  0  0  0  0  0  0  0  0
   -0.5406   -0.7472    4.9401 O   0  0  0  0  0  0  0  0  0  0  0  0
   -0.0624    0.3930    5.7554 C   0  0  2  0  0  0  0  0  0  0  0  0
    0.1548   -0.8889    6.7747 C   0  0  1  0  0  0  0  0  0  0  0  0
    0.1234   -2.4535    6.5482 C   0  0  1  0  0  0  0  0  0  0  0  0
   -1.2549   -2.8643    6.4853 O   0  0  0  0  0  0  0  0  0  0  0  0
   -1.6111   -4.0528    7.1973 C   0  0  0  0  0  0  0  0  0  0  0  0
    1.5511   -0.7329    7.2259 C   0  0  2  0  0  0  0  0  0  0  0  0
    1.5270    0.1326    8.4491 C   0  0  0  0  0  0  0  0  0  0  0  0
    1.2092    1.3001    7.9744 C   0  0  0  0  0  0  0  0  0  0  0  0
    1.2332    1.1053    6.4820 C   0  0  1  0  0  0  0  0  0  0  0  0
    4.5797    0.5661    6.8862 C   0  0  0  0  0  0  0  0  0  0  0  0
    4.9672    0.3257    8.0291 O   0  0  0  0  0  0  0  0  0  0  0  0
    5.0362    1.8286    6.1130 C   0  0  0  0  0  0  0  0  0  0  0  0
    3.9329    2.8273    5.6380 C   0  0  0  0  0  0  0  0  0  0  0  0
    5.1306   -0.8610    2.1052 H   0  0  0  0  0  0  0  0  0  0  0  0
    4.0176    0.2292    1.2756 H   0  0  0  0  0  0  0  0  0  0  0  0
    3.4000   -1.0700    2.2970 H   0  0  0  0  0  0  0  0  0  0  0  0
    2.5999    1.4089    2.7020 H   0  0  0  0  0  0  0  0  0  0  0  0
    3.7405    3.1730    3.5292 H   0  0  0  0  0  0  0  0  0  0  0  0
    1.7121    4.3085    4.0796 H   0  0  0  0  0  0  0  0  0  0  0  0
   -1.7063    2.4158    5.9137 H   0  0  0  0  0  0  0  0  0  0  0  0
   -2.5465    3.7250    5.1007 H   0  0  0  0  0  0  0  0  0  0  0  0
   -1.0232    4.0390    5.9187 H   0  0  0  0  0  0  0  0  0  0  0  0
   -0.4873    4.1585    2.4554 H   0  0  0  0  0  0  0  0  0  0  0  0
   -2.2483    1.4603    3.7106 H   0  0  0  0  0  0  0  0  0  0  0  0
   -1.8175    2.2328    2.1994 H   0  0  0  0  0  0  0  0  0  0  0  0
   -0.8041   -0.1327    2.8110 H   0  0  0  0  0  0  0  0  0  0  0  0
   -0.1612    0.9649    1.0637 H   0  0  0  0  0  0  0  0  0  0  0  0
    2.1033   -0.5998    3.9275 H   0  0  0  0  0  0  0  0  0  0  0  0
    4.1545   -0.2854    5.1859 H   0  0  0  0  0  0  0  0  0  0  0  0
    4.6690   -2.2401    5.7278 H   0  0  0  0  0  0  0  0  0  0  0  0
    3.7831   -2.3581    7.1514 H   0  0  0  0  0  0  0  0  0  0  0  0
    2.8780   -2.6233    4.2211 H   0  0  0  0  0  0  0  0  0  0  0  0
    2.9099   -3.7832    5.4459 H   0  0  0  0  0  0  0  0  0  0  0  0
    1.0719   -4.9064    5.6839 H   0  0  0  0  0  0  0  0  0  0  0  0
   -0.4344   -4.4332    4.9104 H   0  0  0  0  0  0  0  0  0  0  0  0
    0.6537   -6.5869    5.3532 H   0  0  0  0  0  0  0  0  0  0  0  0
    1.6188   -7.6896    4.3828 H   0  0  0  0  0  0  0  0  0  0  0  0
   -0.1050   -7.5939    4.1152 H   0  0  0  0  0  0  0  0  0  0  0  0
    0.6416   -1.7481    3.3497 H   0  0  0  0  0  0  0  0  0  0  0  0
   -0.7071   -2.4719    3.9686 H   0  0  0  0  0  0  0  0  0  0  0  0
   -0.5349   -0.7395    7.6031 H   0  0  0  0  0  0  0  0  0  0  0  0
    0.5430   -2.9895    7.4037 H   0  0  0  0  0  0  0  0  0  0  0  0
   -2.6723   -4.2556    7.0588 H   0  0  0  0  0  0  0  0  0  0  0  0
   -1.4306   -3.9520    8.2702 H   0  0  0  0  0  0  0  0  0  0  0  0
   -1.0780   -4.9408    6.8623 H   0  0  0  0  0  0  0  0  0  0  0  0
    1.9958   -1.6162    7.6744 H   0  0  0  0  0  0  0  0  0  0  0  0
    1.6696   -0.1692    9.4745 H   0  0  0  0  0  0  0  0  0  0  0  0
    1.0523    2.2285    8.4973 H   0  0  0  0  0  0  0  0  0  0  0  0
    1.4710    2.1343    6.3235 H   0  0  0  0  0  0  0  0  0  0  0  0
    5.7066    2.3655    6.7792 H   0  0  0  0  0  0  0  0  0  0  0  0
    5.6519    1.5204    5.2643 H   0  0  0  0  0  0  0  0  0  0  0  0
    4.4241    3.7977    5.5460 H   0  0  0  0  0  0  0  0  0  0  0  0
    3.2635    3.0114    6.4714 H   0  0  0  0  0  0  0  0  0  0  0  0
  1  2  1  0
  1 40  1  0
  1 41  1  0
  1 42  1  0
  2  3  1  0
  3 14  1  0
  3  4  1  0
  3 43  1  6
  4 39  1  0
  4  5  1  0
  4 44  1  6
  5  6  2  0
  5 45  1  0
 13  6  1  1
  6  7  1  0
  7  8  1  0
  7  9  1  6
  7 10  1  0
  8 46  1  0
  8 47  1  0
  8 48  1  0
  9 49  1  0
 10 11  1  0
 10 50  1  0
 10 51  1  0
 11 12  1  0
 11 13  1  0
 11 52  1  6
 12 53  1  0
 13 27  1  0
 13 14  1  0
 14 15  1  0
 14 54  1  6
 15 32  1  0
 15 35  1  0
 15 16  1  6
 16 17  1  0
 16 36  1  0
 16 55  1  6
 17 18  1  0
 17 56  1  0
 17 57  1  0
 18 19  1  0
 18 58  1  0
 18 59  1  0
 19 29  1  0
 19 20  1  6
 19 25  1  0
 20 21  1  0
 20 60  1  0
 20 61  1  0
 21 22  1  0
 22 23  1  0
 22 24  2  0
 23 62  1  0
 23 63  1  0
 23 64  1  0
 25 26  1  0
 25 65  1  0
 25 66  1  0
 27 26  1  6
 27 35  1  0
 27 28  1  0
 28 29  1  0
 28 32  1  0
 28 67  1  1
 29 30  1  0
 29 68  1  1
 30 31  1  0
 31 69  1  0
 31 70  1  0
 31 71  1  0
 32 33  1  0
 32 72  1  1
 33 34  2  0
 33 73  1  0
 34 35  1  0
 34 74  1  0
 35 75  1  6
 36 37  2  0
 36 38  1  0
 38 39  1  0
 38 76  1  0
 38 77  1  0
 39 78  1  0
 39 79  1  0
M  END
>  <i_m_ct_stereo_status>  (289) 
1

>  <s_m_source_file>  (289) 
/var/tmp/pbs.5076255.sched01/tmpsouvlwkc/11751gt6aqu.sdf

>  <i_m_source_file_index>  (289) 
2

>  <i_lp_mmshare_version>  (289) 
48012

>  <i_f3d_flags>  (289) 
0

>  <s_epik_input>  (289) 
W0NAQF0xMjNDNDVbQ0BASF02W0NASF03QzgoW0NIXTVbQ0hdPVtDSF03KVtDQEBIXTNbQ0BIXShPW0NIM10pW0NAQEhdKFtDSF09QzFbQ0BAXShbQ0gzXSkoW09IXSlbQ0gyXVtDQEhdMltPSF0pW0NIMl1bQ0gyXUMoPU8pW0NASF04W0NIMl1bQ0gyXVtDQF0oW0NIMl1PNCkoW0NAQEhdNk9bQ0gzXSlbQ0gyXU9DKD1PKVtDSDNd

>  <s_epik_cmdline>  (289) 
J2VwaWtfcHl0aG9uJywgJy1waHQnLCAnMi4wJywgJy1waCcsICc3LjAnLCAnLXRuJywgJzgnLCAnLW1hJywgJzIwMCcsICctaW1hZScsICc8aW5maWxlLm1hZT4nLCAnLW9tYWUnLCAnPG91dGZpbGUubWFlPic=

>  <r_lp_tautomer_probability>  (289) 
1

>  <r_epik_Ionization_Penalty>  (289) 
2.28583e-07

>  <r_epik_Ionization_Penalty_Charging>  (289) 
0

>  <r_epik_Ionization_Penalty_Neutral>  (289) 
2.28583e-07

>  <r_epik_State_Penalty>  (289) 
-0

>  <r_epik_Charging_Adjusted_Penalty>  (289) 
0

>  <i_epik_Tot_Q>  (289) 
0

>  <i_epik_Tot_abs_Q>  (289) 
0

>  <s_epik_Chemistry_Notes>  (289) 
This compound has an ester and may undergo hydrolysis at high or low pH.

>  <s_lp_Force_Field>  (289) 
OPLS3e

>  <r_lp_Energy>  (289) 
362.388

>  <b_lp_Chiralities_Consistent>  (289) 
1

>  <s_lp_Variant>  (289) 
89:0-1

>  <s_i_glide_gridfile>  (289) 
pfpi4k_grid

>  <i_i_glide_lignum>  (289) 
2

>  <i_i_glide_rotatable_bonds>  (289) 
7

>  <r_i_docking_score>  (289) 
-2.59983

>  <r_i_glide_ligand_efficiency>  (289) 
-0.0666622

>  <r_i_glide_ligand_efficiency_sa>  (289) 
-0.226066

>  <r_i_glide_ligand_efficiency_ln>  (289) 
-0.557477

>  <r_i_glide_gscore>  (289) 
-2.59983

>  <r_i_glide_lipo>  (289) 
-0.10195

>  <r_i_glide_hbond>  (289) 
-0.25338

>  <r_i_glide_metal>  (289) 
-0

>  <r_i_glide_rewards>  (289) 
0

>  <r_i_glide_evdw>  (289) 
-23.9914

>  <r_i_glide_ecoul>  (289) 
-7.69876

>  <r_i_glide_erotb>  (289) 
0.141471

>  <r_i_glide_esite>  (289) 
-0.0315824

>  <r_i_glide_emodel>  (289) 
-31.7994

>  <r_i_glide_energy>  (289) 
-31.6902

>  <r_i_glide_einternal>  (289) 
9.52638

>  <r_i_glide_intrahb_reward>  (289) 
-0

>  <i_i_glide_confnum>  (289) 
3

>  <i_i_glide_posenum>  (289) 
37

>  <r_i_glide_eff_state_penalty>  (289) 
0

>  <ligand_id>  (289) 
89

>  <original_smiles>  (289) 
COC1C2C=C3C(C)(O)CC(O)C34C1C13C(CCC5(COC(C)=O)COC46C(C5OC)C1C=CC36)C(=O)CC2

>  <smiles>  (289) 
[H]OC1([H])C([H])([H])C(O[H])(C([H])([H])[H])C2=C([H])C3([H])C([H])([H])C([H])([H])C(=O)C4([H])C([H])([H])C([H])([H])C5(C([H])([H])OC(=O)C([H])([H])[H])C([H])([H])OC67C8([H])C([H])=C([H])C([H])(C6([H])C5([H])OC([H])([H])[H])C48C([H])(C3([H])OC([H])([H])[H])C217

$$$$
89:0:1
     RDKit          3D

 79 86  0  0  1  0  0  0  0  0999 V2000
    4.4776   -7.6163    7.6304 C   0  0  0  0  0  0  0  0  0  0  0  0
    4.2537   -8.7089    6.7386 O   0  0  0  0  0  0  0  0  0  0  0  0
    3.1184   -8.5840    5.8893 C   0  0  2  0  0  0  0  0  0  0  0  0
    2.5061   -9.9314    5.4878 C   0  0  1  0  0  0  0  0  0  0  0  0
    1.1033   -9.6032    4.9647 C   0  0  0  0  0  0  0  0  0  0  0  0
    0.7552   -8.4274    4.4168 C   0  0  0  0  0  0  0  0  0  0  0  0
   -0.6520   -7.9865    4.0810 C   0  0  1  0  0  0  0  0  0  0  0  0
   -0.9950   -8.1412    2.5769 C   0  0  0  0  0  0  0  0  0  0  0  0
   -1.6352   -8.6343    4.8503 O   0  0  0  0  0  0  0  0  0  0  0  0
   -0.6141   -6.4997    4.5144 C   0  0  0  0  0  0  0  0  0  0  0  0
    0.7993   -6.2107    5.0487 C   0  0  1  0  0  0  0  0  0  0  0  0
    0.8072   -6.4310    6.4393 O   0  0  0  0  0  0  0  0  0  0  0  0
    1.7397   -7.2141    4.2196 C   0  0  1  0  0  0  0  0  0  0  0  0
    3.1848   -7.5518    4.7058 C   0  0  2  0  0  0  0  0  0  0  0  0
    3.9936   -7.9643    3.3854 C   0  0  2  0  0  0  0  0  0  0  0  0
    5.3196   -8.4442    3.8891 C   0  0  2  0  0  0  0  0  0  0  0  0
    6.3464   -7.2494    3.7846 C   0  0  0  0  0  0  0  0  0  0  0  0
    5.7949   -5.7437    4.0492 C   0  0  0  0  0  0  0  0  0  0  0  0
    4.6314   -4.8014    3.3261 C   0  0  2  0  0  0  0  0  0  0  0  0
    5.1705   -3.3496    3.4980 C   0  0  0  0  0  0  0  0  0  0  0  0
    5.4390   -3.0055    4.8597 O   0  0  0  0  0  0  0  0  0  0  0  0
    4.5332   -2.4488    5.6604 C   0  0  0  0  0  0  0  0  0  0  0  0
    5.0810   -2.1664    7.0508 C   0  0  0  0  0  0  0  0  0  0  0  0
    3.3627   -2.1927    5.3640 O   0  0  0  0  0  0  0  0  0  0  0  0
    3.1812   -4.7685    3.8772 C   0  0  0  0  0  0  0  0  0  0  0  0
    2.1670   -5.5133    3.0940 O   0  0  0  0  0  0  0  0  0  0  0  0
    2.0612   -6.9172    2.6515 C   0  0  2  0  0  0  0  0  0  0  0  0
    3.3204   -6.3339    1.7450 C   0  0  1  0  0  0  0  0  0  0  0  0
    4.2078   -5.0207    1.8517 C   0  0  1  0  0  0  0  0  0  0  0  0
    3.4748   -3.8927    1.3474 O   0  0  0  0  0  0  0  0  0  0  0  0
    3.3711   -3.7895   -0.0678 C   0  0  0  0  0  0  0  0  0  0  0  0
    4.3734   -7.3468    1.9678 C   0  0  2  0  0  0  0  0  0  0  0  0
    4.1903   -8.3906    0.9208 C   0  0  0  0  0  0  0  0  0  0  0  0
    3.0962   -8.9899    1.2741 C   0  0  0  0  0  0  0  0  0  0  0  0
    2.7692   -8.3908    2.6100 C   0  0  1  0  0  0  0  0  0  0  0  0
    5.6010   -9.9173    3.6162 C   0  0  0  0  0  0  0  0  0  0  0  0
    6.3767  -10.2837    2.7319 O   0  0  0  0  0  0  0  0  0  0  0  0
    4.8881  -10.9118    4.5642 C   0  0  0  0  0  0  0  0  0  0  0  0
    3.3263  -10.9289    4.5767 C   0  0  0  0  0  0  0  0  0  0  0  0
    5.4666   -7.6928    8.0869 H   0  0  0  0  0  0  0  0  0  0  0  0
    3.7344   -7.6227    8.4282 H   0  0  0  0  0  0  0  0  0  0  0  0
    4.4330   -6.6389    7.1499 H   0  0  0  0  0  0  0  0  0  0  0  0
    2.3846   -8.2121    6.5946 H   0  0  0  0  0  0  0  0  0  0  0  0
    2.3479  -10.4426    6.4347 H   0  0  0  0  0  0  0  0  0  0  0  0
    0.3420  -10.3671    5.1241 H   0  0  0  0  0  0  0  0  0  0  0  0
   -0.3667   -7.5588    1.9069 H   0  0  0  0  0  0  0  0  0  0  0  0
   -2.0223   -7.8430    2.3823 H   0  0  0  0  0  0  0  0  0  0  0  0
   -0.8978   -9.1785    2.2744 H   0  0  0  0  0  0  0  0  0  0  0  0
   -1.5903   -9.6295    4.7618 H   0  0  0  0  0  0  0  0  0  0  0  0
   -0.7671   -5.8673    3.6468 H   0  0  0  0  0  0  0  0  0  0  0  0
   -1.3889   -6.2558    5.2349 H   0  0  0  0  0  0  0  0  0  0  0  0
    0.9829   -5.1386    4.9805 H   0  0  0  0  0  0  0  0  0  0  0  0
    0.7874   -7.3784    6.5766 H   0  0  0  0  0  0  0  0  0  0  0  0
    3.6905   -6.7411    5.1927 H   0  0  0  0  0  0  0  0  0  0  0  0
    5.3068   -8.5057    4.9549 H   0  0  0  0  0  0  0  0  0  0  0  0
    7.0905   -7.4469    4.5574 H   0  0  0  0  0  0  0  0  0  0  0  0
    6.9586   -7.3056    2.8811 H   0  0  0  0  0  0  0  0  0  0  0  0
    5.5957   -5.6887    5.1160 H   0  0  0  0  0  0  0  0  0  0  0  0
    6.7187   -5.1729    3.9676 H   0  0  0  0  0  0  0  0  0  0  0  0
    6.0904   -3.2618    2.9371 H   0  0  0  0  0  0  0  0  0  0  0  0
    4.5070   -2.6031    3.0453 H   0  0  0  0  0  0  0  0  0  0  0  0
    6.1771   -2.3033    7.1125 H   0  0  0  0  0  0  0  0  0  0  0  0
    4.6307   -2.8303    7.7829 H   0  0  0  0  0  0  0  0  0  0  0  0
    4.8598   -1.1446    7.3351 H   0  0  0  0  0  0  0  0  0  0  0  0
    3.1490   -4.8601    4.9587 H   0  0  0  0  0  0  0  0  0  0  0  0
    2.8022   -3.7896    3.7439 H   0  0  0  0  0  0  0  0  0  0  0  0
    2.9666   -6.3719    0.7123 H   0  0  0  0  0  0  0  0  0  0  0  0
    5.1042   -5.0643    1.2308 H   0  0  0  0  0  0  0  0  0  0  0  0
    2.7967   -2.8943   -0.3136 H   0  0  0  0  0  0  0  0  0  0  0  0
    2.8405   -4.6335   -0.5054 H   0  0  0  0  0  0  0  0  0  0  0  0
    4.3504   -3.7017   -0.5414 H   0  0  0  0  0  0  0  0  0  0  0  0
    5.3681   -7.0238    1.6991 H   0  0  0  0  0  0  0  0  0  0  0  0
    4.7501   -8.5124    0.0059 H   0  0  0  0  0  0  0  0  0  0  0  0
    2.5221   -9.7548    0.7773 H   0  0  0  0  0  0  0  0  0  0  0  0
    2.2198   -9.2646    2.8853 H   0  0  0  0  0  0  0  0  0  0  0  0
    5.2210  -11.9034    4.2675 H   0  0  0  0  0  0  0  0  0  0  0  0
    5.2583  -10.7604    5.5777 H   0  0  0  0  0  0  0  0  0  0  0  0
    3.0303  -11.9204    4.9256 H   0  0  0  0  0  0  0  0  0  0  0  0
    2.9806  -10.9568    3.5496 H   0  0  0  0  0  0  0  0  0  0  0  0
  1  2  1  0
  1 40  1  0
  1 41  1  0
  1 42  1  0
  2  3  1  0
  3 14  1  0
  3  4  1  0
  3 43  1  1
  4 39  1  0
  4  5  1  0
  4 44  1  1
  5  6  2  0
  5 45  1  0
 13  6  1  6
  6  7  1  0
  7  8  1  0
  7  9  1  1
  7 10  1  0
  8 46  1  0
  8 47  1  0
  8 48  1  0
  9 49  1  0
 10 11  1  0
 10 50  1  0
 10 51  1  0
 11 12  1  0
 11 13  1  0
 11 52  1  1
 12 53  1  0
 13 27  1  0
 13 14  1  0
 14 15  1  0
 14 54  1  1
 15 32  1  0
 15 35  1  0
 15 16  1  1
 16 17  1  0
 16 36  1  0
 16 55  1  1
 17 18  1  0
 17 56  1  0
 17 57  1  0
 18 19  1  0
 18 58  1  0
 18 59  1  0
 19 29  1  0
 19 20  1  6
 19 25  1  0
 20 21  1  0
 20 60  1  0
 20 61  1  0
 21 22  1  0
 22 23  1  0
 22 24  2  0
 23 62  1  0
 23 63  1  0
 23 64  1  0
 25 26  1  0
 25 65  1  0
 25 66  1  0
 27 26  1  1
 27 35  1  0
 27 28  1  0
 28 29  1  0
 28 32  1  0
 28 67  1  6
 29 30  1  0
 29 68  1  6
 30 31  1  0
 31 69  1  0
 31 70  1  0
 31 71  1  0
 32 33  1  0
 32 72  1  1
 33 34  2  0
 33 73  1  0
 34 35  1  0
 34 74  1  0
 35 75  1  1
 36 37  2  0
 36 38  1  0
 38 39  1  0
 38 76  1  0
 38 77  1  0
 39 78  1  0
 39 79  1  0
M  END
>  <i_m_ct_stereo_status>  (290) 
1

>  <s_m_source_file>  (290) 
/var/tmp/pbs.5076255.sched01/tmpsouvlwkc/11751gt6aqu.sdf

>  <i_m_source_file_index>  (290) 
2

>  <i_lp_mmshare_version>  (290) 
48012

>  <i_f3d_flags>  (290) 
0

>  <s_epik_input>  (290) 
W0NAQF0xMjNDNDVbQ0BASF02W0NASF03QzgoW0NIXTVbQ0hdPVtDSF03KVtDQEBIXTNbQ0BIXShPW0NIM10pW0NAQEhdKFtDSF09QzFbQ0BAXShbQ0gzXSkoW09IXSlbQ0gyXVtDQEhdMltPSF0pW0NIMl1bQ0gyXUMoPU8pW0NASF04W0NIMl1bQ0gyXVtDQF0oW0NIMl1PNCkoW0NAQEhdNk9bQ0gzXSlbQ0gyXU9DKD1PKVtDSDNd

>  <s_epik_cmdline>  (290) 
J2VwaWtfcHl0aG9uJywgJy1waHQnLCAnMi4wJywgJy1waCcsICc3LjAnLCAnLXRuJywgJzgnLCAnLW1hJywgJzIwMCcsICctaW1hZScsICc8aW5maWxlLm1hZT4nLCAnLW9tYWUnLCAnPG91dGZpbGUubWFlPic=

>  <r_lp_tautomer_probability>  (290) 
1

>  <r_epik_Ionization_Penalty>  (290) 
2.28583e-07

>  <r_epik_Ionization_Penalty_Charging>  (290) 
0

>  <r_epik_Ionization_Penalty_Neutral>  (290) 
2.28583e-07

>  <r_epik_State_Penalty>  (290) 
-0

>  <r_epik_Charging_Adjusted_Penalty>  (290) 
0

>  <i_epik_Tot_Q>  (290) 
0

>  <i_epik_Tot_abs_Q>  (290) 
0

>  <s_epik_Chemistry_Notes>  (290) 
This compound has an ester and may undergo hydrolysis at high or low pH.

>  <s_lp_Force_Field>  (290) 
OPLS3e

>  <r_lp_Energy>  (290) 
362.388

>  <b_lp_Chiralities_Consistent>  (290) 
1

>  <s_lp_Variant>  (290) 
89:0-1

>  <s_i_glide_gridfile>  (290) 
pfpi4k_grid

>  <i_i_glide_lignum>  (290) 
2

>  <i_i_glide_rotatable_bonds>  (290) 
7

>  <r_i_docking_score>  (290) 
-2.06004

>  <r_i_glide_ligand_efficiency>  (290) 
-0.0528216

>  <r_i_glide_ligand_efficiency_sa>  (290) 
-0.179129

>  <r_i_glide_ligand_efficiency_ln>  (290) 
-0.441732

>  <r_i_glide_gscore>  (290) 
-2.06004

>  <r_i_glide_lipo>  (290) 
-0.134532

>  <r_i_glide_hbond>  (290) 
-0.153559

>  <r_i_glide_metal>  (290) 
-0

>  <r_i_glide_rewards>  (290) 
-0.012334

>  <r_i_glide_evdw>  (290) 
-18.5951

>  <r_i_glide_ecoul>  (290) 
-6.43836

>  <r_i_glide_erotb>  (290) 
0.141471

>  <r_i_glide_esite>  (290) 
-0.0055805

>  <r_i_glide_emodel>  (290) 
-27.723

>  <r_i_glide_energy>  (290) 
-25.0335

>  <r_i_glide_einternal>  (290) 
2.28726

>  <r_i_glide_intrahb_reward>  (290) 
-0

>  <i_i_glide_confnum>  (290) 
1

>  <i_i_glide_posenum>  (290) 
23

>  <r_i_glide_eff_state_penalty>  (290) 
0

>  <ligand_id>  (290) 
89

>  <original_smiles>  (290) 
COC1C2C=C3C(C)(O)CC(O)C34C1C13C(CCC5(COC(C)=O)COC46C(C5OC)C1C=CC36)C(=O)CC2

>  <smiles>  (290) 
[H]OC1([H])C([H])([H])C(O[H])(C([H])([H])[H])C2=C([H])C3([H])C([H])([H])C([H])([H])C(=O)C4([H])C([H])([H])C([H])([H])C5(C([H])([H])OC(=O)C([H])([H])[H])C([H])([H])OC67C8([H])C([H])=C([H])C([H])(C6([H])C5([H])OC([H])([H])[H])C48C([H])(C3([H])OC([H])([H])[H])C217

$$$$
89:0:2
     RDKit          3D

 79 86  0  0  1  0  0  0  0  0999 V2000
    0.2749   -6.6187    8.3709 C   0  0  0  0  0  0  0  0  0  0  0  0
    1.4763   -7.3368    8.0946 O   0  0  0  0  0  0  0  0  0  0  0  0
    1.6247   -7.8167    6.7559 C   0  0  2  0  0  0  0  0  0  0  0  0
    2.4715   -9.0865    6.6385 C   0  0  1  0  0  0  0  0  0  0  0  0
    2.1607   -9.6683    5.2481 C   0  0  0  0  0  0  0  0  0  0  0  0
    1.7545   -8.9080    4.1860 C   0  0  0  0  0  0  0  0  0  0  0  0
    1.2370   -9.4232    2.8573 C   0  0  1  0  0  0  0  0  0  0  0  0
    2.3370   -9.4387    1.7751 C   0  0  0  0  0  0  0  0  0  0  0  0
    0.7268  -10.7347    2.9589 O   0  0  0  0  0  0  0  0  0  0  0  0
    0.0872   -8.4487    2.5505 C   0  0  0  0  0  0  0  0  0  0  0  0
    0.0426   -7.4634    3.7336 C   0  0  1  0  0  0  0  0  0  0  0  0
   -0.8643   -7.9650    4.6975 O   0  0  0  0  0  0  0  0  0  0  0  0
    1.5637   -7.3553    4.2297 C   0  0  1  0  0  0  0  0  0  0  0  0
    1.9324   -6.7596    5.6269 C   0  0  2  0  0  0  0  0  0  0  0  0
    3.4346   -6.2076    5.4864 C   0  0  2  0  0  0  0  0  0  0  0  0
    3.8168   -5.7977    6.8835 C   0  0  2  0  0  0  0  0  0  0  0  0
    3.5732   -4.2444    7.0376 C   0  0  0  0  0  0  0  0  0  0  0  0
    2.3079   -3.5961    6.2527 C   0  0  0  0  0  0  0  0  0  0  0  0
    1.8905   -3.5032    4.6595 C   0  0  2  0  0  0  0  0  0  0  0  0
    1.2003   -2.1156    4.5171 C   0  0  0  0  0  0  0  0  0  0  0  0
    0.0064   -2.0144    5.2711 O   0  0  0  0  0  0  0  0  0  0  0  0
   -0.8531   -0.9919    5.0820 C   0  0  0  0  0  0  0  0  0  0  0  0
   -0.4340    0.0858    4.0725 C   0  0  0  0  0  0  0  0  0  0  0  0
   -1.9261   -0.9021    5.6766 O   0  0  0  0  0  0  0  0  0  0  0  0
    0.9129   -4.5559    4.0750 C   0  0  0  0  0  0  0  0  0  0  0  0
    1.5250   -5.5537    3.1613 O   0  0  0  0  0  0  0  0  0  0  0  0
    2.6344   -6.5232    3.3222 C   0  0  2  0  0  0  0  0  0  0  0  0
    3.4371   -5.0848    3.3666 C   0  0  1  0  0  0  0  0  0  0  0  0
    2.9350   -3.5927    3.5145 C   0  0  1  0  0  0  0  0  0  0  0  0
    2.4047   -3.1568    2.2557 O   0  0  0  0  0  0  0  0  0  0  0  0
    3.3524   -2.6566    1.3168 C   0  0  0  0  0  0  0  0  0  0  0  0
    4.2536   -5.1806    4.5904 C   0  0  2  0  0  0  0  0  0  0  0  0
    5.5628   -5.7956    4.1978 C   0  0  0  0  0  0  0  0  0  0  0  0
    5.2369   -7.0221    3.9212 C   0  0  0  0  0  0  0  0  0  0  0  0
    3.7909   -7.1207    4.3337 C   0  0  1  0  0  0  0  0  0  0  0  0
    4.9557   -6.5998    7.4962 C   0  0  0  0  0  0  0  0  0  0  0  0
    6.0989   -6.1539    7.5939 O   0  0  0  0  0  0  0  0  0  0  0  0
    4.5684   -8.0033    8.0351 C   0  0  0  0  0  0  0  0  0  0  0  0
    4.0083   -9.0460    7.0115 C   0  0  0  0  0  0  0  0  0  0  0  0
    0.3412   -6.1301    9.3451 H   0  0  0  0  0  0  0  0  0  0  0  0
   -0.5823   -7.2950    8.3932 H   0  0  0  0  0  0  0  0  0  0  0  0
    0.0584   -5.8358    7.6446 H   0  0  0  0  0  0  0  0  0  0  0  0
    0.6201   -8.1816    6.5756 H   0  0  0  0  0  0  0  0  0  0  0  0
    2.0159   -9.7857    7.3404 H   0  0  0  0  0  0  0  0  0  0  0  0
    2.2058  -10.7438    5.1538 H   0  0  0  0  0  0  0  0  0  0  0  0
    2.7123   -8.4417    1.5501 H   0  0  0  0  0  0  0  0  0  0  0  0
    1.9700   -9.8547    0.8424 H   0  0  0  0  0  0  0  0  0  0  0  0
    3.1874  -10.0482    2.0799 H   0  0  0  0  0  0  0  0  0  0  0  0
    0.4480  -11.0036    2.0962 H   0  0  0  0  0  0  0  0  0  0  0  0
    0.3027   -7.9010    1.6290 H   0  0  0  0  0  0  0  0  0  0  0  0
   -0.8708   -8.9524    2.3878 H   0  0  0  0  0  0  0  0  0  0  0  0
   -0.4533   -6.5606    3.4056 H   0  0  0  0  0  0  0  0  0  0  0  0
   -0.6977   -8.8946    4.8254 H   0  0  0  0  0  0  0  0  0  0  0  0
    1.2977   -5.9642    5.9474 H   0  0  0  0  0  0  0  0  0  0  0  0
    3.0658   -6.0931    7.5833 H   0  0  0  0  0  0  0  0  0  0  0  0
    3.3851   -4.0744    8.0975 H   0  0  0  0  0  0  0  0  0  0  0  0
    4.4820   -3.6634    6.8860 H   0  0  0  0  0  0  0  0  0  0  0  0
    1.4177   -3.9385    6.7751 H   0  0  0  0  0  0  0  0  0  0  0  0
    2.3796   -2.5613    6.5853 H   0  0  0  0  0  0  0  0  0  0  0  0
    1.8906   -1.3312    4.8185 H   0  0  0  0  0  0  0  0  0  0  0  0
    0.9198   -1.9308    3.4873 H   0  0  0  0  0  0  0  0  0  0  0  0
    0.5414   -0.1096    3.6132 H   0  0  0  0  0  0  0  0  0  0  0  0
   -0.4178    1.0679    4.5561 H   0  0  0  0  0  0  0  0  0  0  0  0
   -1.1711    0.1544    3.2739 H   0  0  0  0  0  0  0  0  0  0  0  0
    0.1600   -4.8953    4.7790 H   0  0  0  0  0  0  0  0  0  0  0  0
    0.2592   -4.0306    3.3812 H   0  0  0  0  0  0  0  0  0  0  0  0
    4.0707   -5.0738    2.4820 H   0  0  0  0  0  0  0  0  0  0  0  0
    3.7425   -2.8873    3.7396 H   0  0  0  0  0  0  0  0  0  0  0  0
    2.8385   -2.3753    0.3989 H   0  0  0  0  0  0  0  0  0  0  0  0
    4.1041   -3.4019    1.0506 H   0  0  0  0  0  0  0  0  0  0  0  0
    3.8645   -1.7679    1.6889 H   0  0  0  0  0  0  0  0  0  0  0  0
    4.6320   -4.2391    4.9700 H   0  0  0  0  0  0  0  0  0  0  0  0
    6.5167   -5.2981    4.0890 H   0  0  0  0  0  0  0  0  0  0  0  0
    5.8546   -7.8268    3.5523 H   0  0  0  0  0  0  0  0  0  0  0  0
    3.8809   -8.1667    4.5185 H   0  0  0  0  0  0  0  0  0  0  0  0
    5.4759   -8.4180    8.4703 H   0  0  0  0  0  0  0  0  0  0  0  0
    3.8714   -7.8848    8.8663 H   0  0  0  0  0  0  0  0  0  0  0  0
    4.2250  -10.0274    7.4365 H   0  0  0  0  0  0  0  0  0  0  0  0
    4.6580   -9.0441    6.1415 H   0  0  0  0  0  0  0  0  0  0  0  0
  1  2  1  0
  1 40  1  0
  1 41  1  0
  1 42  1  0
  2  3  1  0
  3 14  1  0
  3  4  1  0
  3 43  1  6
  4 39  1  0
  4  5  1  0
  4 44  1  1
  5  6  2  0
  5 45  1  0
 13  6  1  1
  6  7  1  0
  7  8  1  0
  7  9  1  1
  7 10  1  0
  8 46  1  0
  8 47  1  0
  8 48  1  0
  9 49  1  0
 10 11  1  0
 10 50  1  0
 10 51  1  0
 11 12  1  0
 11 13  1  0
 11 52  1  6
 12 53  1  0
 13 27  1  0
 13 14  1  0
 14 15  1  0
 14 54  1  1
 15 32  1  0
 15 35  1  0
 15 16  1  1
 16 17  1  0
 16 36  1  0
 16 55  1  1
 17 18  1  0
 17 56  1  0
 17 57  1  0
 18 19  1  0
 18 58  1  0
 18 59  1  0
 19 29  1  0
 19 20  1  1
 19 25  1  0
 20 21  1  0
 20 60  1  0
 20 61  1  0
 21 22  1  0
 22 23  1  0
 22 24  2  0
 23 62  1  0
 23 63  1  0
 23 64  1  0
 25 26  1  0
 25 65  1  0
 25 66  1  0
 27 26  1  1
 27 35  1  0
 27 28  1  0
 28 29  1  0
 28 32  1  0
 28 67  1  6
 29 30  1  0
 29 68  1  1
 30 31  1  0
 31 69  1  0
 31 70  1  0
 31 71  1  0
 32 33  1  0
 32 72  1  1
 33 34  2  0
 33 73  1  0
 34 35  1  0
 34 74  1  0
 35 75  1  1
 36 37  2  0
 36 38  1  0
 38 39  1  0
 38 76  1  0
 38 77  1  0
 39 78  1  0
 39 79  1  0
M  END
>  <i_m_ct_stereo_status>  (291) 
1

>  <s_m_source_file>  (291) 
/var/tmp/pbs.5076255.sched01/tmpsouvlwkc/11751gt6aqu.sdf

>  <i_m_source_file_index>  (291) 
2

>  <i_lp_mmshare_version>  (291) 
48012

>  <i_f3d_flags>  (291) 
0

>  <s_epik_input>  (291) 
W0NAQF0xMjNDNDVbQ0BASF02W0NASF03QzgoW0NIXTVbQ0hdPVtDSF03KVtDQEBIXTNbQ0BIXShPW0NIM10pW0NAQEhdKFtDSF09QzFbQ0BAXShbQ0gzXSkoW09IXSlbQ0gyXVtDQEhdMltPSF0pW0NIMl1bQ0gyXUMoPU8pW0NASF04W0NIMl1bQ0gyXVtDQF0oW0NIMl1PNCkoW0NAQEhdNk9bQ0gzXSlbQ0gyXU9DKD1PKVtDSDNd

>  <s_epik_cmdline>  (291) 
J2VwaWtfcHl0aG9uJywgJy1waHQnLCAnMi4wJywgJy1waCcsICc3LjAnLCAnLXRuJywgJzgnLCAnLW1hJywgJzIwMCcsICctaW1hZScsICc8aW5maWxlLm1hZT4nLCAnLW9tYWUnLCAnPG91dGZpbGUubWFlPic=

>  <r_lp_tautomer_probability>  (291) 
1

>  <r_epik_Ionization_Penalty>  (291) 
2.28583e-07

>  <r_epik_Ionization_Penalty_Charging>  (291) 
0

>  <r_epik_Ionization_Penalty_Neutral>  (291) 
2.28583e-07

>  <r_epik_State_Penalty>  (291) 
-0

>  <r_epik_Charging_Adjusted_Penalty>  (291) 
0

>  <i_epik_Tot_Q>  (291) 
0

>  <i_epik_Tot_abs_Q>  (291) 
0

>  <s_epik_Chemistry_Notes>  (291) 
This compound has an ester and may undergo hydrolysis at high or low pH.

>  <s_lp_Force_Field>  (291) 
OPLS3e

>  <r_lp_Energy>  (291) 
362.388

>  <b_lp_Chiralities_Consistent>  (291) 
1

>  <s_lp_Variant>  (291) 
89:0-1

>  <s_i_glide_gridfile>  (291) 
pfpi4k_grid

>  <i_i_glide_lignum>  (291) 
2

>  <i_i_glide_rotatable_bonds>  (291) 
7

>  <r_i_docking_score>  (291) 
-1.85342

>  <r_i_glide_ligand_efficiency>  (291) 
-0.0475237

>  <r_i_glide_ligand_efficiency_sa>  (291) 
-0.161163

>  <r_i_glide_ligand_efficiency_ln>  (291) 
-0.397426

>  <r_i_glide_gscore>  (291) 
-1.85342

>  <r_i_glide_lipo>  (291) 
-0.0860449

>  <r_i_glide_hbond>  (291) 
-0.0427772

>  <r_i_glide_metal>  (291) 
-0

>  <r_i_glide_rewards>  (291) 
0

>  <r_i_glide_evdw>  (291) 
-23.9607

>  <r_i_glide_ecoul>  (291) 
-4.24267

>  <r_i_glide_erotb>  (291) 
0.141471

>  <r_i_glide_esite>  (291) 
-0.0316371

>  <r_i_glide_emodel>  (291) 
-28.0877

>  <r_i_glide_energy>  (291) 
-28.2034

>  <r_i_glide_einternal>  (291) 
7.82896

>  <r_i_glide_intrahb_reward>  (291) 
-0

>  <i_i_glide_confnum>  (291) 
3

>  <i_i_glide_posenum>  (291) 
14

>  <r_i_glide_eff_state_penalty>  (291) 
0

>  <ligand_id>  (291) 
89

>  <original_smiles>  (291) 
COC1C2C=C3C(C)(O)CC(O)C34C1C13C(CCC5(COC(C)=O)COC46C(C5OC)C1C=CC36)C(=O)CC2

>  <smiles>  (291) 
[H]OC1([H])C([H])([H])C(O[H])(C([H])([H])[H])C2=C([H])C3([H])C([H])([H])C([H])([H])C(=O)C4([H])C([H])([H])C([H])([H])C5(C([H])([H])OC(=O)C([H])([H])[H])C([H])([H])OC67C8([H])C([H])=C([H])C([H])(C6([H])C5([H])OC([H])([H])[H])C48C([H])(C3([H])OC([H])([H])[H])C217

$$$$
90:0:0
     RDKit          3D

 82 89  0  0  1  0  0  0  0  0999 V2000
    7.3847  -12.0662    6.3051 C   0  0  0  0  0  0  0  0  0  0  0  0
    6.9275  -11.7568    4.8687 C   0  0  2  0  0  0  0  0  0  0  0  0
    7.9244  -10.8935    4.3292 O   0  0  0  0  0  0  0  0  0  0  0  0
    7.6146   -9.5368    4.0780 C   0  0  1  0  0  0  0  0  0  0  0  0
    6.8448   -9.3326    2.7403 C   0  0  1  0  0  0  0  0  0  0  0  0
    6.3309  -10.6399    2.1873 C   0  0  0  0  0  0  0  0  0  0  0  0
    5.2301  -11.2434    3.0355 C   0  0  0  0  0  0  0  0  0  0  0  0
    5.4046  -11.4199    4.6016 C   0  0  1  0  0  0  0  0  0  0  0  0
    4.6693  -12.8267    4.7321 C   0  0  0  0  0  0  0  0  0  0  0  0
    4.7489  -10.2143    5.5852 C   0  0  1  0  0  0  0  0  0  0  0  0
    3.5079   -9.5326    4.7866 C   0  0  2  0  0  0  0  0  0  0  0  0
    2.6240  -10.5472    4.2978 O   0  0  0  0  0  0  0  0  0  0  0  0
    1.2696  -10.5646    4.4076 C   0  0  0  0  0  0  0  0  0  0  0  0
    0.6173  -11.5664    4.1333 O   0  0  0  0  0  0  0  0  0  0  0  0
    0.5242   -9.2907    4.8576 C   0  0  0  0  0  0  0  0  0  0  0  0
    1.0912   -7.8881    4.5107 C   0  0  0  0  0  0  0  0  0  0  0  0
    2.1279   -7.8626    3.3999 C   0  0  0  0  0  0  0  0  0  0  0  0
    1.7585   -7.5038    2.2805 O   0  0  0  0  0  0  0  0  0  0  0  0
    3.5846   -8.2885    3.7514 C   0  0  2  0  0  0  0  0  0  0  0  0
    4.5721   -8.0967    2.4836 C   0  0  0  0  0  0  0  0  0  0  0  0
    4.1465   -8.7036    1.1167 C   0  0  0  0  0  0  0  0  0  0  0  0
    4.6606   -6.5641    2.2128 C   0  0  0  0  0  0  0  0  0  0  0  0
    5.9973   -8.1852    2.6740 O   0  0  0  0  0  0  0  0  0  0  0  0
    4.0657  -10.9046    6.9180 C   0  0  1  0  0  0  0  0  0  0  0  0
    4.6152  -12.1410    7.3149 O   0  0  0  0  0  0  0  0  0  0  0  0
    3.9164  -10.2448    8.3625 C   0  0  1  0  0  0  0  0  0  0  0  0
    3.0762  -11.0677    9.1700 O   0  0  0  0  0  0  0  0  0  0  0  0
    5.2734  -10.2000    9.1145 C   0  0  0  0  0  0  0  0  0  0  0  0
    6.1528   -9.0695    8.5981 C   0  0  0  0  0  0  0  0  0  0  0  0
    5.5675   -8.2709    7.4016 C   0  0  2  0  0  0  0  0  0  0  0  0
    6.3469   -6.9068    7.4778 C   0  0  0  0  0  0  0  0  0  0  0  0
    4.0828   -7.8898    7.5875 C   0  0  0  0  0  0  0  0  0  0  0  0
    3.5893   -6.8841    7.0659 O   0  0  0  0  0  0  0  0  0  0  0  0
    3.2428   -8.8475    8.4184 C   0  0  2  0  0  0  0  0  0  0  0  0
    3.2012   -8.2755    9.8363 C   0  0  0  0  0  0  0  0  0  0  0  0
    1.9853   -8.0504   10.3157 C   0  0  0  0  0  0  0  0  0  0  0  0
    1.0291   -8.3823    9.2875 C   0  0  0  0  0  0  0  0  0  0  0  0
   -0.1858   -8.2786    9.3794 O   0  0  0  0  0  0  0  0  0  0  0  0
    1.7335   -8.8597    8.0295 C   0  0  0  0  0  0  0  0  0  0  0  0
    5.7701   -9.0391    6.0441 C   0  0  2  0  0  0  0  0  0  0  0  0
    5.9935   -8.0268    5.0812 O   0  0  0  0  0  0  0  0  0  0  0  0
    7.1121   -8.8448    5.3184 C   0  0  2  0  0  0  0  0  0  0  0  0
    6.9128  -12.9615    6.7084 H   0  0  0  0  0  0  0  0  0  0  0  0
    7.1888  -11.2424    6.9832 H   0  0  0  0  0  0  0  0  0  0  0  0
    8.4583  -12.2567    6.3319 H   0  0  0  0  0  0  0  0  0  0  0  0
    7.1297  -12.6799    4.3241 H   0  0  0  0  0  0  0  0  0  0  0  0
    8.5862   -9.0783    3.8973 H   0  0  0  0  0  0  0  0  0  0  0  0
    7.6137   -9.0451    2.0291 H   0  0  0  0  0  0  0  0  0  0  0  0
    5.9962  -10.5418    1.1580 H   0  0  0  0  0  0  0  0  0  0  0  0
    7.1532  -11.3497    2.1028 H   0  0  0  0  0  0  0  0  0  0  0  0
    4.2965  -10.7955    2.7700 H   0  0  0  0  0  0  0  0  0  0  0  0
    5.1305  -12.1874    2.5049 H   0  0  0  0  0  0  0  0  0  0  0  0
    3.5996  -12.7444    4.9240 H   0  0  0  0  0  0  0  0  0  0  0  0
    5.1023  -13.4675    5.4968 H   0  0  0  0  0  0  0  0  0  0  0  0
    4.7587  -13.5085    3.8880 H   0  0  0  0  0  0  0  0  0  0  0  0
    2.9562   -9.0983    5.6143 H   0  0  0  0  0  0  0  0  0  0  0  0
   -0.4500   -9.3452    4.3644 H   0  0  0  0  0  0  0  0  0  0  0  0
    0.2838   -9.3621    5.9170 H   0  0  0  0  0  0  0  0  0  0  0  0
    0.2716   -7.2269    4.2232 H   0  0  0  0  0  0  0  0  0  0  0  0
    1.5431   -7.4216    5.3856 H   0  0  0  0  0  0  0  0  0  0  0  0
    3.8829   -7.4733    4.4062 H   0  0  0  0  0  0  0  0  0  0  0  0
    3.4249   -8.0708    0.6074 H   0  0  0  0  0  0  0  0  0  0  0  0
    3.6834   -9.6846    1.1725 H   0  0  0  0  0  0  0  0  0  0  0  0
    4.9894   -8.7568    0.4281 H   0  0  0  0  0  0  0  0  0  0  0  0
    3.7214   -6.1053    1.9106 H   0  0  0  0  0  0  0  0  0  0  0  0
    5.3657   -6.3397    1.4091 H   0  0  0  0  0  0  0  0  0  0  0  0
    5.0082   -6.0251    3.0948 H   0  0  0  0  0  0  0  0  0  0  0  0
    3.0568  -11.1855    6.6171 H   0  0  0  0  0  0  0  0  0  0  0  0
    3.8956  -12.7274    7.5184 H   0  0  0  0  0  0  0  0  0  0  0  0
    2.4173  -11.4883    8.6090 H   0  0  0  0  0  0  0  0  0  0  0  0
    5.1002  -10.0546   10.1817 H   0  0  0  0  0  0  0  0  0  0  0  0
    5.8269  -11.1408    9.0933 H   0  0  0  0  0  0  0  0  0  0  0  0
    6.3376   -8.3971    9.4407 H   0  0  0  0  0  0  0  0  0  0  0  0
    7.1341   -9.4579    8.3338 H   0  0  0  0  0  0  0  0  0  0  0  0
    7.4289   -7.0354    7.5266 H   0  0  0  0  0  0  0  0  0  0  0  0
    6.0818   -6.3592    8.3894 H   0  0  0  0  0  0  0  0  0  0  0  0
    6.1286   -6.2181    6.6576 H   0  0  0  0  0  0  0  0  0  0  0  0
    4.0949   -8.0805   10.4194 H   0  0  0  0  0  0  0  0  0  0  0  0
    1.7353   -7.6902   11.3034 H   0  0  0  0  0  0  0  0  0  0  0  0
    1.4880   -8.1775    7.2218 H   0  0  0  0  0  0  0  0  0  0  0  0
    1.3744   -9.8524    7.7580 H   0  0  0  0  0  0  0  0  0  0  0  0
    7.9122   -8.3981    5.9036 H   0  0  0  0  0  0  0  0  0  0  0  0
  1  2  1  0
  1 43  1  0
  1 44  1  0
  1 45  1  0
  2  8  1  0
  2  3  1  0
  2 46  1  6
  3  4  1  0
  4 42  1  0
  4  5  1  0
  4 47  1  6
  5 23  1  0
  5  6  1  0
  5 48  1  6
  6  7  1  0
  6 49  1  0
  6 50  1  0
  7  8  1  0
  7 51  1  0
  7 52  1  0
  8  9  1  1
 10  8  1  6
  9 53  1  0
  9 54  1  0
  9 55  1  0
 10 40  1  0
 10 11  1  0
 10 24  1  0
 11 19  1  0
 11 12  1  0
 11 56  1  1
 12 13  1  0
 13 14  2  0
 13 15  1  0
 15 16  1  0
 15 57  1  0
 15 58  1  0
 16 17  1  0
 16 59  1  0
 16 60  1  0
 17 18  2  0
 17 19  1  0
 19 20  1  0
 19 61  1  1
 20 21  1  0
 20 22  1  0
 20 23  1  0
 21 62  1  0
 21 63  1  0
 21 64  1  0
 22 65  1  0
 22 66  1  0
 22 67  1  0
 24 25  1  0
 24 26  1  0
 24 68  1  6
 25 69  1  0
 26 34  1  0
 26 27  1  1
 26 28  1  0
 27 70  1  0
 28 29  1  0
 28 71  1  0
 28 72  1  0
 29 30  1  0
 29 73  1  0
 29 74  1  0
 30 31  1  6
 30 32  1  0
 30 40  1  0
 31 75  1  0
 31 76  1  0
 31 77  1  0
 32 33  2  0
 32 34  1  0
 34 39  1  6
 34 35  1  0
 35 36  2  0
 35 78  1  0
 36 37  1  0
 36 79  1  0
 37 38  2  0
 37 39  1  0
 39 80  1  0
 39 81  1  0
 40 42  1  0
 40 41  1  6
 41 42  1  0
 42 82  1  1
M  END
>  <i_m_ct_stereo_status>  (292) 
1

>  <s_m_source_file>  (292) 
/var/tmp/pbs.5076255.sched01/tmpsouvlwkc/11751gt6aqu.sdf

>  <i_m_source_file_index>  (292) 
3

>  <i_lp_mmshare_version>  (292) 
48012

>  <i_f3d_flags>  (292) 
2

>  <s_epik_input>  (292) 
Tz1DMVtDSDJdW0NIMl1DKD1PKU9bQ0BASF0yW0NASF0xQyhbQ0gzXSkoW0NIM10pT1tDQEhdKFtDSDJdW0NIMl1bQ0BAXTMoW0NIM10pW0NAQEhdKE80KVtDSDNdKVtDQEhdNFtDQEBIXShPNSlDNShbQ0BAXTIzNilbQ0BdNyhbQ0gzXSlbQ0gyXVtDSDJdW0NAXShbT0hdKShbQ0BASF02W09IXSlbQ0BdOChDNz1PKVtDSF09W0NIXUMoPU8pW0NIMl04

>  <s_epik_cmdline>  (292) 
J2VwaWtfcHl0aG9uJywgJy1waHQnLCAnMi4wJywgJy1waCcsICc3LjAnLCAnLXRuJywgJzgnLCAnLW1hJywgJzIwMCcsICctaW1hZScsICc8aW5maWxlLm1hZT4nLCAnLW9tYWUnLCAnPG91dGZpbGUubWFlPic=

>  <r_lp_tautomer_probability>  (292) 
1

>  <r_epik_Ionization_Penalty>  (292) 
1.33208e-06

>  <r_epik_Ionization_Penalty_Charging>  (292) 
0

>  <r_epik_Ionization_Penalty_Neutral>  (292) 
1.33208e-06

>  <r_epik_State_Penalty>  (292) 
-0

>  <r_epik_Charging_Adjusted_Penalty>  (292) 
0

>  <i_epik_Tot_Q>  (292) 
0

>  <i_epik_Tot_abs_Q>  (292) 
0

>  <s_epik_Chemistry_Notes>  (292) 
This compound has an ester and may undergo hydrolysis at high or low pH.

>  <s_lp_Force_Field>  (292) 
OPLS3e

>  <r_lp_Energy>  (292) 
169.077

>  <b_lp_Chiralities_Consistent>  (292) 
0

>  <s_lp_Variant>  (292) 
90:0-1

>  <s_i_glide_gridfile>  (292) 
pfpi4k_grid

>  <i_i_glide_lignum>  (292) 
3

>  <i_i_glide_rotatable_bonds>  (292) 
2

>  <r_i_docking_score>  (292) 
-3.1706

>  <r_i_glide_ligand_efficiency>  (292) 
-0.0754906

>  <r_i_glide_ligand_efficiency_sa>  (292) 
-0.262407

>  <r_i_glide_ligand_efficiency_ln>  (292) 
-0.669233

>  <r_i_glide_gscore>  (292) 
-3.1706

>  <r_i_glide_lipo>  (292) 
-0.0832504

>  <r_i_glide_hbond>  (292) 
-0.233416

>  <r_i_glide_metal>  (292) 
-0

>  <r_i_glide_rewards>  (292) 
0

>  <r_i_glide_evdw>  (292) 
-26.3098

>  <r_i_glide_ecoul>  (292) 
-9.94369

>  <r_i_glide_erotb>  (292) 
0

>  <r_i_glide_esite>  (292) 
-0.0468914

>  <r_i_glide_emodel>  (292) 
-43.6493

>  <r_i_glide_energy>  (292) 
-36.2535

>  <r_i_glide_einternal>  (292) 
1.64895

>  <r_i_glide_intrahb_reward>  (292) 
-0

>  <i_i_glide_confnum>  (292) 
2

>  <i_i_glide_posenum>  (292) 
39

>  <r_i_glide_eff_state_penalty>  (292) 
0

>  <ligand_id>  (292) 
90

>  <original_smiles>  (292) 
CC1OC2C3CCC1(C)C1(C4OC(=O)CCC(=O)C4C(C)(C)O3)C(O)C3(O)CCC(C)(C(=O)C34C=CC(=O)C4)C13OC23

>  <smiles>  (292) 
[H]OC1([H])C2(O[H])C([H])([H])C([H])([H])C(C([H])([H])[H])(C(=O)C23C([H])=C([H])C(=O)C3([H])[H])C23OC2([H])C2([H])OC([H])(C([H])([H])[H])C4(C([H])([H])[H])C([H])([H])C([H])([H])C2([H])OC(C([H])([H])[H])(C([H])([H])[H])C2([H])C(=O)C([H])([H])C([H])([H])C(=O)OC2([H])C134

$$$$
90:0:1
     RDKit          3D

 82 89  0  0  1  0  0  0  0  0999 V2000
    7.1009  -11.1101    3.3841 C   0  0  0  0  0  0  0  0  0  0  0  0
    7.7235   -9.7987    3.8929 C   0  0  2  0  0  0  0  0  0  0  0  0
    8.0924  -10.0529    5.2424 O   0  0  0  0  0  0  0  0  0  0  0  0
    7.3877   -9.4229    6.2940 C   0  0  1  0  0  0  0  0  0  0  0  0
    7.8637   -7.9640    6.5449 C   0  0  1  0  0  0  0  0  0  0  0  0
    8.7287   -7.4617    5.4124 C   0  0  0  0  0  0  0  0  0  0  0  0
    7.9561   -7.2725    4.1224 C   0  0  0  0  0  0  0  0  0  0  0  0
    7.0264   -8.4217    3.5471 C   0  0  1  0  0  0  0  0  0  0  0  0
    7.3652   -8.1938    2.0093 C   0  0  0  0  0  0  0  0  0  0  0  0
    5.3821   -8.3366    3.8975 C   0  0  1  0  0  0  0  0  0  0  0  0
    5.0009   -6.7745    4.1359 C   0  0  2  0  0  0  0  0  0  0  0  0
    5.4864   -5.9660    3.0492 O   0  0  0  0  0  0  0  0  0  0  0  0
    4.8009   -5.0081    2.3692 C   0  0  0  0  0  0  0  0  0  0  0  0
    5.2324   -4.5191    1.3120 O   0  0  0  0  0  0  0  0  0  0  0  0
    3.4473   -4.5309    2.9014 C   0  0  0  0  0  0  0  0  0  0  0  0
    3.1969   -4.4746    4.4317 C   0  0  0  0  0  0  0  0  0  0  0  0
    4.4430   -4.5596    5.3005 C   0  0  0  0  0  0  0  0  0  0  0  0
    4.8775   -3.5174    5.7717 O   0  0  0  0  0  0  0  0  0  0  0  0
    5.0879   -5.9609    5.5269 C   0  0  2  0  0  0  0  0  0  0  0  0
    6.3213   -5.8689    6.5710 C   0  0  0  0  0  0  0  0  0  0  0  0
    7.4145   -4.7923    6.3353 C   0  0  0  0  0  0  0  0  0  0  0  0
    5.7144   -5.4860    7.9509 C   0  0  0  0  0  0  0  0  0  0  0  0
    6.9025   -7.0697    7.1124 O   0  0  0  0  0  0  0  0  0  0  0  0
    4.5236   -8.8007    2.5755 C   0  0  1  0  0  0  0  0  0  0  0  0
    5.1759   -9.7267    1.7287 O   0  0  0  0  0  0  0  0  0  0  0  0
    3.0905   -9.4785    2.5762 C   0  0  1  0  0  0  0  0  0  0  0  0
    2.6486   -9.4575    1.2361 O   0  0  0  0  0  0  0  0  0  0  0  0
    3.1480  -10.9727    2.9980 C   0  0  0  0  0  0  0  0  0  0  0  0
    3.2910  -11.0909    4.5063 C   0  0  0  0  0  0  0  0  0  0  0  0
    3.4373   -9.7470    5.2602 C   0  0  2  0  0  0  0  0  0  0  0  0
    3.0180  -10.1085    6.7195 C   0  0  0  0  0  0  0  0  0  0  0  0
    2.4036   -8.6748    4.8166 C   0  0  0  0  0  0  0  0  0  0  0  0
    2.0015   -7.8010    5.5601 O   0  0  0  0  0  0  0  0  0  0  0  0
    1.9650   -8.7512    3.3625 C   0  0  2  0  0  0  0  0  0  0  0  0
    0.6208   -9.4967    3.3627 C   0  0  0  0  0  0  0  0  0  0  0  0
   -0.3882   -8.8417    2.8132 C   0  0  0  0  0  0  0  0  0  0  0  0
    0.0756   -7.5253    2.4025 C   0  0  0  0  0  0  0  0  0  0  0  0
   -0.5809   -6.6513    1.8556 O   0  0  0  0  0  0  0  0  0  0  0  0
    1.5481   -7.3615    2.7782 C   0  0  0  0  0  0  0  0  0  0  0  0
    4.8965   -9.1835    5.1791 C   0  0  2  0  0  0  0  0  0  0  0  0
    5.1271   -8.5553    6.4254 O   0  0  0  0  0  0  0  0  0  0  0  0
    5.9125   -9.6977    6.2083 C   0  0  2  0  0  0  0  0  0  0  0  0
    7.0949  -11.1728    2.2967 H   0  0  0  0  0  0  0  0  0  0  0  0
    6.0851  -11.2458    3.7425 H   0  0  0  0  0  0  0  0  0  0  0  0
    7.6789  -11.9685    3.7279 H   0  0  0  0  0  0  0  0  0  0  0  0
    8.7022   -9.7677    3.4125 H   0  0  0  0  0  0  0  0  0  0  0  0
    7.7014   -9.9631    7.1864 H   0  0  0  0  0  0  0  0  0  0  0  0
    8.5744   -8.0558    7.3645 H   0  0  0  0  0  0  0  0  0  0  0  0
    9.2369   -6.5390    5.6747 H   0  0  0  0  0  0  0  0  0  0  0  0
    9.5506   -8.1588    5.2392 H   0  0  0  0  0  0  0  0  0  0  0  0
    7.4667   -6.3223    4.1295 H   0  0  0  0  0  0  0  0  0  0  0  0
    8.7994   -7.0390    3.4733 H   0  0  0  0  0  0  0  0  0  0  0  0
    6.7010   -7.4879    1.5129 H   0  0  0  0  0  0  0  0  0  0  0  0
    7.3709   -9.1124    1.4294 H   0  0  0  0  0  0  0  0  0  0  0  0
    8.3780   -7.8677    1.7676 H   0  0  0  0  0  0  0  0  0  0  0  0
    3.9357   -6.7977    3.9502 H   0  0  0  0  0  0  0  0  0  0  0  0
    3.3932   -3.4969    2.5750 H   0  0  0  0  0  0  0  0  0  0  0  0
    2.6313   -5.0229    2.3795 H   0  0  0  0  0  0  0  0  0  0  0  0
    2.6594   -3.5549    4.6839 H   0  0  0  0  0  0  0  0  0  0  0  0
    2.5448   -5.2891    4.7395 H   0  0  0  0  0  0  0  0  0  0  0  0
    4.3174   -6.4465    6.1181 H   0  0  0  0  0  0  0  0  0  0  0  0
    7.1044   -3.7988    6.6584 H   0  0  0  0  0  0  0  0  0  0  0  0
    7.7017   -4.6932    5.2978 H   0  0  0  0  0  0  0  0  0  0  0  0
    8.3086   -5.0020    6.9205 H   0  0  0  0  0  0  0  0  0  0  0  0
    5.2484   -4.5018    7.9828 H   0  0  0  0  0  0  0  0  0  0  0  0
    6.4812   -5.4695    8.7301 H   0  0  0  0  0  0  0  0  0  0  0  0
    4.9597   -6.2085    8.2671 H   0  0  0  0  0  0  0  0  0  0  0  0
    4.4148   -7.9128    1.9517 H   0  0  0  0  0  0  0  0  0  0  0  0
    4.5375  -10.3648    1.4090 H   0  0  0  0  0  0  0  0  0  0  0  0
    1.7864   -9.8529    1.1962 H   0  0  0  0  0  0  0  0  0  0  0  0
    2.2471  -11.4971    2.6807 H   0  0  0  0  0  0  0  0  0  0  0  0
    3.9229  -11.5593    2.5049 H   0  0  0  0  0  0  0  0  0  0  0  0
    2.4159  -11.6359    4.8714 H   0  0  0  0  0  0  0  0  0  0  0  0
    4.1326  -11.7380    4.7396 H   0  0  0  0  0  0  0  0  0  0  0  0
    3.5099  -11.0038    7.1072 H   0  0  0  0  0  0  0  0  0  0  0  0
    1.9531  -10.3471    6.7226 H   0  0  0  0  0  0  0  0  0  0  0  0
    3.1121   -9.3073    7.4531 H   0  0  0  0  0  0  0  0  0  0  0  0
    0.4609  -10.4997    3.7612 H   0  0  0  0  0  0  0  0  0  0  0  0
   -1.3957   -9.2150    2.6687 H   0  0  0  0  0  0  0  0  0  0  0  0
    1.6191   -6.5427    3.4834 H   0  0  0  0  0  0  0  0  0  0  0  0
    2.1166   -7.0945    1.8904 H   0  0  0  0  0  0  0  0  0  0  0  0
    5.6192  -10.5845    6.7594 H   0  0  0  0  0  0  0  0  0  0  0  0
  1  2  1  0
  1 43  1  0
  1 44  1  0
  1 45  1  0
  2  8  1  0
  2  3  1  0
  2 46  1  6
  3  4  1  0
  4 42  1  0
  4  5  1  0
  4 47  1  1
  5 23  1  0
  5  6  1  0
  5 48  1  1
  6  7  1  0
  6 49  1  0
  6 50  1  0
  7  8  1  0
  7 51  1  0
  7 52  1  0
  8  9  1  6
 10  8  1  6
  9 53  1  0
  9 54  1  0
  9 55  1  0
 10 40  1  0
 10 11  1  0
 10 24  1  0
 11 19  1  0
 11 12  1  0
 11 56  1  6
 12 13  1  0
 13 14  2  0
 13 15  1  0
 15 16  1  0
 15 57  1  0
 15 58  1  0
 16 17  1  0
 16 59  1  0
 16 60  1  0
 17 18  2  0
 17 19  1  0
 19 20  1  0
 19 61  1  1
 20 21  1  0
 20 22  1  0
 20 23  1  0
 21 62  1  0
 21 63  1  0
 21 64  1  0
 22 65  1  0
 22 66  1  0
 22 67  1  0
 24 25  1  0
 24 26  1  0
 24 68  1  6
 25 69  1  0
 26 34  1  0
 26 27  1  6
 26 28  1  0
 27 70  1  0
 28 29  1  0
 28 71  1  0
 28 72  1  0
 29 30  1  0
 29 73  1  0
 29 74  1  0
 30 31  1  1
 30 32  1  0
 30 40  1  0
 31 75  1  0
 31 76  1  0
 31 77  1  0
 32 33  2  0
 32 34  1  0
 34 39  1  6
 34 35  1  0
 35 36  2  0
 35 78  1  0
 36 37  1  0
 36 79  1  0
 37 38  2  0
 37 39  1  0
 39 80  1  0
 39 81  1  0
 40 42  1  0
 40 41  1  1
 41 42  1  0
 42 82  1  1
M  END
>  <i_m_ct_stereo_status>  (293) 
1

>  <s_m_source_file>  (293) 
/var/tmp/pbs.5076255.sched01/tmpsouvlwkc/11751gt6aqu.sdf

>  <i_m_source_file_index>  (293) 
3

>  <i_lp_mmshare_version>  (293) 
48012

>  <i_f3d_flags>  (293) 
2

>  <s_epik_input>  (293) 
Tz1DMVtDSDJdW0NIMl1DKD1PKU9bQ0BASF0yW0NASF0xQyhbQ0gzXSkoW0NIM10pT1tDQEhdKFtDSDJdW0NIMl1bQ0BAXTMoW0NIM10pW0NAQEhdKE80KVtDSDNdKVtDQEhdNFtDQEBIXShPNSlDNShbQ0BAXTIzNilbQ0BdNyhbQ0gzXSlbQ0gyXVtDSDJdW0NAXShbT0hdKShbQ0BASF02W09IXSlbQ0BdOChDNz1PKVtDSF09W0NIXUMoPU8pW0NIMl04

>  <s_epik_cmdline>  (293) 
J2VwaWtfcHl0aG9uJywgJy1waHQnLCAnMi4wJywgJy1waCcsICc3LjAnLCAnLXRuJywgJzgnLCAnLW1hJywgJzIwMCcsICctaW1hZScsICc8aW5maWxlLm1hZT4nLCAnLW9tYWUnLCAnPG91dGZpbGUubWFlPic=

>  <r_lp_tautomer_probability>  (293) 
1

>  <r_epik_Ionization_Penalty>  (293) 
1.33208e-06

>  <r_epik_Ionization_Penalty_Charging>  (293) 
0

>  <r_epik_Ionization_Penalty_Neutral>  (293) 
1.33208e-06

>  <r_epik_State_Penalty>  (293) 
-0

>  <r_epik_Charging_Adjusted_Penalty>  (293) 
0

>  <i_epik_Tot_Q>  (293) 
0

>  <i_epik_Tot_abs_Q>  (293) 
0

>  <s_epik_Chemistry_Notes>  (293) 
This compound has an ester and may undergo hydrolysis at high or low pH.

>  <s_lp_Force_Field>  (293) 
OPLS3e

>  <r_lp_Energy>  (293) 
169.077

>  <b_lp_Chiralities_Consistent>  (293) 
0

>  <s_lp_Variant>  (293) 
90:0-1

>  <s_i_glide_gridfile>  (293) 
pfpi4k_grid

>  <i_i_glide_lignum>  (293) 
3

>  <i_i_glide_rotatable_bonds>  (293) 
2

>  <r_i_docking_score>  (293) 
-3.16028

>  <r_i_glide_ligand_efficiency>  (293) 
-0.0752449

>  <r_i_glide_ligand_efficiency_sa>  (293) 
-0.261553

>  <r_i_glide_ligand_efficiency_ln>  (293) 
-0.667055

>  <r_i_glide_gscore>  (293) 
-3.16028

>  <r_i_glide_lipo>  (293) 
-0.105105

>  <r_i_glide_hbond>  (293) 
-0.189721

>  <r_i_glide_metal>  (293) 
-0

>  <r_i_glide_rewards>  (293) 
-0.00936067

>  <r_i_glide_evdw>  (293) 
-29.2851

>  <r_i_glide_ecoul>  (293) 
-8.83154

>  <r_i_glide_erotb>  (293) 
0

>  <r_i_glide_esite>  (293) 
-0.0671135

>  <r_i_glide_emodel>  (293) 
-45.7284

>  <r_i_glide_energy>  (293) 
-38.1166

>  <r_i_glide_einternal>  (293) 
1.38783

>  <r_i_glide_intrahb_reward>  (293) 
-0

>  <i_i_glide_confnum>  (293) 
1

>  <i_i_glide_posenum>  (293) 
12

>  <r_i_glide_eff_state_penalty>  (293) 
0

>  <ligand_id>  (293) 
90

>  <original_smiles>  (293) 
CC1OC2C3CCC1(C)C1(C4OC(=O)CCC(=O)C4C(C)(C)O3)C(O)C3(O)CCC(C)(C(=O)C34C=CC(=O)C4)C13OC23

>  <smiles>  (293) 
[H]OC1([H])C2(O[H])C([H])([H])C([H])([H])C(C([H])([H])[H])(C(=O)C23C([H])=C([H])C(=O)C3([H])[H])C23OC2([H])C2([H])OC([H])(C([H])([H])[H])C4(C([H])([H])[H])C([H])([H])C([H])([H])C2([H])OC(C([H])([H])[H])(C([H])([H])[H])C2([H])C(=O)C([H])([H])C([H])([H])C(=O)OC2([H])C134

$$$$
90:0:2
     RDKit          3D

 82 89  0  0  1  0  0  0  0  0999 V2000
    6.5333  -11.4718    4.7443 C   0  0  0  0  0  0  0  0  0  0  0  0
    7.2469  -10.1570    5.1024 C   0  0  2  0  0  0  0  0  0  0  0  0
    7.3752  -10.1670    6.5196 O   0  0  0  0  0  0  0  0  0  0  0  0
    6.6124   -9.2656    7.2991 C   0  0  1  0  0  0  0  0  0  0  0  0
    7.2415   -7.8430    7.3546 C   0  0  1  0  0  0  0  0  0  0  0  0
    8.3187   -7.6702    6.3122 C   0  0  0  0  0  0  0  0  0  0  0  0
    7.7731   -7.6669    4.9014 C   0  0  0  0  0  0  0  0  0  0  0  0
    6.7992   -8.8116    4.3955 C   0  0  1  0  0  0  0  0  0  0  0  0
    7.3821   -8.9386    2.9271 C   0  0  0  0  0  0  0  0  0  0  0  0
    5.1438   -8.4874    4.4342 C   0  0  1  0  0  0  0  0  0  0  0  0
    4.9490   -6.8792    4.3112 C   0  0  2  0  0  0  0  0  0  0  0  0
    5.6956   -6.3712    3.1950 O   0  0  0  0  0  0  0  0  0  0  0  0
    5.2370   -5.5104    2.2397 C   0  0  0  0  0  0  0  0  0  0  0  0
    5.8778   -5.2931    1.2140 O   0  0  0  0  0  0  0  0  0  0  0  0
    3.8962   -4.7820    2.4470 C   0  0  0  0  0  0  0  0  0  0  0  0
    3.4374   -4.4002    3.8747 C   0  0  0  0  0  0  0  0  0  0  0  0
    4.5200   -4.4293    4.9440 C   0  0  0  0  0  0  0  0  0  0  0  0
    5.0199   -3.3600    5.2828 O   0  0  0  0  0  0  0  0  0  0  0  0
    4.9366   -5.8113    5.5282 C   0  0  2  0  0  0  0  0  0  0  0  0
    6.0117   -5.6368    6.7294 C   0  0  0  0  0  0  0  0  0  0  0  0
    7.2633   -4.7436    6.4787 C   0  0  0  0  0  0  0  0  0  0  0  0
    5.2629   -4.9237    7.8923 C   0  0  0  0  0  0  0  0  0  0  0  0
    6.3337   -6.7596    7.5711 O   0  0  0  0  0  0  0  0  0  0  0  0
    4.4310   -9.1208    3.0887 C   0  0  1  0  0  0  0  0  0  0  0  0
    5.0911  -10.2541    2.5661 O   0  0  0  0  0  0  0  0  0  0  0  0
    2.9342   -9.6396    2.9494 C   0  0  1  0  0  0  0  0  0  0  0  0
    2.6847   -9.8488    1.5637 O   0  0  0  0  0  0  0  0  0  0  0  0
    2.7361  -11.0119    3.6586 C   0  0  0  0  0  0  0  0  0  0  0  0
    2.6392  -10.8399    5.1712 C   0  0  0  0  0  0  0  0  0  0  0  0
    2.8379   -9.3953    5.6967 C   0  0  2  0  0  0  0  0  0  0  0  0
    2.1467   -9.4221    7.1040 C   0  0  0  0  0  0  0  0  0  0  0  0
    2.0469   -8.3383    4.8838 C   0  0  0  0  0  0  0  0  0  0  0  0
    1.6540   -7.2822    5.3849 O   0  0  0  0  0  0  0  0  0  0  0  0
    1.8128   -8.6573    3.4119 C   0  0  2  0  0  0  0  0  0  0  0  0
    0.4107   -9.2526    3.3186 C   0  0  0  0  0  0  0  0  0  0  0  0
   -0.4227   -8.6026    2.4911 C   0  0  0  0  0  0  0  0  0  0  0  0
    0.2792   -7.4587    1.9561 C   0  0  0  0  0  0  0  0  0  0  0  0
   -0.1822   -6.6235    1.1653 O   0  0  0  0  0  0  0  0  0  0  0  0
    1.6854   -7.3769    2.5227 C   0  0  0  0  0  0  0  0  0  0  0  0
    4.3613   -9.0001    5.7555 C   0  0  2  0  0  0  0  0  0  0  0  0
    4.4860   -8.1685    6.8882 O   0  0  0  0  0  0  0  0  0  0  0  0
    5.1341   -9.4009    7.0204 C   0  0  2  0  0  0  0  0  0  0  0  0
    6.6786  -11.7548    3.7033 H   0  0  0  0  0  0  0  0  0  0  0  0
    5.4681  -11.4258    4.9435 H   0  0  0  0  0  0  0  0  0  0  0  0
    6.9337  -12.2981    5.3340 H   0  0  0  0  0  0  0  0  0  0  0  0
    8.2766  -10.3263    4.7937 H   0  0  0  0  0  0  0  0  0  0  0  0
    6.7202   -9.6420    8.3149 H   0  0  0  0  0  0  0  0  0  0  0  0
    7.8051   -7.8372    8.2861 H   0  0  0  0  0  0  0  0  0  0  0  0
    8.9058   -6.7736    6.4854 H   0  0  0  0  0  0  0  0  0  0  0  0
    9.0560   -8.4677    6.4156 H   0  0  0  0  0  0  0  0  0  0  0  0
    7.4210   -6.6887    4.6524 H   0  0  0  0  0  0  0  0  0  0  0  0
    8.7279   -7.6512    4.3826 H   0  0  0  0  0  0  0  0  0  0  0  0
    6.8922   -8.2943    2.1998 H   0  0  0  0  0  0  0  0  0  0  0  0
    7.3621   -9.9554    2.5465 H   0  0  0  0  0  0  0  0  0  0  0  0
    8.4474   -8.7462    2.8121 H   0  0  0  0  0  0  0  0  0  0  0  0
    3.9191   -6.8330    3.9633 H   0  0  0  0  0  0  0  0  0  0  0  0
    4.0309   -3.8361    1.9258 H   0  0  0  0  0  0  0  0  0  0  0  0
    3.1143   -5.2909    1.8955 H   0  0  0  0  0  0  0  0  0  0  0  0
    3.0001   -3.3998    3.8579 H   0  0  0  0  0  0  0  0  0  0  0  0
    2.6421   -5.0619    4.2120 H   0  0  0  0  0  0  0  0  0  0  0  0
    4.0318   -6.0899    6.0623 H   0  0  0  0  0  0  0  0  0  0  0  0
    7.0400   -3.6818    6.5725 H   0  0  0  0  0  0  0  0  0  0  0  0
    7.7128   -4.8610    5.4994 H   0  0  0  0  0  0  0  0  0  0  0  0
    8.0288   -4.9225    7.2345 H   0  0  0  0  0  0  0  0  0  0  0  0
    4.9295   -3.9120    7.6650 H   0  0  0  0  0  0  0  0  0  0  0  0
    5.8998   -4.8283    8.7762 H   0  0  0  0  0  0  0  0  0  0  0  0
    4.3822   -5.4872    8.2027 H   0  0  0  0  0  0  0  0  0  0  0  0
    4.5379   -8.3662    2.3099 H   0  0  0  0  0  0  0  0  0  0  0  0
    4.6374  -10.5560    1.7826 H   0  0  0  0  0  0  0  0  0  0  0  0
    3.0825  -10.6618    1.2634 H   0  0  0  0  0  0  0  0  0  0  0  0
    1.8210  -11.4866    3.2996 H   0  0  0  0  0  0  0  0  0  0  0  0
    3.4949  -11.7660    3.4264 H   0  0  0  0  0  0  0  0  0  0  0  0
    1.6540  -11.2063    5.4746 H   0  0  0  0  0  0  0  0  0  0  0  0
    3.3405  -11.5069    5.6691 H   0  0  0  0  0  0  0  0  0  0  0  0
    2.4935  -10.2507    7.7232 H   0  0  0  0  0  0  0  0  0  0  0  0
    1.0693   -9.5867    6.9959 H   0  0  0  0  0  0  0  0  0  0  0  0
    2.2419   -8.4995    7.6769 H   0  0  0  0  0  0  0  0  0  0  0  0
    0.0752  -10.1261    3.8553 H   0  0  0  0  0  0  0  0  0  0  0  0
   -1.4251   -8.8985    2.2513 H   0  0  0  0  0  0  0  0  0  0  0  0
    1.7654   -6.4448    3.0737 H   0  0  0  0  0  0  0  0  0  0  0  0
    2.4048   -7.3552    1.7068 H   0  0  0  0  0  0  0  0  0  0  0  0
    4.6548  -10.1303    7.6670 H   0  0  0  0  0  0  0  0  0  0  0  0
  1  2  1  0
  1 43  1  0
  1 44  1  0
  1 45  1  0
  2  8  1  0
  2  3  1  0
  2 46  1  6
  3  4  1  0
  4 42  1  0
  4  5  1  0
  4 47  1  1
  5 23  1  0
  5  6  1  0
  5 48  1  1
  6  7  1  0
  6 49  1  0
  6 50  1  0
  7  8  1  0
  7 51  1  0
  7 52  1  0
  8  9  1  6
 10  8  1  1
  9 53  1  0
  9 54  1  0
  9 55  1  0
 10 40  1  0
 10 11  1  0
 10 24  1  0
 11 19  1  0
 11 12  1  0
 11 56  1  6
 12 13  1  0
 13 14  2  0
 13 15  1  0
 15 16  1  0
 15 57  1  0
 15 58  1  0
 16 17  1  0
 16 59  1  0
 16 60  1  0
 17 18  2  0
 17 19  1  0
 19 20  1  0
 19 61  1  1
 20 21  1  0
 20 22  1  0
 20 23  1  0
 21 62  1  0
 21 63  1  0
 21 64  1  0
 22 65  1  0
 22 66  1  0
 22 67  1  0
 24 25  1  0
 24 26  1  0
 24 68  1  6
 25 69  1  0
 26 34  1  0
 26 27  1  6
 26 28  1  0
 27 70  1  0
 28 29  1  0
 28 71  1  0
 28 72  1  0
 29 30  1  0
 29 73  1  0
 29 74  1  0
 30 31  1  1
 30 32  1  0
 30 40  1  0
 31 75  1  0
 31 76  1  0
 31 77  1  0
 32 33  2  0
 32 34  1  0
 34 39  1  6
 34 35  1  0
 35 36  2  0
 35 78  1  0
 36 37  1  0
 36 79  1  0
 37 38  2  0
 37 39  1  0
 39 80  1  0
 39 81  1  0
 40 42  1  0
 40 41  1  1
 41 42  1  0
 42 82  1  1
M  END
>  <i_m_ct_stereo_status>  (294) 
1

>  <s_m_source_file>  (294) 
/var/tmp/pbs.5076255.sched01/tmpsouvlwkc/11751gt6aqu.sdf

>  <i_m_source_file_index>  (294) 
3

>  <i_lp_mmshare_version>  (294) 
48012

>  <i_f3d_flags>  (294) 
2

>  <s_epik_input>  (294) 
Tz1DMVtDSDJdW0NIMl1DKD1PKU9bQ0BASF0yW0NASF0xQyhbQ0gzXSkoW0NIM10pT1tDQEhdKFtDSDJdW0NIMl1bQ0BAXTMoW0NIM10pW0NAQEhdKE80KVtDSDNdKVtDQEhdNFtDQEBIXShPNSlDNShbQ0BAXTIzNilbQ0BdNyhbQ0gzXSlbQ0gyXVtDSDJdW0NAXShbT0hdKShbQ0BASF02W09IXSlbQ0BdOChDNz1PKVtDSF09W0NIXUMoPU8pW0NIMl04

>  <s_epik_cmdline>  (294) 
J2VwaWtfcHl0aG9uJywgJy1waHQnLCAnMi4wJywgJy1waCcsICc3LjAnLCAnLXRuJywgJzgnLCAnLW1hJywgJzIwMCcsICctaW1hZScsICc8aW5maWxlLm1hZT4nLCAnLW9tYWUnLCAnPG91dGZpbGUubWFlPic=

>  <r_lp_tautomer_probability>  (294) 
1

>  <r_epik_Ionization_Penalty>  (294) 
1.33208e-06

>  <r_epik_Ionization_Penalty_Charging>  (294) 
0

>  <r_epik_Ionization_Penalty_Neutral>  (294) 
1.33208e-06

>  <r_epik_State_Penalty>  (294) 
-0

>  <r_epik_Charging_Adjusted_Penalty>  (294) 
0

>  <i_epik_Tot_Q>  (294) 
0

>  <i_epik_Tot_abs_Q>  (294) 
0

>  <s_epik_Chemistry_Notes>  (294) 
This compound has an ester and may undergo hydrolysis at high or low pH.

>  <s_lp_Force_Field>  (294) 
OPLS3e

>  <r_lp_Energy>  (294) 
169.077

>  <b_lp_Chiralities_Consistent>  (294) 
0

>  <s_lp_Variant>  (294) 
90:0-1

>  <s_i_glide_gridfile>  (294) 
pfpi4k_grid

>  <i_i_glide_lignum>  (294) 
3

>  <i_i_glide_rotatable_bonds>  (294) 
2

>  <r_i_docking_score>  (294) 
-2.98755

>  <r_i_glide_ligand_efficiency>  (294) 
-0.0711321

>  <r_i_glide_ligand_efficiency_sa>  (294) 
-0.247257

>  <r_i_glide_ligand_efficiency_ln>  (294) 
-0.630594

>  <r_i_glide_gscore>  (294) 
-2.98755

>  <r_i_glide_lipo>  (294) 
-0.0658999

>  <r_i_glide_hbond>  (294) 
-0.213224

>  <r_i_glide_metal>  (294) 
-0

>  <r_i_glide_rewards>  (294) 
-0.0153906

>  <r_i_glide_evdw>  (294) 
-28.6103

>  <r_i_glide_ecoul>  (294) 
-7.91441

>  <r_i_glide_erotb>  (294) 
0

>  <r_i_glide_esite>  (294) 
-0.0753562

>  <r_i_glide_emodel>  (294) 
-44.2132

>  <r_i_glide_energy>  (294) 
-36.5247

>  <r_i_glide_einternal>  (294) 
0.563637

>  <r_i_glide_intrahb_reward>  (294) 
-0

>  <i_i_glide_confnum>  (294) 
2

>  <i_i_glide_posenum>  (294) 
27

>  <r_i_glide_eff_state_penalty>  (294) 
0

>  <ligand_id>  (294) 
90

>  <original_smiles>  (294) 
CC1OC2C3CCC1(C)C1(C4OC(=O)CCC(=O)C4C(C)(C)O3)C(O)C3(O)CCC(C)(C(=O)C34C=CC(=O)C4)C13OC23

>  <smiles>  (294) 
[H]OC1([H])C2(O[H])C([H])([H])C([H])([H])C(C([H])([H])[H])(C(=O)C23C([H])=C([H])C(=O)C3([H])[H])C23OC2([H])C2([H])OC([H])(C([H])([H])[H])C4(C([H])([H])[H])C([H])([H])C([H])([H])C2([H])OC(C([H])([H])[H])(C([H])([H])[H])C2([H])C(=O)C([H])([H])C([H])([H])C(=O)OC2([H])C134

$$$$
91:0:0
     RDKit          3D

 23 23  0  0  1  0  0  0  0  0999 V2000
    3.1906    0.5865   -5.4247 C   0  0  0  0  0  0  0  0  0  0  0  0
    3.5425   -0.4611   -4.3849 C   0  0  0  0  0  0  0  0  0  0  0  0
    4.2117   -1.4263   -4.7180 O   0  0  0  0  0  0  0  0  0  0  0  0
    3.1243   -0.2729   -3.1295 N   0  0  0  0  0  0  0  0  0  0  0  0
    3.5342   -1.0839   -1.9804 C   0  0  0  0  0  0  0  0  0  0  0  0
    3.2567   -2.5994   -2.1511 C   0  0  0  0  0  0  0  0  0  0  0  0
    3.8341   -3.4343   -1.0200 C   0  0  0  0  0  0  0  0  0  0  0  0
    3.0885   -4.0715   -0.2679 O   0  0  0  0  0  0  0  0  0  0  0  0
    5.3300   -3.4395   -0.8941 C   0  0  0  0  0  0  0  0  0  0  0  0
    6.2249   -2.8864   -1.7299 N   0  0  0  0  0  0  0  0  0  0  0  0
    7.5525   -3.0623   -1.3198 C   0  0  0  0  0  0  0  0  0  0  0  0
    7.6516   -3.7244   -0.1256 C   0  0  0  0  0  0  0  0  0  0  0  0
    6.0933   -4.2075    0.4893 S   0  0  0  0  0  0  0  0  0  0  0  0
    2.6205    1.4176   -5.0032 H   0  0  0  0  0  0  0  0  0  0  0  0
    2.6175    0.1091   -6.2221 H   0  0  0  0  0  0  0  0  0  0  0  0
    4.1134    0.9595   -5.8706 H   0  0  0  0  0  0  0  0  0  0  0  0
    2.5602    0.5588   -2.9445 H   0  0  0  0  0  0  0  0  0  0  0  0
    4.5807   -0.8579   -1.7795 H   0  0  0  0  0  0  0  0  0  0  0  0
    3.0154   -0.7182   -1.1004 H   0  0  0  0  0  0  0  0  0  0  0  0
    2.1861   -2.7825   -2.2654 H   0  0  0  0  0  0  0  0  0  0  0  0
    3.7488   -2.9856   -3.0410 H   0  0  0  0  0  0  0  0  0  0  0  0
    8.3643   -2.6692   -1.9202 H   0  0  0  0  0  0  0  0  0  0  0  0
    8.5411   -3.9962    0.4193 H   0  0  0  0  0  0  0  0  0  0  0  0
  1  2  1  0
  1 14  1  0
  1 15  1  0
  1 16  1  0
  2  3  2  0
  2  4  1  0
  4  5  1  0
  4 17  1  0
  5  6  1  0
  5 18  1  0
  5 19  1  0
  6  7  1  0
  6 20  1  0
  6 21  1  0
  7  8  2  0
  7  9  1  0
  9 13  1  0
  9 10  2  0
 10 11  1  0
 11 12  2  0
 11 22  1  0
 12 13  1  0
 12 23  1  0
M  END
>  <i_m_ct_stereo_status>  (295) 
1

>  <s_m_source_file>  (295) 
/var/tmp/pbs.5076255.sched01/tmpsouvlwkc/11751gt6aqu.sdf

>  <i_m_source_file_index>  (295) 
4

>  <i_lp_mmshare_version>  (295) 
48012

>  <i_f3d_flags>  (295) 
0

>  <s_epik_input>  (295) 
W0NIM11DKD1PKVtOSF1bQ0gyXVtDSDJdQyg9TyljMW5bY0hdW2NIXXMx

>  <s_epik_cmdline>  (295) 
J2VwaWtfcHl0aG9uJywgJy1waHQnLCAnMi4wJywgJy1waCcsICc3LjAnLCAnLXRuJywgJzgnLCAnLW1hJywgJzIwMCcsICctaW1hZScsICc8aW5maWxlLm1hZT4nLCAnLW9tYWUnLCAnPG91dGZpbGUubWFlPic=

>  <r_lp_tautomer_probability>  (295) 
1

>  <r_epik_Ionization_Penalty>  (295) 
1.45737e-07

>  <r_epik_Ionization_Penalty_Charging>  (295) 
0

>  <r_epik_Ionization_Penalty_Neutral>  (295) 
1.45737e-07

>  <r_epik_State_Penalty>  (295) 
-0

>  <r_epik_Charging_Adjusted_Penalty>  (295) 
0

>  <i_epik_Tot_Q>  (295) 
0

>  <i_epik_Tot_abs_Q>  (295) 
0

>  <s_lp_Force_Field>  (295) 
OPLS3e

>  <r_lp_Energy>  (295) 
-0.804853

>  <b_lp_Chiralities_Consistent>  (295) 
1

>  <s_lp_Variant>  (295) 
91:0-1

>  <s_i_glide_gridfile>  (295) 
pfpi4k_grid

>  <i_i_glide_lignum>  (295) 
4

>  <i_i_glide_rotatable_bonds>  (295) 
5

>  <r_i_docking_score>  (295) 
-4.69601

>  <r_i_glide_ligand_efficiency>  (295) 
-0.361231

>  <r_i_glide_ligand_efficiency_sa>  (295) 
-0.849376

>  <r_i_glide_ligand_efficiency_ln>  (295) 
-1.31727

>  <r_i_glide_gscore>  (295) 
-4.69601

>  <r_i_glide_lipo>  (295) 
-0.626704

>  <r_i_glide_hbond>  (295) 
-0.608

>  <r_i_glide_metal>  (295) 
-0

>  <r_i_glide_rewards>  (295) 
-2.47456

>  <r_i_glide_evdw>  (295) 
-21.4769

>  <r_i_glide_ecoul>  (295) 
-7.70688

>  <r_i_glide_erotb>  (295) 
1.24314

>  <r_i_glide_esite>  (295) 
0

>  <r_i_glide_emodel>  (295) 
-35.8091

>  <r_i_glide_energy>  (295) 
-29.1838

>  <r_i_glide_einternal>  (295) 
3.94237

>  <r_i_glide_intrahb_reward>  (295) 
-0

>  <i_i_glide_confnum>  (295) 
4

>  <i_i_glide_posenum>  (295) 
23

>  <r_i_glide_eff_state_penalty>  (295) 
0

>  <ligand_id>  (295) 
91

>  <original_smiles>  (295) 
CC(=O)NCCC(=O)c1nccs1

>  <smiles>  (295) 
[H]c1nc(C(=O)C([H])([H])C([H])([H])N([H])C(=O)C([H])([H])[H])sc1[H]

$$$$
91:0:1
     RDKit          3D

 23 23  0  0  1  0  0  0  0  0999 V2000
    3.1769    0.5950   -5.4141 C   0  0  0  0  0  0  0  0  0  0  0  0
    3.4944   -0.4689   -4.3847 C   0  0  0  0  0  0  0  0  0  0  0  0
    4.1711   -1.4235   -4.7167 O   0  0  0  0  0  0  0  0  0  0  0  0
    3.0276   -0.2801   -3.1467 N   0  0  0  0  0  0  0  0  0  0  0  0
    3.4325   -1.0612   -1.9817 C   0  0  0  0  0  0  0  0  0  0  0  0
    3.0409   -2.5604   -2.1280 C   0  0  0  0  0  0  0  0  0  0  0  0
    3.5937   -3.4457   -1.0107 C   0  0  0  0  0  0  0  0  0  0  0  0
    2.8115   -4.0807   -0.3037 O   0  0  0  0  0  0  0  0  0  0  0  0
    5.0820   -3.5021   -0.7907 C   0  0  0  0  0  0  0  0  0  0  0  0
    5.7169   -3.9762    0.2913 N   0  0  0  0  0  0  0  0  0  0  0  0
    7.1136   -3.8162    0.2328 C   0  0  0  0  0  0  0  0  0  0  0  0
    7.5100   -3.1492   -0.9060 C   0  0  0  0  0  0  0  0  0  0  0  0
    6.1935   -2.8871   -2.0020 S   0  0  0  0  0  0  0  0  0  0  0  0
    2.5957    1.4173   -4.9824 H   0  0  0  0  0  0  0  0  0  0  0  0
    2.6119    0.1464   -6.2290 H   0  0  0  0  0  0  0  0  0  0  0  0
    4.1070    0.9912   -5.8253 H   0  0  0  0  0  0  0  0  0  0  0  0
    2.4672    0.5573   -2.9732 H   0  0  0  0  0  0  0  0  0  0  0  0
    4.4920   -0.8862   -1.8667 H   0  0  0  0  0  0  0  0  0  0  0  0
    2.9739   -0.6637   -1.0789 H   0  0  0  0  0  0  0  0  0  0  0  0
    1.9537   -2.6588   -2.1577 H   0  0  0  0  0  0  0  0  0  0  0  0
    3.4056   -2.9910   -3.0611 H   0  0  0  0  0  0  0  0  0  0  0  0
    7.7062   -4.1992    1.0326 H   0  0  0  0  0  0  0  0  0  0  0  0
    8.5376   -2.8710   -1.1755 H   0  0  0  0  0  0  0  0  0  0  0  0
  1  2  1  0
  1 14  1  0
  1 15  1  0
  1 16  1  0
  2  3  2  0
  2  4  1  0
  4  5  1  0
  4 17  1  0
  5  6  1  0
  5 18  1  0
  5 19  1  0
  6  7  1  0
  6 20  1  0
  6 21  1  0
  7  8  2  0
  7  9  1  0
  9 13  1  0
  9 10  2  0
 10 11  1  0
 11 12  2  0
 11 22  1  0
 12 13  1  0
 12 23  1  0
M  END
>  <i_m_ct_stereo_status>  (296) 
1

>  <s_m_source_file>  (296) 
/var/tmp/pbs.5076255.sched01/tmpsouvlwkc/11751gt6aqu.sdf

>  <i_m_source_file_index>  (296) 
4

>  <i_lp_mmshare_version>  (296) 
48012

>  <i_f3d_flags>  (296) 
0

>  <s_epik_input>  (296) 
W0NIM11DKD1PKVtOSF1bQ0gyXVtDSDJdQyg9TyljMW5bY0hdW2NIXXMx

>  <s_epik_cmdline>  (296) 
J2VwaWtfcHl0aG9uJywgJy1waHQnLCAnMi4wJywgJy1waCcsICc3LjAnLCAnLXRuJywgJzgnLCAnLW1hJywgJzIwMCcsICctaW1hZScsICc8aW5maWxlLm1hZT4nLCAnLW9tYWUnLCAnPG91dGZpbGUubWFlPic=

>  <r_lp_tautomer_probability>  (296) 
1

>  <r_epik_Ionization_Penalty>  (296) 
1.45737e-07

>  <r_epik_Ionization_Penalty_Charging>  (296) 
0

>  <r_epik_Ionization_Penalty_Neutral>  (296) 
1.45737e-07

>  <r_epik_State_Penalty>  (296) 
-0

>  <r_epik_Charging_Adjusted_Penalty>  (296) 
0

>  <i_epik_Tot_Q>  (296) 
0

>  <i_epik_Tot_abs_Q>  (296) 
0

>  <s_lp_Force_Field>  (296) 
OPLS3e

>  <r_lp_Energy>  (296) 
-0.804853

>  <b_lp_Chiralities_Consistent>  (296) 
1

>  <s_lp_Variant>  (296) 
91:0-1

>  <s_i_glide_gridfile>  (296) 
pfpi4k_grid

>  <i_i_glide_lignum>  (296) 
4

>  <i_i_glide_rotatable_bonds>  (296) 
5

>  <r_i_docking_score>  (296) 
-4.68495

>  <r_i_glide_ligand_efficiency>  (296) 
-0.360381

>  <r_i_glide_ligand_efficiency_sa>  (296) 
-0.847376

>  <r_i_glide_ligand_efficiency_ln>  (296) 
-1.31417

>  <r_i_glide_gscore>  (296) 
-4.68495

>  <r_i_glide_lipo>  (296) 
-0.609723

>  <r_i_glide_hbond>  (296) 
-0.608

>  <r_i_glide_metal>  (296) 
-0

>  <r_i_glide_rewards>  (296) 
-2.50079

>  <r_i_glide_evdw>  (296) 
-21.1506

>  <r_i_glide_ecoul>  (296) 
-7.68032

>  <r_i_glide_erotb>  (296) 
1.24314

>  <r_i_glide_esite>  (296) 
0

>  <r_i_glide_emodel>  (296) 
-34.87

>  <r_i_glide_energy>  (296) 
-28.8309

>  <r_i_glide_einternal>  (296) 
4.48518

>  <r_i_glide_intrahb_reward>  (296) 
-0

>  <i_i_glide_confnum>  (296) 
4

>  <i_i_glide_posenum>  (296) 
39

>  <r_i_glide_eff_state_penalty>  (296) 
0

>  <ligand_id>  (296) 
91

>  <original_smiles>  (296) 
CC(=O)NCCC(=O)c1nccs1

>  <smiles>  (296) 
[H]c1nc(C(=O)C([H])([H])C([H])([H])N([H])C(=O)C([H])([H])[H])sc1[H]

$$$$
91:0:2
     RDKit          3D

 23 23  0  0  1  0  0  0  0  0999 V2000
   -1.1854   -1.7510    5.2538 C   0  0  0  0  0  0  0  0  0  0  0  0
   -1.4135   -0.2484    5.3619 C   0  0  0  0  0  0  0  0  0  0  0  0
   -2.0674    0.1693    6.3168 O   0  0  0  0  0  0  0  0  0  0  0  0
   -0.8775    0.5256    4.4020 N   0  0  0  0  0  0  0  0  0  0  0  0
   -0.9077    1.9856    4.2618 C   0  0  0  0  0  0  0  0  0  0  0  0
   -0.6737    2.7727    5.5676 C   0  0  0  0  0  0  0  0  0  0  0  0
   -1.9643    3.0283    6.3547 C   0  0  0  0  0  0  0  0  0  0  0  0
   -2.9873    3.3670    5.7568 O   0  0  0  0  0  0  0  0  0  0  0  0
   -1.9503    2.8330    7.8327 C   0  0  0  0  0  0  0  0  0  0  0  0
   -0.9727    2.2532    8.5437 N   0  0  0  0  0  0  0  0  0  0  0  0
   -1.2818    2.1953    9.9010 C   0  0  0  0  0  0  0  0  0  0  0  0
   -2.4884    2.7605   10.2220 C   0  0  0  0  0  0  0  0  0  0  0  0
   -3.3114    3.3551    8.8137 S   0  0  0  0  0  0  0  0  0  0  0  0
   -0.6323   -2.0458    4.3519 H   0  0  0  0  0  0  0  0  0  0  0  0
   -2.1587   -2.2399    5.2811 H   0  0  0  0  0  0  0  0  0  0  0  0
   -0.6367   -2.0863    6.1349 H   0  0  0  0  0  0  0  0  0  0  0  0
   -0.4097    0.0519    3.6419 H   0  0  0  0  0  0  0  0  0  0  0  0
   -0.1207    2.2628    3.5625 H   0  0  0  0  0  0  0  0  0  0  0  0
   -1.8299    2.2830    3.7662 H   0  0  0  0  0  0  0  0  0  0  0  0
    0.0324    2.2399    6.1895 H   0  0  0  0  0  0  0  0  0  0  0  0
   -0.2161    3.7378    5.3531 H   0  0  0  0  0  0  0  0  0  0  0  0
   -0.5817    1.7349   10.5725 H   0  0  0  0  0  0  0  0  0  0  0  0
   -2.9339    2.8453   11.2063 H   0  0  0  0  0  0  0  0  0  0  0  0
  1  2  1  0
  1 14  1  0
  1 15  1  0
  1 16  1  0
  2  3  2  0
  2  4  1  0
  4  5  1  0
  4 17  1  0
  5  6  1  0
  5 18  1  0
  5 19  1  0
  6  7  1  0
  6 20  1  0
  6 21  1  0
  7  8  2  0
  7  9  1  0
  9 13  1  0
  9 10  2  0
 10 11  1  0
 11 12  2  0
 11 22  1  0
 12 13  1  0
 12 23  1  0
M  END
>  <i_m_ct_stereo_status>  (297) 
1

>  <s_m_source_file>  (297) 
/var/tmp/pbs.5076255.sched01/tmpsouvlwkc/11751gt6aqu.sdf

>  <i_m_source_file_index>  (297) 
4

>  <i_lp_mmshare_version>  (297) 
48012

>  <i_f3d_flags>  (297) 
0

>  <s_epik_input>  (297) 
W0NIM11DKD1PKVtOSF1bQ0gyXVtDSDJdQyg9TyljMW5bY0hdW2NIXXMx

>  <s_epik_cmdline>  (297) 
J2VwaWtfcHl0aG9uJywgJy1waHQnLCAnMi4wJywgJy1waCcsICc3LjAnLCAnLXRuJywgJzgnLCAnLW1hJywgJzIwMCcsICctaW1hZScsICc8aW5maWxlLm1hZT4nLCAnLW9tYWUnLCAnPG91dGZpbGUubWFlPic=

>  <r_lp_tautomer_probability>  (297) 
1

>  <r_epik_Ionization_Penalty>  (297) 
1.45737e-07

>  <r_epik_Ionization_Penalty_Charging>  (297) 
0

>  <r_epik_Ionization_Penalty_Neutral>  (297) 
1.45737e-07

>  <r_epik_State_Penalty>  (297) 
-0

>  <r_epik_Charging_Adjusted_Penalty>  (297) 
0

>  <i_epik_Tot_Q>  (297) 
0

>  <i_epik_Tot_abs_Q>  (297) 
0

>  <s_lp_Force_Field>  (297) 
OPLS3e

>  <r_lp_Energy>  (297) 
-0.804853

>  <b_lp_Chiralities_Consistent>  (297) 
1

>  <s_lp_Variant>  (297) 
91:0-1

>  <s_i_glide_gridfile>  (297) 
pfpi4k_grid

>  <i_i_glide_lignum>  (297) 
4

>  <i_i_glide_rotatable_bonds>  (297) 
5

>  <r_i_docking_score>  (297) 
-3.11865

>  <r_i_glide_ligand_efficiency>  (297) 
-0.239896

>  <r_i_glide_ligand_efficiency_sa>  (297) 
-0.564076

>  <r_i_glide_ligand_efficiency_ln>  (297) 
-0.874809

>  <r_i_glide_gscore>  (297) 
-3.11865

>  <r_i_glide_lipo>  (297) 
-0.0359784

>  <r_i_glide_hbond>  (297) 
-0.16

>  <r_i_glide_metal>  (297) 
-0

>  <r_i_glide_rewards>  (297) 
-2.16221

>  <r_i_glide_evdw>  (297) 
-16.8844

>  <r_i_glide_ecoul>  (297) 
-7.27551

>  <r_i_glide_erotb>  (297) 
1.24314

>  <r_i_glide_esite>  (297) 
-0.0680488

>  <r_i_glide_emodel>  (297) 
-28.6325

>  <r_i_glide_energy>  (297) 
-24.1599

>  <r_i_glide_einternal>  (297) 
2.01962

>  <r_i_glide_intrahb_reward>  (297) 
-0

>  <i_i_glide_confnum>  (297) 
5

>  <i_i_glide_posenum>  (297) 
31

>  <r_i_glide_eff_state_penalty>  (297) 
0

>  <ligand_id>  (297) 
91

>  <original_smiles>  (297) 
CC(=O)NCCC(=O)c1nccs1

>  <smiles>  (297) 
[H]c1nc(C(=O)C([H])([H])C([H])([H])N([H])C(=O)C([H])([H])[H])sc1[H]

$$$$
92:0:0
     RDKit          3D

 23 25  0  0  1  0  0  0  0  0999 V2000
    3.6625   -0.0833   -4.3384 C   0  0  0  0  0  0  0  0  0  0  0  0
    3.5983   -1.1045   -3.2089 C   0  0  0  0  0  0  0  0  0  0  0  0
    2.6570   -2.0650   -3.1788 N   0  0  0  0  0  0  0  0  0  0  0  0
    2.7891   -2.8018   -2.0490 N   0  0  0  0  0  0  0  0  0  0  0  0
    2.1725   -3.8434   -1.3944 C   0  0  0  0  0  0  0  0  0  0  0  0
    2.9002   -4.1596   -0.2316 C   0  0  0  0  0  0  0  0  0  0  0  0
    2.4944   -5.2823    0.6178 C   0  0  0  0  0  0  0  0  0  0  0  0
    3.2382   -5.6537    1.7044 N   0  0  0  0  0  0  0  0  0  0  0  0
    2.5892   -6.6328    2.2426 N   0  0  0  0  0  0  0  0  0  0  0  0
    1.4876   -6.8206    1.4763 N   0  0  0  0  0  0  0  0  0  0  0  0
    0.5125   -7.8490    1.7746 C   0  0  0  0  0  0  0  0  0  0  0  0
    1.3626   -5.9583    0.4475 N   0  0  0  0  0  0  0  0  0  0  0  0
    4.0173   -3.2519   -0.0921 C   0  0  0  0  0  0  0  0  0  0  0  0
    3.8140   -2.4911   -1.2523 C   0  0  0  0  0  0  0  0  0  0  0  0
    4.7464   -1.1466   -1.8236 S   0  0  0  0  0  0  0  0  0  0  0  0
    2.8443   -0.2617   -5.0300 H   0  0  0  0  0  0  0  0  0  0  0  0
    4.5879   -0.1737   -4.9013 H   0  0  0  0  0  0  0  0  0  0  0  0
    3.5616    0.9421   -3.9810 H   0  0  0  0  0  0  0  0  0  0  0  0
    1.3083   -4.2905   -1.8501 H   0  0  0  0  0  0  0  0  0  0  0  0
   -0.2915   -7.8317    1.0377 H   0  0  0  0  0  0  0  0  0  0  0  0
    0.0900   -7.6864    2.7688 H   0  0  0  0  0  0  0  0  0  0  0  0
    0.9871   -8.8333    1.7543 H   0  0  0  0  0  0  0  0  0  0  0  0
    4.8364   -3.1001    0.6088 H   0  0  0  0  0  0  0  0  0  0  0  0
  1  2  1  0
  1 16  1  0
  1 17  1  0
  1 18  1  0
  2 15  1  0
  2  3  2  0
  3  4  1  0
  4 14  1  0
  4  5  1  0
  5  6  2  0
  5 19  1  0
  6  7  1  0
  6 13  1  0
  7 12  2  0
  7  8  1  0
  8  9  2  0
  9 10  1  0
 10 11  1  0
 10 12  1  0
 11 20  1  0
 11 21  1  0
 11 22  1  0
 13 14  2  0
 13 23  1  0
 14 15  1  0
M  END
>  <i_m_ct_stereo_status>  (298) 
1

>  <s_m_source_file>  (298) 
/var/tmp/pbs.5076255.sched01/tmpsouvlwkc/11751gt6aqu.sdf

>  <i_m_source_file_index>  (298) 
5

>  <i_lp_mmshare_version>  (298) 
48012

>  <i_f3d_flags>  (298) 
0

>  <s_epik_input>  (298) 
W0NIM11jKG4xKXNjKG4xMilbY0hdYyhbY0hdMiktYzNubm4objMpW0NIM10=

>  <s_epik_cmdline>  (298) 
J2VwaWtfcHl0aG9uJywgJy1waHQnLCAnMi4wJywgJy1waCcsICc3LjAnLCAnLXRuJywgJzgnLCAnLW1hJywgJzIwMCcsICctaW1hZScsICc8aW5maWxlLm1hZT4nLCAnLW9tYWUnLCAnPG91dGZpbGUubWFlPic=

>  <r_lp_tautomer_probability>  (298) 
1

>  <r_epik_Ionization_Penalty>  (298) 
1.83996e-06

>  <r_epik_Ionization_Penalty_Charging>  (298) 
0

>  <r_epik_Ionization_Penalty_Neutral>  (298) 
1.83996e-06

>  <r_epik_State_Penalty>  (298) 
-0

>  <r_epik_Charging_Adjusted_Penalty>  (298) 
0

>  <i_epik_Tot_Q>  (298) 
0

>  <i_epik_Tot_abs_Q>  (298) 
0

>  <s_lp_Force_Field>  (298) 
OPLS3e

>  <r_lp_Energy>  (298) 
2.13772

>  <b_lp_Chiralities_Consistent>  (298) 
1

>  <s_lp_Variant>  (298) 
92:0-1

>  <s_i_glide_gridfile>  (298) 
pfpi4k_grid

>  <i_i_glide_lignum>  (298) 
5

>  <i_i_glide_rotatable_bonds>  (298) 
1

>  <r_i_docking_score>  (298) 
-3.70403

>  <r_i_glide_ligand_efficiency>  (298) 
-0.246936

>  <r_i_glide_ligand_efficiency_sa>  (298) 
-0.608996

>  <r_i_glide_ligand_efficiency_ln>  (298) 
-0.998917

>  <r_i_glide_gscore>  (298) 
-3.70403

>  <r_i_glide_lipo>  (298) 
-0.337704

>  <r_i_glide_hbond>  (298) 
-0.16

>  <r_i_glide_metal>  (298) 
-0

>  <r_i_glide_rewards>  (298) 
-1.90735

>  <r_i_glide_evdw>  (298) 
-22.2729

>  <r_i_glide_ecoul>  (298) 
-2.70758

>  <r_i_glide_erotb>  (298) 
0.347331

>  <r_i_glide_esite>  (298) 
-0.12653

>  <r_i_glide_emodel>  (298) 
-31.291

>  <r_i_glide_energy>  (298) 
-24.9805

>  <r_i_glide_einternal>  (298) 
0.0268796

>  <r_i_glide_intrahb_reward>  (298) 
-0

>  <i_i_glide_confnum>  (298) 
1

>  <i_i_glide_posenum>  (298) 
29

>  <r_i_glide_eff_state_penalty>  (298) 
0

>  <ligand_id>  (298) 
92

>  <original_smiles>  (298) 
Cc1nn2cc(-c3nnn(C)n3)cc2s1

>  <smiles>  (298) 
[H]c1c(-c2nnn(C([H])([H])[H])n2)c([H])n2nc(C([H])([H])[H])sc12

$$$$
92:0:1
     RDKit          3D

 23 25  0  0  1  0  0  0  0  0999 V2000
    3.7674   -0.0481   -4.1809 C   0  0  0  0  0  0  0  0  0  0  0  0
    3.7145   -1.1123   -3.0940 C   0  0  0  0  0  0  0  0  0  0  0  0
    2.7091   -1.9964   -3.0245 N   0  0  0  0  0  0  0  0  0  0  0  0
    2.8693   -2.7933   -1.9370 N   0  0  0  0  0  0  0  0  0  0  0  0
    2.2253   -3.8117   -1.2618 C   0  0  0  0  0  0  0  0  0  0  0  0
    3.0257   -4.2306   -0.1944 C   0  0  0  0  0  0  0  0  0  0  0  0
    2.6338   -5.3609    0.6652 C   0  0  0  0  0  0  0  0  0  0  0  0
    1.4003   -5.9412    0.6164 N   0  0  0  0  0  0  0  0  0  0  0  0
    1.4187   -6.8381    1.5503 N   0  0  0  0  0  0  0  0  0  0  0  0
    2.6596   -6.7884    2.0982 N   0  0  0  0  0  0  0  0  0  0  0  0
    3.0949   -7.6593    3.1732 C   0  0  0  0  0  0  0  0  0  0  0  0
    3.4626   -5.8455    1.5647 N   0  0  0  0  0  0  0  0  0  0  0  0
    4.2174   -3.4321   -0.1234 C   0  0  0  0  0  0  0  0  0  0  0  0
    3.9890   -2.5978   -1.2229 C   0  0  0  0  0  0  0  0  0  0  0  0
    4.9687   -1.3035   -1.8193 S   0  0  0  0  0  0  0  0  0  0  0  0
    2.8721   -0.1136   -4.8036 H   0  0  0  0  0  0  0  0  0  0  0  0
    4.6106   -0.1963   -4.8477 H   0  0  0  0  0  0  0  0  0  0  0  0
    3.8138    0.9667   -3.7739 H   0  0  0  0  0  0  0  0  0  0  0  0
    1.2815   -4.1599   -1.6585 H   0  0  0  0  0  0  0  0  0  0  0  0
    4.1239   -7.4303    3.4550 H   0  0  0  0  0  0  0  0  0  0  0  0
    3.0451   -8.7004    2.8537 H   0  0  0  0  0  0  0  0  0  0  0  0
    2.4557   -7.5249    4.0456 H   0  0  0  0  0  0  0  0  0  0  0  0
    5.1059   -3.3903    0.5085 H   0  0  0  0  0  0  0  0  0  0  0  0
  1  2  1  0
  1 16  1  0
  1 17  1  0
  1 18  1  0
  2 15  1  0
  2  3  2  0
  3  4  1  0
  4 14  1  0
  4  5  1  0
  5  6  2  0
  5 19  1  0
  6  7  1  0
  6 13  1  0
  7 12  2  0
  7  8  1  0
  8  9  2  0
  9 10  1  0
 10 11  1  0
 10 12  1  0
 11 20  1  0
 11 21  1  0
 11 22  1  0
 13 14  2  0
 13 23  1  0
 14 15  1  0
M  END
>  <i_m_ct_stereo_status>  (299) 
1

>  <s_m_source_file>  (299) 
/var/tmp/pbs.5076255.sched01/tmpsouvlwkc/11751gt6aqu.sdf

>  <i_m_source_file_index>  (299) 
5

>  <i_lp_mmshare_version>  (299) 
48012

>  <i_f3d_flags>  (299) 
0

>  <s_epik_input>  (299) 
W0NIM11jKG4xKXNjKG4xMilbY0hdYyhbY0hdMiktYzNubm4objMpW0NIM10=

>  <s_epik_cmdline>  (299) 
J2VwaWtfcHl0aG9uJywgJy1waHQnLCAnMi4wJywgJy1waCcsICc3LjAnLCAnLXRuJywgJzgnLCAnLW1hJywgJzIwMCcsICctaW1hZScsICc8aW5maWxlLm1hZT4nLCAnLW9tYWUnLCAnPG91dGZpbGUubWFlPic=

>  <r_lp_tautomer_probability>  (299) 
1

>  <r_epik_Ionization_Penalty>  (299) 
1.83996e-06

>  <r_epik_Ionization_Penalty_Charging>  (299) 
0

>  <r_epik_Ionization_Penalty_Neutral>  (299) 
1.83996e-06

>  <r_epik_State_Penalty>  (299) 
-0

>  <r_epik_Charging_Adjusted_Penalty>  (299) 
0

>  <i_epik_Tot_Q>  (299) 
0

>  <i_epik_Tot_abs_Q>  (299) 
0

>  <s_lp_Force_Field>  (299) 
OPLS3e

>  <r_lp_Energy>  (299) 
2.13772

>  <b_lp_Chiralities_Consistent>  (299) 
1

>  <s_lp_Variant>  (299) 
92:0-1

>  <s_i_glide_gridfile>  (299) 
pfpi4k_grid

>  <i_i_glide_lignum>  (299) 
5

>  <i_i_glide_rotatable_bonds>  (299) 
1

>  <r_i_docking_score>  (299) 
-3.44482

>  <r_i_glide_ligand_efficiency>  (299) 
-0.229655

>  <r_i_glide_ligand_efficiency_sa>  (299) 
-0.566377

>  <r_i_glide_ligand_efficiency_ln>  (299) 
-0.929011

>  <r_i_glide_gscore>  (299) 
-3.44482

>  <r_i_glide_lipo>  (299) 
-0.281253

>  <r_i_glide_hbond>  (299) 
0

>  <r_i_glide_metal>  (299) 
-0

>  <r_i_glide_rewards>  (299) 
-1.90735

>  <r_i_glide_evdw>  (299) 
-21.7782

>  <r_i_glide_ecoul>  (299) 
-1.96531

>  <r_i_glide_erotb>  (299) 
0.347331

>  <r_i_glide_esite>  (299) 
-0.21984

>  <r_i_glide_emodel>  (299) 
-29.5742

>  <r_i_glide_energy>  (299) 
-23.7435

>  <r_i_glide_einternal>  (299) 
0.0901301

>  <r_i_glide_intrahb_reward>  (299) 
-0

>  <i_i_glide_confnum>  (299) 
3

>  <i_i_glide_posenum>  (299) 
31

>  <r_i_glide_eff_state_penalty>  (299) 
0

>  <ligand_id>  (299) 
92

>  <original_smiles>  (299) 
Cc1nn2cc(-c3nnn(C)n3)cc2s1

>  <smiles>  (299) 
[H]c1c(-c2nnn(C([H])([H])[H])n2)c([H])n2nc(C([H])([H])[H])sc12

$$$$
92:0:2
     RDKit          3D

 23 25  0  0  1  0  0  0  0  0999 V2000
    3.2853   -0.0923   -3.8568 C   0  0  0  0  0  0  0  0  0  0  0  0
    3.9117   -1.1889   -3.0044 C   0  0  0  0  0  0  0  0  0  0  0  0
    5.0066   -0.9461   -2.2569 N   0  0  0  0  0  0  0  0  0  0  0  0
    5.3780   -2.0702   -1.6008 N   0  0  0  0  0  0  0  0  0  0  0  0
    6.3513   -2.5129   -0.7150 C   0  0  0  0  0  0  0  0  0  0  0  0
    6.1181   -3.8632   -0.4137 C   0  0  0  0  0  0  0  0  0  0  0  0
    6.9862   -4.6170    0.5011 C   0  0  0  0  0  0  0  0  0  0  0  0
    8.2440   -4.2229    0.8463 N   0  0  0  0  0  0  0  0  0  0  0  0
    8.6877   -5.1697    1.6292 N   0  0  0  0  0  0  0  0  0  0  0  0
    7.6855   -6.0779    1.7083 N   0  0  0  0  0  0  0  0  0  0  0  0
    7.7832   -7.2868    2.5185 C   0  0  0  0  0  0  0  0  0  0  0  0
    6.5901   -5.7780    0.9994 N   0  0  0  0  0  0  0  0  0  0  0  0
    4.9596   -4.3271   -1.1252 C   0  0  0  0  0  0  0  0  0  0  0  0
    4.6176   -3.1538   -1.8029 C   0  0  0  0  0  0  0  0  0  0  0  0
    3.2983   -2.8738   -2.9020 S   0  0  0  0  0  0  0  0  0  0  0  0
    3.8523    0.8294   -3.7380 H   0  0  0  0  0  0  0  0  0  0  0  0
    2.2657    0.1297   -3.5426 H   0  0  0  0  0  0  0  0  0  0  0  0
    3.2855   -0.3429   -4.9188 H   0  0  0  0  0  0  0  0  0  0  0  0
    7.1078   -1.8368   -0.3696 H   0  0  0  0  0  0  0  0  0  0  0  0
    6.8643   -7.8712    2.4339 H   0  0  0  0  0  0  0  0  0  0  0  0
    7.9350   -7.0230    3.5633 H   0  0  0  0  0  0  0  0  0  0  0  0
    8.6190   -7.8922    2.1771 H   0  0  0  0  0  0  0  0  0  0  0  0
    4.4277   -5.2735   -1.1966 H   0  0  0  0  0  0  0  0  0  0  0  0
  1  2  1  0
  1 16  1  0
  1 17  1  0
  1 18  1  0
  2 15  1  0
  2  3  2  0
  3  4  1  0
  4 14  1  0
  4  5  1  0
  5  6  2  0
  5 19  1  0
  6  7  1  0
  6 13  1  0
  7 12  2  0
  7  8  1  0
  8  9  2  0
  9 10  1  0
 10 11  1  0
 10 12  1  0
 11 20  1  0
 11 21  1  0
 11 22  1  0
 13 14  2  0
 13 23  1  0
 14 15  1  0
M  END
>  <i_m_ct_stereo_status>  (300) 
1

>  <s_m_source_file>  (300) 
/var/tmp/pbs.5076255.sched01/tmpsouvlwkc/11751gt6aqu.sdf

>  <i_m_source_file_index>  (300) 
5

>  <i_lp_mmshare_version>  (300) 
48012

>  <i_f3d_flags>  (300) 
0

>  <s_epik_input>  (300) 
W0NIM11jKG4xKXNjKG4xMilbY0hdYyhbY0hdMiktYzNubm4objMpW0NIM10=

>  <s_epik_cmdline>  (300) 
J2VwaWtfcHl0aG9uJywgJy1waHQnLCAnMi4wJywgJy1waCcsICc3LjAnLCAnLXRuJywgJzgnLCAnLW1hJywgJzIwMCcsICctaW1hZScsICc8aW5maWxlLm1hZT4nLCAnLW9tYWUnLCAnPG91dGZpbGUubWFlPic=

>  <r_lp_tautomer_probability>  (300) 
1

>  <r_epik_Ionization_Penalty>  (300) 
1.83996e-06

>  <r_epik_Ionization_Penalty_Charging>  (300) 
0

>  <r_epik_Ionization_Penalty_Neutral>  (300) 
1.83996e-06

>  <r_epik_State_Penalty>  (300) 
-0

>  <r_epik_Charging_Adjusted_Penalty>  (300) 
0

>  <i_epik_Tot_Q>  (300) 
0

>  <i_epik_Tot_abs_Q>  (300) 
0

>  <s_lp_Force_Field>  (300) 
OPLS3e

>  <r_lp_Energy>  (300) 
2.13772

>  <b_lp_Chiralities_Consistent>  (300) 
1

>  <s_lp_Variant>  (300) 
92:0-1

>  <s_i_glide_gridfile>  (300) 
pfpi4k_grid

>  <i_i_glide_lignum>  (300) 
5

>  <i_i_glide_rotatable_bonds>  (300) 
1

>  <r_i_docking_score>  (300) 
-3.39677

>  <r_i_glide_ligand_efficiency>  (300) 
-0.226451

>  <r_i_glide_ligand_efficiency_sa>  (300) 
-0.558476

>  <r_i_glide_ligand_efficiency_ln>  (300) 
-0.916052

>  <r_i_glide_gscore>  (300) 
-3.39677

>  <r_i_glide_lipo>  (300) 
-0.234661

>  <r_i_glide_hbond>  (300) 
0

>  <r_i_glide_metal>  (300) 
-0

>  <r_i_glide_rewards>  (300) 
-2.08037

>  <r_i_glide_evdw>  (300) 
-24.5341

>  <r_i_glide_ecoul>  (300) 
-0.989339

>  <r_i_glide_erotb>  (300) 
0.347331

>  <r_i_glide_esite>  (300) 
-0.0539575

>  <r_i_glide_emodel>  (300) 
-31.1555

>  <r_i_glide_energy>  (300) 
-25.5234

>  <r_i_glide_einternal>  (300) 
0.287028

>  <r_i_glide_intrahb_reward>  (300) 
-0

>  <i_i_glide_confnum>  (300) 
2

>  <i_i_glide_posenum>  (300) 
33

>  <r_i_glide_eff_state_penalty>  (300) 
0

>  <ligand_id>  (300) 
92

>  <original_smiles>  (300) 
Cc1nn2cc(-c3nnn(C)n3)cc2s1

>  <smiles>  (300) 
[H]c1c(-c2nnn(C([H])([H])[H])n2)c([H])n2nc(C([H])([H])[H])sc12

$$$$
93:0:0
     RDKit          3D

 61 64  0  0  1  0  0  0  0  0999 V2000
    4.7797   -0.2954    5.1548 C   0  0  0  0  0  0  0  0  0  0  0  0
    3.9678   -0.7519    4.0784 O   0  0  0  0  0  0  0  0  0  0  0  0
    4.3467   -2.0117    3.5202 C   0  0  2  0  0  0  0  0  0  0  0  0
    5.5559   -1.8412    2.5923 C   0  0  0  0  0  0  0  0  0  0  0  0
    6.0070   -3.2119    2.0714 C   0  0  0  0  0  0  0  0  0  0  0  0
    4.9378   -4.0205    1.2951 C   0  0  2  0  0  0  0  0  0  0  0  0
    5.5452   -5.4389    1.1297 C   0  0  0  0  0  0  0  0  0  0  0  0
    4.6403   -3.5403   -0.1279 C   0  0  0  0  0  0  0  0  0  0  0  0
    3.4209   -3.8041   -0.7262 C   0  0  0  0  0  0  0  0  0  0  0  0
    2.2291   -4.4070    0.0251 C   0  0  1  0  0  0  0  0  0  0  0  0
    1.5450   -5.4220   -0.6881 O   0  0  0  0  0  0  0  0  0  0  0  0
    2.5588   -4.8900    1.4560 C   0  0  0  0  0  0  0  0  0  0  0  0
    3.6404   -4.0467    2.1714 C   0  0  2  0  0  0  0  0  0  0  0  0
    3.1580   -2.6507    2.7466 C   0  0  0  0  0  0  0  0  0  0  0  0
    2.0127   -2.8821    3.7599 C   0  0  0  0  0  0  0  0  0  0  0  0
    2.6636   -1.6409    1.6795 C   0  0  0  0  0  0  0  0  0  0  0  0
    3.1367   -3.4047   -2.1777 C   0  0  1  0  0  0  0  0  0  0  0  0
    2.2359   -2.1996   -2.2922 C   0  0  0  0  0  0  0  0  0  0  0  0
    2.5347   -1.5131   -3.6081 C   0  0  0  0  0  0  0  0  0  0  0  0
    3.7179   -2.2284   -4.1567 C   0  0  1  0  0  0  0  0  0  0  0  0
    4.5023   -1.2339   -4.7510 O   0  0  0  0  0  0  0  0  0  0  0  0
    4.3500   -3.0003   -2.9995 C   0  0  2  0  0  0  0  0  0  0  0  0
    5.0705   -4.2208   -3.5335 C   0  0  0  0  0  0  0  0  0  0  0  0
    5.2781   -2.1294   -2.1351 C   0  0  0  0  0  0  0  0  0  0  0  0
    5.7611   -2.8347   -0.8792 C   0  0  0  0  0  0  0  0  0  0  0  0
    4.3771    0.6440    5.5352 H   0  0  0  0  0  0  0  0  0  0  0  0
    5.8058   -0.1041    4.8490 H   0  0  0  0  0  0  0  0  0  0  0  0
    4.7889   -1.0064    5.9827 H   0  0  0  0  0  0  0  0  0  0  0  0
    4.6100   -2.6819    4.3467 H   0  0  0  0  0  0  0  0  0  0  0  0
    5.3577   -1.1500    1.7760 H   0  0  0  0  0  0  0  0  0  0  0  0
    6.3620   -1.3790    3.1452 H   0  0  0  0  0  0  0  0  0  0  0  0
    6.9511   -3.1321    1.5225 H   0  0  0  0  0  0  0  0  0  0  0  0
    6.2125   -3.8308    2.9479 H   0  0  0  0  0  0  0  0  0  0  0  0
    5.6595   -5.9476    2.0843 H   0  0  0  0  0  0  0  0  0  0  0  0
    6.5318   -5.3987    0.6659 H   0  0  0  0  0  0  0  0  0  0  0  0
    4.9348   -6.0775    0.4895 H   0  0  0  0  0  0  0  0  0  0  0  0
    1.5501   -3.6002    0.0286 H   0  0  0  0  0  0  0  0  0  0  0  0
    2.1184   -5.6162   -1.4358 H   0  0  0  0  0  0  0  0  0  0  0  0
    1.6535   -4.9564    2.0468 H   0  0  0  0  0  0  0  0  0  0  0  0
    2.9207   -5.9238    1.4277 H   0  0  0  0  0  0  0  0  0  0  0  0
    3.9098   -4.6227    3.0600 H   0  0  0  0  0  0  0  0  0  0  0  0
    1.0987   -3.2242    3.2726 H   0  0  0  0  0  0  0  0  0  0  0  0
    1.7518   -1.9617    4.2855 H   0  0  0  0  0  0  0  0  0  0  0  0
    2.2884   -3.6185    4.5130 H   0  0  0  0  0  0  0  0  0  0  0  0
    1.7482   -1.9630    1.1988 H   0  0  0  0  0  0  0  0  0  0  0  0
    3.3919   -1.4422    0.8986 H   0  0  0  0  0  0  0  0  0  0  0  0
    2.4207   -0.6729    2.1221 H   0  0  0  0  0  0  0  0  0  0  0  0
    2.6081   -4.2102   -2.6820 H   0  0  0  0  0  0  0  0  0  0  0  0
    1.2083   -2.5501   -2.2695 H   0  0  0  0  0  0  0  0  0  0  0  0
    2.6027   -1.5382   -1.4699 H   0  0  0  0  0  0  0  0  0  0  0  0
    1.7568   -1.6240   -4.3545 H   0  0  0  0  0  0  0  0  0  0  0  0
    2.6982   -0.4471   -3.4507 H   0  0  0  0  0  0  0  0  0  0  0  0
    3.3270   -2.9561   -4.8701 H   0  0  0  0  0  0  0  0  0  0  0  0
    4.5297   -0.4841   -4.1859 H   0  0  0  0  0  0  0  0  0  0  0  0
    5.9378   -3.8659   -4.0896 H   0  0  0  0  0  0  0  0  0  0  0  0
    4.4436   -4.8299   -4.1900 H   0  0  0  0  0  0  0  0  0  0  0  0
    5.3832   -4.8560   -2.7038 H   0  0  0  0  0  0  0  0  0  0  0  0
    6.1656   -1.8679   -2.6955 H   0  0  0  0  0  0  0  0  0  0  0  0
    4.7909   -1.1938   -1.8621 H   0  0  0  0  0  0  0  0  0  0  0  0
    6.2510   -2.0764   -0.2618 H   0  0  0  0  0  0  0  0  0  0  0  0
    6.5253   -3.5720   -1.1341 H   0  0  0  0  0  0  0  0  0  0  0  0
  1  2  1  0
  1 26  1  0
  1 27  1  0
  1 28  1  0
  2  3  1  0
  3 14  1  0
  3  4  1  0
  3 29  1  1
  4  5  1  0
  4 30  1  0
  4 31  1  0
  5  6  1  0
  5 32  1  0
  5 33  1  0
  6 13  1  0
  6  7  1  6
  6  8  1  0
  7 34  1  0
  7 35  1  0
  7 36  1  0
  8 25  1  0
  8  9  2  0
  9 10  1  0
  9 17  1  0
 10 11  1  0
 10 12  1  0
 10 37  1  1
 11 38  1  0
 12 13  1  0
 12 39  1  0
 12 40  1  0
 13 14  1  0
 13 41  1  1
 14 15  1  0
 14 16  1  0
 15 42  1  0
 15 43  1  0
 15 44  1  0
 16 45  1  0
 16 46  1  0
 16 47  1  0
 17 22  1  0
 17 18  1  0
 17 48  1  6
 18 19  1  0
 18 49  1  0
 18 50  1  0
 19 20  1  0
 19 51  1  0
 19 52  1  0
 20 21  1  0
 20 22  1  0
 20 53  1  6
 21 54  1  0
 22 23  1  6
 22 24  1  0
 23 55  1  0
 23 56  1  0
 23 57  1  0
 24 25  1  0
 24 58  1  0
 24 59  1  0
 25 60  1  0
 25 61  1  0
M  END
>  <i_m_ct_stereo_status>  (301) 
1

>  <s_m_source_file>  (301) 
/var/tmp/pbs.5076255.sched01/tmpsouvlwkc/11751gt6aqu.sdf

>  <i_m_source_file_index>  (301) 
6

>  <i_lp_mmshare_version>  (301) 
48012

>  <i_f3d_flags>  (301) 
0

>  <s_epik_input>  (301) 
W0NIM11PW0NASF0oW0NIMl1bQ0gyXTEpQyhbQ0gzXSkoW0NIM10pW0NASF0yW0NIMl1bQ0BIXShbT0hdKUMoPUMzW0NAQF0xMltDSDNdKVtDQEBIXTRbQ0BdKFtDSDNdKShbQ0gyXVtDSDJdMylbQ0BIXShbT0hdKVtDSDJdW0NIMl00

>  <s_epik_cmdline>  (301) 
J2VwaWtfcHl0aG9uJywgJy1waHQnLCAnMi4wJywgJy1waCcsICc3LjAnLCAnLXRuJywgJzgnLCAnLW1hJywgJzIwMCcsICctaW1hZScsICc8aW5maWxlLm1hZT4nLCAnLW9tYWUnLCAnPG91dGZpbGUubWFlPic=

>  <r_lp_tautomer_probability>  (301) 
1

>  <r_epik_Ionization_Penalty>  (301) 
3.01239e-06

>  <r_epik_Ionization_Penalty_Charging>  (301) 
0

>  <r_epik_Ionization_Penalty_Neutral>  (301) 
3.01239e-06

>  <r_epik_State_Penalty>  (301) 
-0

>  <r_epik_Charging_Adjusted_Penalty>  (301) 
0

>  <i_epik_Tot_Q>  (301) 
0

>  <i_epik_Tot_abs_Q>  (301) 
0

>  <s_lp_Force_Field>  (301) 
OPLS3e

>  <r_lp_Energy>  (301) 
52.8751

>  <b_lp_Chiralities_Consistent>  (301) 
1

>  <s_lp_Variant>  (301) 
93:0-1

>  <s_i_glide_gridfile>  (301) 
pfpi4k_grid

>  <i_i_glide_lignum>  (301) 
6

>  <i_i_glide_rotatable_bonds>  (301) 
3

>  <r_i_docking_score>  (301) 
-3.94245

>  <r_i_glide_ligand_efficiency>  (301) 
-0.157698

>  <r_i_glide_ligand_efficiency_sa>  (301) 
-0.461112

>  <r_i_glide_ligand_efficiency_ln>  (301) 
-0.93448

>  <r_i_glide_gscore>  (301) 
-3.94245

>  <r_i_glide_lipo>  (301) 
-0.520776

>  <r_i_glide_hbond>  (301) 
-0.823604

>  <r_i_glide_metal>  (301) 
-0

>  <r_i_glide_rewards>  (301) 
-1.03282

>  <r_i_glide_evdw>  (301) 
6.56137

>  <r_i_glide_ecoul>  (301) 
-12.6221

>  <r_i_glide_erotb>  (301) 
0

>  <r_i_glide_esite>  (301) 
0

>  <r_i_glide_emodel>  (301) 
-9.05496

>  <r_i_glide_energy>  (301) 
-6.06076

>  <r_i_glide_einternal>  (301) 
1.48

>  <r_i_glide_intrahb_reward>  (301) 
-0

>  <i_i_glide_confnum>  (301) 
2

>  <i_i_glide_posenum>  (301) 
27

>  <r_i_glide_eff_state_penalty>  (301) 
0

>  <ligand_id>  (301) 
93

>  <original_smiles>  (301) 
COC1CCC2(C)C3=C(C(O)CC2C1(C)C)C1CCC(O)C1(C)CC3

>  <smiles>  (301) 
[H]OC1([H])C2=C(C([H])([H])C([H])([H])C3(C([H])([H])[H])C([H])(O[H])C([H])([H])C([H])([H])C23[H])C2(C([H])([H])[H])C([H])([H])C([H])([H])C([H])(OC([H])([H])[H])C(C([H])([H])[H])(C([H])([H])[H])C2([H])C1([H])[H]

$$$$
93:0:1
     RDKit          3D

 61 64  0  0  1  0  0  0  0  0999 V2000
    0.1161    2.2623    2.7127 C   0  0  0  0  0  0  0  0  0  0  0  0
    0.0023    1.5637    3.9516 O   0  0  0  0  0  0  0  0  0  0  0  0
    1.1108    0.7845    4.4325 C   0  0  2  0  0  0  0  0  0  0  0  0
    2.4777    1.3501    4.0119 C   0  0  0  0  0  0  0  0  0  0  0  0
    3.6318    0.5911    4.6558 C   0  0  0  0  0  0  0  0  0  0  0  0
    3.6194   -0.9438    4.4043 C   0  0  2  0  0  0  0  0  0  0  0  0
    4.7093   -1.4955    5.3482 C   0  0  0  0  0  0  0  0  0  0  0  0
    4.0155   -1.4122    2.9693 C   0  0  0  0  0  0  0  0  0  0  0  0
    3.6013   -2.5961    2.4802 C   0  0  0  0  0  0  0  0  0  0  0  0
    2.6371   -3.5326    3.2247 C   0  0  1  0  0  0  0  0  0  0  0  0
    3.1776   -4.8299    3.3701 O   0  0  0  0  0  0  0  0  0  0  0  0
    2.1913   -3.0350    4.6157 C   0  0  0  0  0  0  0  0  0  0  0  0
    2.2010   -1.5009    4.7722 C   0  0  2  0  0  0  0  0  0  0  0  0
    0.9646   -0.7377    4.1256 C   0  0  0  0  0  0  0  0  0  0  0  0
   -0.3423   -1.2447    4.7818 C   0  0  0  0  0  0  0  0  0  0  0  0
    0.8064   -0.9372    2.6039 C   0  0  0  0  0  0  0  0  0  0  0  0
    4.0584   -3.1354    1.1011 C   0  0  1  0  0  0  0  0  0  0  0  0
    2.9659   -3.0820    0.0224 C   0  0  0  0  0  0  0  0  0  0  0  0
    3.6944   -2.9575   -1.3245 C   0  0  0  0  0  0  0  0  0  0  0  0
    5.1916   -2.8469   -0.9858 C   0  0  1  0  0  0  0  0  0  0  0  0
    5.8833   -1.9886   -1.8943 O   0  0  0  0  0  0  0  0  0  0  0  0
    5.2734   -2.4050    0.4952 C   0  0  2  0  0  0  0  0  0  0  0  0
    6.5961   -2.8900    1.1161 C   0  0  0  0  0  0  0  0  0  0  0  0
    5.0916   -0.8859    0.7011 C   0  0  0  0  0  0  0  0  0  0  0  0
    4.9743   -0.5090    2.1875 C   0  0  0  0  0  0  0  0  0  0  0  0
   -0.8271    2.7715    2.5103 H   0  0  0  0  0  0  0  0  0  0  0  0
    0.3339    1.5820    1.8872 H   0  0  0  0  0  0  0  0  0  0  0  0
    0.8684    3.0593    2.7664 H   0  0  0  0  0  0  0  0  0  0  0  0
    1.0588    0.8794    5.5172 H   0  0  0  0  0  0  0  0  0  0  0  0
    2.6041    1.3217    2.9326 H   0  0  0  0  0  0  0  0  0  0  0  0
    2.5382    2.3914    4.3234 H   0  0  0  0  0  0  0  0  0  0  0  0
    4.5815    1.0449    4.3592 H   0  0  0  0  0  0  0  0  0  0  0  0
    3.5765    0.7588    5.7353 H   0  0  0  0  0  0  0  0  0  0  0  0
    4.4352   -1.3522    6.3920 H   0  0  0  0  0  0  0  0  0  0  0  0
    5.6567   -0.9831    5.1870 H   0  0  0  0  0  0  0  0  0  0  0  0
    4.8972   -2.5542    5.1911 H   0  0  0  0  0  0  0  0  0  0  0  0
    1.7636   -3.6710    2.6000 H   0  0  0  0  0  0  0  0  0  0  0  0
    3.9145   -4.7820    3.9439 H   0  0  0  0  0  0  0  0  0  0  0  0
    1.2247   -3.4608    4.8675 H   0  0  0  0  0  0  0  0  0  0  0  0
    2.8598   -3.4462    5.3700 H   0  0  0  0  0  0  0  0  0  0  0  0
    2.0960   -1.3323    5.8491 H   0  0  0  0  0  0  0  0  0  0  0  0
   -0.5803   -2.2664    4.4831 H   0  0  0  0  0  0  0  0  0  0  0  0
   -1.1915   -0.6336    4.4789 H   0  0  0  0  0  0  0  0  0  0  0  0
   -0.2888   -1.2152    5.8688 H   0  0  0  0  0  0  0  0  0  0  0  0
    0.6627   -1.9792    2.3328 H   0  0  0  0  0  0  0  0  0  0  0  0
    1.6497   -0.5483    2.0465 H   0  0  0  0  0  0  0  0  0  0  0  0
   -0.0612   -0.3895    2.2493 H   0  0  0  0  0  0  0  0  0  0  0  0
    4.3409   -4.1766    1.2309 H   0  0  0  0  0  0  0  0  0  0  0  0
    2.3203   -3.9570    0.0498 H   0  0  0  0  0  0  0  0  0  0  0  0
    2.3302   -2.2139    0.1785 H   0  0  0  0  0  0  0  0  0  0  0  0
    3.5149   -3.8288   -1.9544 H   0  0  0  0  0  0  0  0  0  0  0  0
    3.3315   -2.0875   -1.8699 H   0  0  0  0  0  0  0  0  0  0  0  0
    5.6206   -3.8453   -1.0781 H   0  0  0  0  0  0  0  0  0  0  0  0
    5.3238   -1.2693   -2.0531 H   0  0  0  0  0  0  0  0  0  0  0  0
    7.4431   -2.3399    0.7078 H   0  0  0  0  0  0  0  0  0  0  0  0
    6.7587   -3.9504    0.9292 H   0  0  0  0  0  0  0  0  0  0  0  0
    6.5888   -2.7532    2.1933 H   0  0  0  0  0  0  0  0  0  0  0  0
    5.9080   -0.3237    0.2479 H   0  0  0  0  0  0  0  0  0  0  0  0
    4.1839   -0.5483    0.1987 H   0  0  0  0  0  0  0  0  0  0  0  0
    4.6281    0.5157    2.2260 H   0  0  0  0  0  0  0  0  0  0  0  0
    5.9514   -0.5532    2.6668 H   0  0  0  0  0  0  0  0  0  0  0  0
  1  2  1  0
  1 26  1  0
  1 27  1  0
  1 28  1  0
  2  3  1  0
  3 14  1  0
  3  4  1  0
  3 29  1  1
  4  5  1  0
  4 30  1  0
  4 31  1  0
  5  6  1  0
  5 32  1  0
  5 33  1  0
  6 13  1  0
  6  7  1  1
  6  8  1  0
  7 34  1  0
  7 35  1  0
  7 36  1  0
  8 25  1  0
  8  9  2  0
  9 10  1  0
  9 17  1  0
 10 11  1  0
 10 12  1  0
 10 37  1  6
 11 38  1  0
 12 13  1  0
 12 39  1  0
 12 40  1  0
 13 14  1  0
 13 41  1  1
 14 15  1  0
 14 16  1  0
 15 42  1  0
 15 43  1  0
 15 44  1  0
 16 45  1  0
 16 46  1  0
 16 47  1  0
 17 22  1  0
 17 18  1  0
 17 48  1  1
 18 19  1  0
 18 49  1  0
 18 50  1  0
 19 20  1  0
 19 51  1  0
 19 52  1  0
 20 21  1  0
 20 22  1  0
 20 53  1  1
 21 54  1  0
 22 23  1  1
 22 24  1  0
 23 55  1  0
 23 56  1  0
 23 57  1  0
 24 25  1  0
 24 58  1  0
 24 59  1  0
 25 60  1  0
 25 61  1  0
M  END
>  <i_m_ct_stereo_status>  (302) 
1

>  <s_m_source_file>  (302) 
/var/tmp/pbs.5076255.sched01/tmpsouvlwkc/11751gt6aqu.sdf

>  <i_m_source_file_index>  (302) 
6

>  <i_lp_mmshare_version>  (302) 
48012

>  <i_f3d_flags>  (302) 
0

>  <s_epik_input>  (302) 
W0NIM11PW0NASF0oW0NIMl1bQ0gyXTEpQyhbQ0gzXSkoW0NIM10pW0NASF0yW0NIMl1bQ0BIXShbT0hdKUMoPUMzW0NAQF0xMltDSDNdKVtDQEBIXTRbQ0BdKFtDSDNdKShbQ0gyXVtDSDJdMylbQ0BIXShbT0hdKVtDSDJdW0NIMl00

>  <s_epik_cmdline>  (302) 
J2VwaWtfcHl0aG9uJywgJy1waHQnLCAnMi4wJywgJy1waCcsICc3LjAnLCAnLXRuJywgJzgnLCAnLW1hJywgJzIwMCcsICctaW1hZScsICc8aW5maWxlLm1hZT4nLCAnLW9tYWUnLCAnPG91dGZpbGUubWFlPic=

>  <r_lp_tautomer_probability>  (302) 
1

>  <r_epik_Ionization_Penalty>  (302) 
3.01239e-06

>  <r_epik_Ionization_Penalty_Charging>  (302) 
0

>  <r_epik_Ionization_Penalty_Neutral>  (302) 
3.01239e-06

>  <r_epik_State_Penalty>  (302) 
-0

>  <r_epik_Charging_Adjusted_Penalty>  (302) 
0

>  <i_epik_Tot_Q>  (302) 
0

>  <i_epik_Tot_abs_Q>  (302) 
0

>  <s_lp_Force_Field>  (302) 
OPLS3e

>  <r_lp_Energy>  (302) 
52.8751

>  <b_lp_Chiralities_Consistent>  (302) 
1

>  <s_lp_Variant>  (302) 
93:0-1

>  <s_i_glide_gridfile>  (302) 
pfpi4k_grid

>  <i_i_glide_lignum>  (302) 
6

>  <i_i_glide_rotatable_bonds>  (302) 
3

>  <r_i_docking_score>  (302) 
-2.74358

>  <r_i_glide_ligand_efficiency>  (302) 
-0.109743

>  <r_i_glide_ligand_efficiency_sa>  (302) 
-0.320891

>  <r_i_glide_ligand_efficiency_ln>  (302) 
-0.650311

>  <r_i_glide_gscore>  (302) 
-2.74358

>  <r_i_glide_lipo>  (302) 
-0.396719

>  <r_i_glide_hbond>  (302) 
-0.0331533

>  <r_i_glide_metal>  (302) 
-0

>  <r_i_glide_rewards>  (302) 
-1.03282

>  <r_i_glide_evdw>  (302) 
-17.7673

>  <r_i_glide_ecoul>  (302) 
-2.61683

>  <r_i_glide_erotb>  (302) 
0

>  <r_i_glide_esite>  (302) 
0

>  <r_i_glide_emodel>  (302) 
-21.0249

>  <r_i_glide_energy>  (302) 
-20.3841

>  <r_i_glide_einternal>  (302) 
5.1835

>  <r_i_glide_intrahb_reward>  (302) 
-0

>  <i_i_glide_confnum>  (302) 
2

>  <i_i_glide_posenum>  (302) 
11

>  <r_i_glide_eff_state_penalty>  (302) 
0

>  <ligand_id>  (302) 
93

>  <original_smiles>  (302) 
COC1CCC2(C)C3=C(C(O)CC2C1(C)C)C1CCC(O)C1(C)CC3

>  <smiles>  (302) 
[H]OC1([H])C2=C(C([H])([H])C([H])([H])C3(C([H])([H])[H])C([H])(O[H])C([H])([H])C([H])([H])C23[H])C2(C([H])([H])[H])C([H])([H])C([H])([H])C([H])(OC([H])([H])[H])C(C([H])([H])[H])(C([H])([H])[H])C2([H])C1([H])[H]

$$$$
94:1:0
     RDKit          3D

 47 52  0  0  1  0  0  0  0  0999 V2000
    3.4720   -2.3836   -4.5971 C   0  0  0  0  0  0  0  0  0  0  0  0
    3.2735   -2.2360   -3.1810 N   0  0  0  0  0  0  0  0  0  0  0  0
    3.9117   -0.9989   -2.7389 C   0  0  0  0  0  0  0  0  0  0  0  0
    3.7257   -0.8528   -1.2270 C   0  0  0  0  0  0  0  0  0  0  0  0
    4.1050   -2.0766   -0.3971 C   0  0  1  0  0  0  0  0  0  0  0  0
    5.5467   -2.3425   -0.6387 C   0  0  0  0  0  0  0  0  0  0  0  0
    6.1149   -3.0352   -1.7096 C   0  0  0  0  0  0  0  0  0  0  0  0
    7.5177   -3.1087   -1.7670 C   0  0  0  0  0  0  0  0  0  0  0  0
    8.2626   -2.4405   -0.8040 C   0  0  0  0  0  0  0  0  0  0  0  0
    7.6353   -1.7359    0.2059 C   0  0  0  0  0  0  0  0  0  0  0  0
    8.4910   -1.0606    0.9513 O   0  0  0  0  0  0  0  0  0  0  0  0
    6.2385   -1.7189    0.3606 C   0  0  0  0  0  0  0  0  0  0  0  0
    5.4357   -1.2111    1.3317 O   0  0  0  0  0  0  0  0  0  0  0  0
    4.1293   -1.8115    1.1524 C   0  0  1  0  0  0  0  0  0  0  0  0
    3.0978   -0.7877    1.6666 C   0  0  0  0  0  0  0  0  0  0  0  0
    4.0593   -3.1339    1.9600 C   0  0  0  0  0  0  0  0  0  0  0  0
    5.2860   -3.7632    2.6029 C   0  0  0  0  0  0  0  0  0  0  0  0
    4.2320   -3.1364    3.4755 C   0  0  0  0  0  0  0  0  0  0  0  0
    3.0827   -4.1160    1.3633 C   0  0  0  0  0  0  0  0  0  0  0  0
    2.1833   -4.6261    2.0268 O   0  0  0  0  0  0  0  0  0  0  0  0
    3.3045   -4.4845   -0.0962 C   0  0  0  0  0  0  0  0  0  0  0  0
    3.2543   -3.2189   -0.9585 C   0  0  2  0  0  0  0  0  0  0  0  0
    3.6753   -3.4395   -2.4406 C   0  0  2  0  0  0  0  0  0  0  0  0
    5.1712   -3.8092   -2.5802 C   0  0  0  0  0  0  0  0  0  0  0  0
    3.0123   -1.5169   -5.0570 H   0  0  0  0  0  0  0  0  0  0  0  0
    3.0107   -3.2922   -4.9775 H   0  0  0  0  0  0  0  0  0  0  0  0
    4.5310   -2.3845   -4.8339 H   0  0  0  0  0  0  0  0  0  0  0  0
    4.9679   -0.9513   -3.0085 H   0  0  0  0  0  0  0  0  0  0  0  0
    3.4210   -0.1710   -3.2537 H   0  0  0  0  0  0  0  0  0  0  0  0
    4.2332    0.0334   -0.8850 H   0  0  0  0  0  0  0  0  0  0  0  0
    2.6820   -0.6744   -1.0436 H   0  0  0  0  0  0  0  0  0  0  0  0
    8.0635   -3.6781   -2.5223 H   0  0  0  0  0  0  0  0  0  0  0  0
    9.3452   -2.3788   -0.8143 H   0  0  0  0  0  0  0  0  0  0  0  0
    8.0082   -0.4474    1.5213 H   0  0  0  0  0  0  0  0  0  0  0  0
    2.0767   -1.1136    1.4610 H   0  0  0  0  0  0  0  0  0  0  0  0
    3.2561    0.1966    1.2266 H   0  0  0  0  0  0  0  0  0  0  0  0
    3.1990   -0.6564    2.7424 H   0  0  0  0  0  0  0  0  0  0  0  0
    5.3685   -4.8482    2.6234 H   0  0  0  0  0  0  0  0  0  0  0  0
    6.2345   -3.2404    2.5326 H   0  0  0  0  0  0  0  0  0  0  0  0
    4.4778   -2.1918    3.9640 H   0  0  0  0  0  0  0  0  0  0  0  0
    3.6195   -3.8118    4.0709 H   0  0  0  0  0  0  0  0  0  0  0  0
    4.2726   -4.9781   -0.1649 H   0  0  0  0  0  0  0  0  0  0  0  0
    2.5466   -5.2023   -0.4004 H   0  0  0  0  0  0  0  0  0  0  0  0
    2.2117   -2.9030   -0.9482 H   0  0  0  0  0  0  0  0  0  0  0  0
    3.0749   -4.2388   -2.8864 H   0  0  0  0  0  0  0  0  0  0  0  0
    5.5131   -3.7697   -3.6129 H   0  0  0  0  0  0  0  0  0  0  0  0
    5.2480   -4.8578   -2.2879 H   0  0  0  0  0  0  0  0  0  0  0  0
  1  2  1  0
  1 25  1  0
  1 26  1  0
  1 27  1  0
  2 23  1  0
  2  3  1  0
  3  4  1  0
  3 28  1  0
  3 29  1  0
  5  4  1  6
  4 30  1  0
  4 31  1  0
  5 14  1  0
  5 22  1  0
  5  6  1  0
  6 12  2  0
  6  7  1  0
  7 24  1  0
  7  8  2  0
  8  9  1  0
  8 32  1  0
  9 10  2  0
  9 33  1  0
 10 11  1  0
 10 12  1  0
 11 34  1  0
 12 13  1  0
 13 14  1  0
 14 15  1  1
 14 16  1  0
 15 35  1  0
 15 36  1  0
 15 37  1  0
 16 18  1  0
 16 17  1  0
 16 19  1  0
 17 18  1  0
 17 38  1  0
 17 39  1  0
 18 40  1  0
 18 41  1  0
 19 20  2  0
 19 21  1  0
 21 22  1  0
 21 42  1  0
 21 43  1  0
 22 23  1  0
 22 44  1  6
 23 24  1  0
 23 45  1  6
 24 46  1  0
 24 47  1  0
M  END
>  <i_m_ct_stereo_status>  (303) 
1

>  <s_m_source_file>  (303) 
/var/tmp/pbs.5076255.sched01/tmpsouvlwkc/11751gt6aqu.sdf

>  <i_m_source_file_index>  (303) 
8

>  <i_lp_mmshare_version>  (303) 
48012

>  <i_f3d_flags>  (303) 
0

>  <s_epik_input>  (303) 
W0NIMl0xW0NIMl1OKFtDSDNdKVtDQEBIXShbQ0gyXTIpW0NASF0zW0NIMl1DKD1PKUM0KFtDSDJdW0NIMl00KVtDQEBdNShbQ0gzXSlPYzZjKFtPSF0pW2NIXVtjSF1jMmM2W0NAQF0xMzU=

>  <s_epik_cmdline>  (303) 
J2VwaWtfcHl0aG9uJywgJy1waHQnLCAnMi4wJywgJy1waCcsICc3LjAnLCAnLXRuJywgJzgnLCAnLW1hJywgJzIwMCcsICctaW1hZScsICc8aW5maWxlLm1hZT4nLCAnLW9tYWUnLCAnPG91dGZpbGUubWFlPic=

>  <r_lp_tautomer_probability>  (303) 
0.99995

>  <r_epik_Ionization_Penalty>  (303) 
1.5928

>  <r_epik_Ionization_Penalty_Charging>  (303) 
0

>  <r_epik_Ionization_Penalty_Neutral>  (303) 
1.5928

>  <r_epik_State_Penalty>  (303) 
1.69596

>  <r_epik_Charging_Adjusted_Penalty>  (303) 
1.69596

>  <i_epik_Tot_Q>  (303) 
0

>  <i_epik_Tot_abs_Q>  (303) 
0

>  <s_lp_Force_Field>  (303) 
OPLS3e

>  <r_lp_Energy>  (303) 
45.737

>  <b_lp_Chiralities_Consistent>  (303) 
1

>  <s_lp_Variant>  (303) 
94:0-2

>  <s_i_glide_gridfile>  (303) 
pfpi4k_grid

>  <i_i_glide_lignum>  (303) 
8

>  <i_i_glide_rotatable_bonds>  (303) 
1

>  <r_i_docking_score>  (303) 
-2.63914

>  <r_i_glide_ligand_efficiency>  (303) 
-0.109964

>  <r_i_glide_ligand_efficiency_sa>  (303) 
-0.317191

>  <r_i_glide_ligand_efficiency_ln>  (303) 
-0.631667

>  <r_i_glide_gscore>  (303) 
-2.63914

>  <r_i_glide_lipo>  (303) 
-0.278794

>  <r_i_glide_hbond>  (303) 
0

>  <r_i_glide_metal>  (303) 
-0

>  <r_i_glide_rewards>  (303) 
-1.19044

>  <r_i_glide_evdw>  (303) 
-5.54019

>  <r_i_glide_ecoul>  (303) 
-5.94637

>  <r_i_glide_erotb>  (303) 
0

>  <r_i_glide_esite>  (303) 
-0.000935408

>  <r_i_glide_emodel>  (303) 
-11.7125

>  <r_i_glide_energy>  (303) 
-11.4866

>  <r_i_glide_einternal>  (303) 
0.716006

>  <r_i_glide_intrahb_reward>  (303) 
-0

>  <i_i_glide_confnum>  (303) 
2

>  <i_i_glide_posenum>  (303) 
7

>  <r_i_glide_eff_state_penalty>  (303) 
0

>  <ligand_id>  (303) 
94

>  <original_smiles>  (303) 
CN1CCC23c4c5ccc(O)c4OC2(C)C2(CC2)C(=O)CC3C1C5

>  <smiles>  (303) 
[H]Oc1c([H])c([H])c2c3c1OC1(C([H])([H])[H])C4(C(=O)C([H])([H])C5([H])C([H])(N(C([H])([H])[H])C([H])([H])C([H])([H])C351)C2([H])[H])C([H])([H])C4([H])[H]

$$$$
94:1:1
     RDKit          3D

 47 52  0  0  1  0  0  0  0  0999 V2000
    2.7071   -2.1627   -4.0458 C   0  0  0  0  0  0  0  0  0  0  0  0
    2.8200   -2.0370   -2.6034 N   0  0  0  0  0  0  0  0  0  0  0  0
    3.6153   -0.8641   -2.2405 C   0  0  0  0  0  0  0  0  0  0  0  0
    3.7199   -0.7097   -0.6953 C   0  0  0  0  0  0  0  0  0  0  0  0
    4.1349   -2.0083    0.0194 C   0  0  1  0  0  0  0  0  0  0  0  0
    5.4891   -2.3817   -0.4639 C   0  0  0  0  0  0  0  0  0  0  0  0
    5.7719   -3.1071   -1.6257 C   0  0  0  0  0  0  0  0  0  0  0  0
    7.1283   -3.2526   -1.9201 C   0  0  0  0  0  0  0  0  0  0  0  0
    8.1097   -2.6827   -1.0883 C   0  0  0  0  0  0  0  0  0  0  0  0
    7.7686   -1.9565    0.0683 C   0  0  0  0  0  0  0  0  0  0  0  0
    8.7761   -1.3527    0.7552 O   0  0  0  0  0  0  0  0  0  0  0  0
    6.4079   -1.8480    0.4303 C   0  0  0  0  0  0  0  0  0  0  0  0
    5.8187   -1.3222    1.5447 O   0  0  0  0  0  0  0  0  0  0  0  0
    4.4480   -1.7957    1.5546 C   0  0  1  0  0  0  0  0  0  0  0  0
    3.6180   -0.7004    2.2590 C   0  0  0  0  0  0  0  0  0  0  0  0
    4.3854   -3.1329    2.3456 C   0  0  0  0  0  0  0  0  0  0  0  0
    5.6318   -3.9034    2.7383 C   0  0  0  0  0  0  0  0  0  0  0  0
    4.8277   -3.2003    3.7990 C   0  0  0  0  0  0  0  0  0  0  0  0
    3.2168   -3.9971    1.9260 C   0  0  0  0  0  0  0  0  0  0  0  0
    2.3731   -4.4202    2.7168 O   0  0  0  0  0  0  0  0  0  0  0  0
    3.1496   -4.3480    0.4445 C   0  0  0  0  0  0  0  0  0  0  0  0
    3.0704   -3.0580   -0.3824 C   0  0  2  0  0  0  0  0  0  0  0  0
    3.1859   -3.2792   -1.9133 C   0  0  2  0  0  0  0  0  0  0  0  0
    4.5903   -3.7754   -2.3227 C   0  0  0  0  0  0  0  0  0  0  0  0
    2.2223   -1.2747   -4.4481 H   0  0  0  0  0  0  0  0  0  0  0  0
    2.0960   -3.0264   -4.3107 H   0  0  0  0  0  0  0  0  0  0  0  0
    3.6771   -2.2549   -4.5321 H   0  0  0  0  0  0  0  0  0  0  0  0
    4.6155   -0.9171   -2.6724 H   0  0  0  0  0  0  0  0  0  0  0  0
    3.1392   -0.0033   -2.7179 H   0  0  0  0  0  0  0  0  0  0  0  0
    4.4083    0.1013   -0.4473 H   0  0  0  0  0  0  0  0  0  0  0  0
    2.7553   -0.4377   -0.2688 H   0  0  0  0  0  0  0  0  0  0  0  0
    7.4242   -3.8455   -2.7624 H   0  0  0  0  0  0  0  0  0  0  0  0
    9.1350   -2.8098   -1.3610 H   0  0  0  0  0  0  0  0  0  0  0  0
    9.6208   -1.4315    0.3265 H   0  0  0  0  0  0  0  0  0  0  0  0
    2.5501   -0.9184    2.2405 H   0  0  0  0  0  0  0  0  0  0  0  0
    3.7907    0.2767    1.8110 H   0  0  0  0  0  0  0  0  0  0  0  0
    3.9244   -0.6100    3.3003 H   0  0  0  0  0  0  0  0  0  0  0  0
    5.5943   -4.9890    2.7395 H   0  0  0  0  0  0  0  0  0  0  0  0
    6.6000   -3.4911    2.4737 H   0  0  0  0  0  0  0  0  0  0  0  0
    5.2597   -2.3082    4.2454 H   0  0  0  0  0  0  0  0  0  0  0  0
    4.2709   -3.8262    4.4902 H   0  0  0  0  0  0  0  0  0  0  0  0
    4.0363   -4.9292    0.1883 H   0  0  0  0  0  0  0  0  0  0  0  0
    2.2820   -4.9802    0.2604 H   0  0  0  0  0  0  0  0  0  0  0  0
    2.0785   -2.6606   -0.1689 H   0  0  0  0  0  0  0  0  0  0  0  0
    2.4358   -4.0059   -2.2139 H   0  0  0  0  0  0  0  0  0  0  0  0
    4.7416   -3.7454   -3.4023 H   0  0  0  0  0  0  0  0  0  0  0  0
    4.6731   -4.8218   -2.0521 H   0  0  0  0  0  0  0  0  0  0  0  0
  1  2  1  0
  1 25  1  0
  1 26  1  0
  1 27  1  0
  2 23  1  0
  2  3  1  0
  3  4  1  0
  3 28  1  0
  3 29  1  0
  5  4  1  6
  4 30  1  0
  4 31  1  0
  5 14  1  0
  5 22  1  0
  5  6  1  0
  6 12  2  0
  6  7  1  0
  7 24  1  0
  7  8  2  0
  8  9  1  0
  8 32  1  0
  9 10  2  0
  9 33  1  0
 10 11  1  0
 10 12  1  0
 11 34  1  0
 12 13  1  0
 13 14  1  0
 14 15  1  1
 14 16  1  0
 15 35  1  0
 15 36  1  0
 15 37  1  0
 16 18  1  0
 16 17  1  0
 16 19  1  0
 17 18  1  0
 17 38  1  0
 17 39  1  0
 18 40  1  0
 18 41  1  0
 19 20  2  0
 19 21  1  0
 21 22  1  0
 21 42  1  0
 21 43  1  0
 22 23  1  0
 22 44  1  6
 23 24  1  0
 23 45  1  6
 24 46  1  0
 24 47  1  0
M  END
>  <i_m_ct_stereo_status>  (304) 
1

>  <s_m_source_file>  (304) 
/var/tmp/pbs.5076255.sched01/tmpsouvlwkc/11751gt6aqu.sdf

>  <i_m_source_file_index>  (304) 
8

>  <i_lp_mmshare_version>  (304) 
48012

>  <i_f3d_flags>  (304) 
0

>  <s_epik_input>  (304) 
W0NIMl0xW0NIMl1OKFtDSDNdKVtDQEBIXShbQ0gyXTIpW0NASF0zW0NIMl1DKD1PKUM0KFtDSDJdW0NIMl00KVtDQEBdNShbQ0gzXSlPYzZjKFtPSF0pW2NIXVtjSF1jMmM2W0NAQF0xMzU=

>  <s_epik_cmdline>  (304) 
J2VwaWtfcHl0aG9uJywgJy1waHQnLCAnMi4wJywgJy1waCcsICc3LjAnLCAnLXRuJywgJzgnLCAnLW1hJywgJzIwMCcsICctaW1hZScsICc8aW5maWxlLm1hZT4nLCAnLW9tYWUnLCAnPG91dGZpbGUubWFlPic=

>  <r_lp_tautomer_probability>  (304) 
0.99995

>  <r_epik_Ionization_Penalty>  (304) 
1.5928

>  <r_epik_Ionization_Penalty_Charging>  (304) 
0

>  <r_epik_Ionization_Penalty_Neutral>  (304) 
1.5928

>  <r_epik_State_Penalty>  (304) 
1.69596

>  <r_epik_Charging_Adjusted_Penalty>  (304) 
1.69596

>  <i_epik_Tot_Q>  (304) 
0

>  <i_epik_Tot_abs_Q>  (304) 
0

>  <s_lp_Force_Field>  (304) 
OPLS3e

>  <r_lp_Energy>  (304) 
45.737

>  <b_lp_Chiralities_Consistent>  (304) 
1

>  <s_lp_Variant>  (304) 
94:0-2

>  <s_i_glide_gridfile>  (304) 
pfpi4k_grid

>  <i_i_glide_lignum>  (304) 
8

>  <i_i_glide_rotatable_bonds>  (304) 
1

>  <r_i_docking_score>  (304) 
-2.62003

>  <r_i_glide_ligand_efficiency>  (304) 
-0.109168

>  <r_i_glide_ligand_efficiency_sa>  (304) 
-0.314894

>  <r_i_glide_ligand_efficiency_ln>  (304) 
-0.627093

>  <r_i_glide_gscore>  (304) 
-2.62003

>  <r_i_glide_lipo>  (304) 
-0.336495

>  <r_i_glide_hbond>  (304) 
0

>  <r_i_glide_metal>  (304) 
-0

>  <r_i_glide_rewards>  (304) 
-1.19194

>  <r_i_glide_evdw>  (304) 
-13.0706

>  <r_i_glide_ecoul>  (304) 
-2.92039

>  <r_i_glide_erotb>  (304) 
0

>  <r_i_glide_esite>  (304) 
0

>  <r_i_glide_emodel>  (304) 
-17.8351

>  <r_i_glide_energy>  (304) 
-15.991

>  <r_i_glide_einternal>  (304) 
0.213205

>  <r_i_glide_intrahb_reward>  (304) 
-0

>  <i_i_glide_confnum>  (304) 
2

>  <i_i_glide_posenum>  (304) 
5

>  <r_i_glide_eff_state_penalty>  (304) 
0

>  <ligand_id>  (304) 
94

>  <original_smiles>  (304) 
CN1CCC23c4c5ccc(O)c4OC2(C)C2(CC2)C(=O)CC3C1C5

>  <smiles>  (304) 
[H]Oc1c([H])c([H])c2c3c1OC1(C([H])([H])[H])C4(C(=O)C([H])([H])C5([H])C([H])(N(C([H])([H])[H])C([H])([H])C([H])([H])C351)C2([H])[H])C([H])([H])C4([H])[H]

$$$$
94:1:2
     RDKit          3D

 47 52  0  0  1  0  0  0  0  0999 V2000
    2.8189   -1.3789   -4.2993 C   0  0  0  0  0  0  0  0  0  0  0  0
    2.8689   -1.5953   -2.8680 N   0  0  0  0  0  0  0  0  0  0  0  0
    3.7961   -0.6607   -2.2557 C   0  0  0  0  0  0  0  0  0  0  0  0
    3.7307   -0.8404   -0.7132 C   0  0  0  0  0  0  0  0  0  0  0  0
    3.9457   -2.3088   -0.2899 C   0  0  1  0  0  0  0  0  0  0  0  0
    5.2822   -2.6973   -0.7918 C   0  0  0  0  0  0  0  0  0  0  0  0
    5.5719   -3.1828   -2.0635 C   0  0  0  0  0  0  0  0  0  0  0  0
    6.9024   -3.4337   -2.2984 C   0  0  0  0  0  0  0  0  0  0  0  0
    7.9126   -3.1390   -1.3709 C   0  0  0  0  0  0  0  0  0  0  0  0
    7.5319   -2.7055   -0.1013 C   0  0  0  0  0  0  0  0  0  0  0  0
    8.5080   -2.5813    0.8121 O   0  0  0  0  0  0  0  0  0  0  0  0
    6.1783   -2.5033    0.2403 C   0  0  0  0  0  0  0  0  0  0  0  0
    5.5763   -2.2016    1.4333 O   0  0  0  0  0  0  0  0  0  0  0  0
    4.1738   -2.4996    1.2604 C   0  0  1  0  0  0  0  0  0  0  0  0
    3.4152   -1.5113    2.1556 C   0  0  0  0  0  0  0  0  0  0  0  0
    3.9403   -3.9610    1.7102 C   0  0  0  0  0  0  0  0  0  0  0  0
    5.0742   -4.9424    1.9773 C   0  0  0  0  0  0  0  0  0  0  0  0
    4.2572   -4.4129    3.1254 C   0  0  0  0  0  0  0  0  0  0  0  0
    2.7367   -4.5719    1.0572 C   0  0  0  0  0  0  0  0  0  0  0  0
    1.8460   -5.1242    1.6934 O   0  0  0  0  0  0  0  0  0  0  0  0
    2.7075   -4.5565   -0.4559 C   0  0  0  0  0  0  0  0  0  0  0  0
    2.8221   -3.1231   -0.9746 C   0  0  2  0  0  0  0  0  0  0  0  0
    3.0274   -3.0145   -2.5065 C   0  0  2  0  0  0  0  0  0  0  0  0
    4.4069   -3.5393   -2.9764 C   0  0  0  0  0  0  0  0  0  0  0  0
    2.4462   -0.3803   -4.5507 H   0  0  0  0  0  0  0  0  0  0  0  0
    2.1084   -2.1204   -4.6604 H   0  0  0  0  0  0  0  0  0  0  0  0
    3.7921   -1.4900   -4.7939 H   0  0  0  0  0  0  0  0  0  0  0  0
    4.8114   -0.7817   -2.6316 H   0  0  0  0  0  0  0  0  0  0  0  0
    3.4774    0.2906   -2.6886 H   0  0  0  0  0  0  0  0  0  0  0  0
    4.4649   -0.1818   -0.2639 H   0  0  0  0  0  0  0  0  0  0  0  0
    2.7675   -0.5422   -0.3111 H   0  0  0  0  0  0  0  0  0  0  0  0
    7.1481   -3.8513   -3.2218 H   0  0  0  0  0  0  0  0  0  0  0  0
    8.9519   -3.3139   -1.6046 H   0  0  0  0  0  0  0  0  0  0  0  0
    8.1248   -2.2906    1.6265 H   0  0  0  0  0  0  0  0  0  0  0  0
    2.3375   -1.5989    2.0279 H   0  0  0  0  0  0  0  0  0  0  0  0
    3.7172   -0.4847    1.9509 H   0  0  0  0  0  0  0  0  0  0  0  0
    3.6530   -1.6934    3.2018 H   0  0  0  0  0  0  0  0  0  0  0  0
    4.9336   -5.9888    1.7110 H   0  0  0  0  0  0  0  0  0  0  0  0
    6.1034   -4.6046    1.9107 H   0  0  0  0  0  0  0  0  0  0  0  0
    4.7217   -3.6884    3.7886 H   0  0  0  0  0  0  0  0  0  0  0  0
    3.5815   -5.1126    3.6162 H   0  0  0  0  0  0  0  0  0  0  0  0
    3.5691   -5.1490   -0.7437 H   0  0  0  0  0  0  0  0  0  0  0  0
    1.8047   -5.0416   -0.8352 H   0  0  0  0  0  0  0  0  0  0  0  0
    1.8643   -2.6669   -0.7424 H   0  0  0  0  0  0  0  0  0  0  0  0
    2.2457   -3.5845   -3.0251 H   0  0  0  0  0  0  0  0  0  0  0  0
    4.6438   -3.2445   -4.0051 H   0  0  0  0  0  0  0  0  0  0  0  0
    4.3795   -4.6308   -3.0134 H   0  0  0  0  0  0  0  0  0  0  0  0
  1  2  1  0
  1 25  1  0
  1 26  1  0
  1 27  1  0
  2 23  1  0
  2  3  1  0
  3  4  1  0
  3 28  1  0
  3 29  1  0
  5  4  1  1
  4 30  1  0
  4 31  1  0
  5 14  1  0
  5 22  1  0
  5  6  1  0
  6 12  2  0
  6  7  1  0
  7 24  1  0
  7  8  2  0
  8  9  1  0
  8 32  1  0
  9 10  2  0
  9 33  1  0
 10 11  1  0
 10 12  1  0
 11 34  1  0
 12 13  1  0
 13 14  1  0
 14 15  1  1
 14 16  1  0
 15 35  1  0
 15 36  1  0
 15 37  1  0
 16 18  1  0
 16 17  1  0
 16 19  1  0
 17 18  1  0
 17 38  1  0
 17 39  1  0
 18 40  1  0
 18 41  1  0
 19 20  2  0
 19 21  1  0
 21 22  1  0
 21 42  1  0
 21 43  1  0
 22 23  1  0
 22 44  1  6
 23 24  1  0
 23 45  1  6
 24 46  1  0
 24 47  1  0
M  END
>  <i_m_ct_stereo_status>  (305) 
1

>  <s_m_source_file>  (305) 
/var/tmp/pbs.5076255.sched01/tmpsouvlwkc/11751gt6aqu.sdf

>  <i_m_source_file_index>  (305) 
8

>  <i_lp_mmshare_version>  (305) 
48012

>  <i_f3d_flags>  (305) 
0

>  <s_epik_input>  (305) 
W0NIMl0xW0NIMl1OKFtDSDNdKVtDQEBIXShbQ0gyXTIpW0NASF0zW0NIMl1DKD1PKUM0KFtDSDJdW0NIMl00KVtDQEBdNShbQ0gzXSlPYzZjKFtPSF0pW2NIXVtjSF1jMmM2W0NAQF0xMzU=

>  <s_epik_cmdline>  (305) 
J2VwaWtfcHl0aG9uJywgJy1waHQnLCAnMi4wJywgJy1waCcsICc3LjAnLCAnLXRuJywgJzgnLCAnLW1hJywgJzIwMCcsICctaW1hZScsICc8aW5maWxlLm1hZT4nLCAnLW9tYWUnLCAnPG91dGZpbGUubWFlPic=

>  <r_lp_tautomer_probability>  (305) 
0.99995

>  <r_epik_Ionization_Penalty>  (305) 
1.5928

>  <r_epik_Ionization_Penalty_Charging>  (305) 
0

>  <r_epik_Ionization_Penalty_Neutral>  (305) 
1.5928

>  <r_epik_State_Penalty>  (305) 
1.69596

>  <r_epik_Charging_Adjusted_Penalty>  (305) 
1.69596

>  <i_epik_Tot_Q>  (305) 
0

>  <i_epik_Tot_abs_Q>  (305) 
0

>  <s_lp_Force_Field>  (305) 
OPLS3e

>  <r_lp_Energy>  (305) 
45.737

>  <b_lp_Chiralities_Consistent>  (305) 
1

>  <s_lp_Variant>  (305) 
94:0-2

>  <s_i_glide_gridfile>  (305) 
pfpi4k_grid

>  <i_i_glide_lignum>  (305) 
8

>  <i_i_glide_rotatable_bonds>  (305) 
1

>  <r_i_docking_score>  (305) 
-2.21052

>  <r_i_glide_ligand_efficiency>  (305) 
-0.0921052

>  <r_i_glide_ligand_efficiency_sa>  (305) 
-0.265677

>  <r_i_glide_ligand_efficiency_ln>  (305) 
-0.52908

>  <r_i_glide_gscore>  (305) 
-2.21052

>  <r_i_glide_lipo>  (305) 
-0.323002

>  <r_i_glide_hbond>  (305) 
-0.0389279

>  <r_i_glide_metal>  (305) 
-0

>  <r_i_glide_rewards>  (305) 
-1.19044

>  <r_i_glide_evdw>  (305) 
-5.15256

>  <r_i_glide_ecoul>  (305) 
-2.53891

>  <r_i_glide_erotb>  (305) 
0

>  <r_i_glide_esite>  (305) 
-0.0196863

>  <r_i_glide_emodel>  (305) 
-9.11847

>  <r_i_glide_energy>  (305) 
-7.69147

>  <r_i_glide_einternal>  (305) 
0.0122353

>  <r_i_glide_intrahb_reward>  (305) 
-0

>  <i_i_glide_confnum>  (305) 
1

>  <i_i_glide_posenum>  (305) 
39

>  <r_i_glide_eff_state_penalty>  (305) 
0

>  <ligand_id>  (305) 
94

>  <original_smiles>  (305) 
CN1CCC23c4c5ccc(O)c4OC2(C)C2(CC2)C(=O)CC3C1C5

>  <smiles>  (305) 
[H]Oc1c([H])c([H])c2c3c1OC1(C([H])([H])[H])C4(C(=O)C([H])([H])C5([H])C([H])(N(C([H])([H])[H])C([H])([H])C([H])([H])C351)C2([H])[H])C([H])([H])C4([H])[H]

$$$$
95:0:0
     RDKit          3D

 49 52  0  0  1  0  0  0  0  0999 V2000
   -1.2046   -9.2727    2.4796 C   0  0  0  0  0  0  0  0  0  0  0  0
   -0.7294   -7.8523    2.7462 C   0  0  0  0  0  0  0  0  0  0  0  0
   -1.4385   -7.0541    3.3545 O   0  0  0  0  0  0  0  0  0  0  0  0
    0.5089   -7.6028    2.2287 O   0  0  0  0  0  0  0  0  0  0  0  0
    1.0456   -6.3198    2.4499 C   0  0  2  0  0  0  0  0  0  0  0  0
    1.8476   -5.9748    1.3200 O   0  0  0  0  0  0  0  0  0  0  0  0
    2.7815   -4.9813    1.5995 C   0  0  2  0  0  0  0  0  0  0  0  0
    3.2377   -4.2543    0.5185 O   0  0  0  0  0  0  0  0  0  0  0  0
    4.3562   -3.4458    0.8755 C   0  0  2  0  0  0  0  0  0  0  0  0
    4.1849   -2.0736    0.2104 C   0  0  0  0  0  0  0  0  0  0  0  0
    5.5823   -4.1381    0.2677 C   0  0  0  0  0  0  0  0  0  0  0  0
    5.5395   -5.6517    0.4566 C   0  0  0  0  0  0  0  0  0  0  0  0
    5.3293   -5.9808    1.9304 C   0  0  2  0  0  0  0  0  0  0  0  0
    5.7786   -7.4001    2.3770 C   0  0  1  0  0  0  0  0  0  0  0  0
    7.2374   -7.7105    1.9852 C   0  0  0  0  0  0  0  0  0  0  0  0
    5.6242   -7.5713    3.9167 C   0  0  0  0  0  0  0  0  0  0  0  0
    4.2703   -7.0971    4.4922 C   0  0  0  0  0  0  0  0  0  0  0  0
    3.3208   -6.6423    3.3865 C   0  0  1  0  0  0  0  0  0  0  0  0
    1.8712   -6.3377    3.7739 C   0  0  1  0  0  0  0  0  0  0  0  0
    1.6811   -5.0495    4.6154 C   0  0  0  0  0  0  0  0  0  0  0  0
    3.9373   -5.5148    2.5190 C   0  0  2  0  0  0  0  0  0  0  0  0
    4.2823   -4.3548    3.2462 O   0  0  0  0  0  0  0  0  0  0  0  0
    4.4974   -3.1516    2.2928 O   0  0  0  0  0  0  0  0  0  0  0  0
   -0.4536   -9.9903    2.8067 H   0  0  0  0  0  0  0  0  0  0  0  0
   -1.3913   -9.4266    1.4187 H   0  0  0  0  0  0  0  0  0  0  0  0
   -2.1278   -9.4784    3.0262 H   0  0  0  0  0  0  0  0  0  0  0  0
    0.2552   -5.5770    2.4948 H   0  0  0  0  0  0  0  0  0  0  0  0
    2.2092   -4.2139    2.1255 H   0  0  0  0  0  0  0  0  0  0  0  0
    3.3107   -1.5423    0.6007 H   0  0  0  0  0  0  0  0  0  0  0  0
    4.0567   -2.1688   -0.8665 H   0  0  0  0  0  0  0  0  0  0  0  0
    5.0587   -1.4405    0.3880 H   0  0  0  0  0  0  0  0  0  0  0  0
    5.6237   -3.9574   -0.8065 H   0  0  0  0  0  0  0  0  0  0  0  0
    6.4955   -3.7231    0.6918 H   0  0  0  0  0  0  0  0  0  0  0  0
    4.7553   -6.1089   -0.1486 H   0  0  0  0  0  0  0  0  0  0  0  0
    6.4877   -6.0223    0.0798 H   0  0  0  0  0  0  0  0  0  0  0  0
    6.0827   -5.3720    2.4352 H   0  0  0  0  0  0  0  0  0  0  0  0
    5.1478   -8.1350    1.8831 H   0  0  0  0  0  0  0  0  0  0  0  0
    7.9197   -6.9436    2.3499 H   0  0  0  0  0  0  0  0  0  0  0  0
    7.3763   -7.7735    0.9029 H   0  0  0  0  0  0  0  0  0  0  0  0
    7.5781   -8.6615    2.4009 H   0  0  0  0  0  0  0  0  0  0  0  0
    5.7786   -8.6218    4.1766 H   0  0  0  0  0  0  0  0  0  0  0  0
    6.4208   -7.0243    4.4276 H   0  0  0  0  0  0  0  0  0  0  0  0
    3.8234   -7.9047    5.0758 H   0  0  0  0  0  0  0  0  0  0  0  0
    4.4387   -6.2805    5.1938 H   0  0  0  0  0  0  0  0  0  0  0  0
    3.2127   -7.5225    2.7508 H   0  0  0  0  0  0  0  0  0  0  0  0
    1.5037   -7.1583    4.3886 H   0  0  0  0  0  0  0  0  0  0  0  0
    2.0419   -4.1440    4.1218 H   0  0  0  0  0  0  0  0  0  0  0  0
    2.2025   -5.1282    5.5682 H   0  0  0  0  0  0  0  0  0  0  0  0
    0.6336   -4.8700    4.8670 H   0  0  0  0  0  0  0  0  0  0  0  0
  1  2  1  0
  1 24  1  0
  1 25  1  0
  1 26  1  0
  2  3  2  0
  2  4  1  0
  4  5  1  0
  5 19  1  0
  5  6  1  0
  5 27  1  1
  6  7  1  0
  7 21  1  0
  7  8  1  0
  7 28  1  1
  8  9  1  0
  9 23  1  0
  9 10  1  6
  9 11  1  0
 10 29  1  0
 10 30  1  0
 10 31  1  0
 11 12  1  0
 11 32  1  0
 11 33  1  0
 12 13  1  0
 12 34  1  0
 12 35  1  0
 13 21  1  0
 13 14  1  0
 13 36  1  1
 14 15  1  0
 14 16  1  0
 14 37  1  6
 15 38  1  0
 15 39  1  0
 15 40  1  0
 16 17  1  0
 16 41  1  0
 16 42  1  0
 17 18  1  0
 17 43  1  0
 17 44  1  0
 18 19  1  0
 18 21  1  0
 18 45  1  6
 19 20  1  0
 19 46  1  1
 20 47  1  0
 20 48  1  0
 20 49  1  0
 21 22  1  1
 22 23  1  0
M  END
>  <i_m_ct_stereo_status>  (306) 
1

>  <s_m_source_file>  (306) 
/var/tmp/pbs.5076255.sched01/tmpsouvlwkc/11751gt6aqu.sdf

>  <i_m_source_file_index>  (306) 
10

>  <i_lp_mmshare_version>  (306) 
48012

>  <i_f3d_flags>  (306) 
0

>  <s_epik_input>  (306) 
W0NIM11DKD1PKU9bQ0BIXShPW0NASF0xW0NAXTIzNClbQ0BIXShbQ0gzXSlbQ0BASF0zW0NIMl1bQ0gyXVtDQEhdKFtDSDNdKVtDQEhdMltDSDJdW0NIMl1bQ0BdKE8xKShbQ0gzXSlPTzQ=

>  <s_epik_cmdline>  (306) 
J2VwaWtfcHl0aG9uJywgJy1waHQnLCAnMi4wJywgJy1waCcsICc3LjAnLCAnLXRuJywgJzgnLCAnLW1hJywgJzIwMCcsICctaW1hZScsICc8aW5maWxlLm1hZT4nLCAnLW9tYWUnLCAnPG91dGZpbGUubWFlPic=

>  <r_lp_tautomer_probability>  (306) 
1

>  <r_epik_Ionization_Penalty>  (306) 
1.44714e-15

>  <r_epik_Ionization_Penalty_Charging>  (306) 
0

>  <r_epik_Ionization_Penalty_Neutral>  (306) 
1.44714e-15

>  <r_epik_State_Penalty>  (306) 
-0

>  <r_epik_Charging_Adjusted_Penalty>  (306) 
0

>  <i_epik_Tot_Q>  (306) 
0

>  <i_epik_Tot_abs_Q>  (306) 
0

>  <s_epik_Chemistry_Notes>  (306) 
This compound has an ester and may undergo hydrolysis at high or low pH. This compound contains an acetal/aminal-like group ( X-CH(R)-Y where X, Y are N, S, or O) that may be acid/base labile, releasing an aldehyde.

>  <s_lp_Force_Field>  (306) 
OPLS3e

>  <r_lp_Energy>  (306) 
67.9323

>  <b_lp_Chiralities_Consistent>  (306) 
1

>  <s_lp_Variant>  (306) 
95:0-1

>  <s_i_glide_gridfile>  (306) 
pfpi4k_grid

>  <i_i_glide_lignum>  (306) 
10

>  <i_i_glide_rotatable_bonds>  (306) 
2

>  <r_i_docking_score>  (306) 
-3.18592

>  <r_i_glide_ligand_efficiency>  (306) 
-0.138518

>  <r_i_glide_ligand_efficiency_sa>  (306) 
-0.393927

>  <r_i_glide_ligand_efficiency_ln>  (306) 
-0.770383

>  <r_i_glide_gscore>  (306) 
-3.18592

>  <r_i_glide_lipo>  (306) 
-0.484959

>  <r_i_glide_hbond>  (306) 
-0.129521

>  <r_i_glide_metal>  (306) 
-0

>  <r_i_glide_rewards>  (306) 
-1.21143

>  <r_i_glide_evdw>  (306) 
-23.2467

>  <r_i_glide_ecoul>  (306) 
-1.63997

>  <r_i_glide_erotb>  (306) 
0.176049

>  <r_i_glide_esite>  (306) 
-0.127722

>  <r_i_glide_emodel>  (306) 
-28.826

>  <r_i_glide_energy>  (306) 
-24.8867

>  <r_i_glide_einternal>  (306) 
2.76699

>  <r_i_glide_intrahb_reward>  (306) 
-0

>  <i_i_glide_confnum>  (306) 
6

>  <i_i_glide_posenum>  (306) 
14

>  <r_i_glide_eff_state_penalty>  (306) 
0

>  <ligand_id>  (306) 
95

>  <original_smiles>  (306) 
CC(=O)OC1OC2OC3(C)CCC4C(C)CCC(C1C)C24OO3

>  <smiles>  (306) 
[H]C([H])([H])C(=O)OC1([H])OC2([H])OC3(C([H])([H])[H])OOC24C([H])(C([H])([H])C([H])([H])C([H])(C([H])([H])[H])C4([H])C([H])([H])C3([H])[H])C1([H])C([H])([H])[H]

$$$$
95:0:1
     RDKit          3D

 49 52  0  0  1  0  0  0  0  0999 V2000
   -0.3143   -8.9066    2.5155 C   0  0  0  0  0  0  0  0  0  0  0  0
    0.0622   -7.4303    2.4373 C   0  0  0  0  0  0  0  0  0  0  0  0
   -0.5694   -6.6574    1.7131 O   0  0  0  0  0  0  0  0  0  0  0  0
    1.1126   -7.1014    3.2401 O   0  0  0  0  0  0  0  0  0  0  0  0
    1.5444   -5.7631    3.1849 C   0  0  2  0  0  0  0  0  0  0  0  0
    2.0531   -5.4637    1.8818 O   0  0  0  0  0  0  0  0  0  0  0  0
    2.8629   -4.3344    1.8766 C   0  0  2  0  0  0  0  0  0  0  0  0
    2.9707   -3.6780    0.6667 O   0  0  0  0  0  0  0  0  0  0  0  0
    4.0149   -2.7126    0.6934 C   0  0  2  0  0  0  0  0  0  0  0  0
    3.5142   -1.4522   -0.0164 C   0  0  0  0  0  0  0  0  0  0  0  0
    5.1597   -3.3205   -0.1256 C   0  0  0  0  0  0  0  0  0  0  0  0
    5.3662   -4.8012    0.1894 C   0  0  0  0  0  0  0  0  0  0  0  0
    5.5304   -4.9864    1.6951 C   0  0  2  0  0  0  0  0  0  0  0  0
    6.2629   -6.2841    2.1430 C   0  0  1  0  0  0  0  0  0  0  0  0
    7.6306   -6.4613    1.4564 C   0  0  0  0  0  0  0  0  0  0  0  0
    6.4685   -6.3033    3.6818 C   0  0  0  0  0  0  0  0  0  0  0  0
    5.2159   -5.9345    4.5114 C   0  0  0  0  0  0  0  0  0  0  0  0
    3.9944   -5.7201    3.6128 C   0  0  1  0  0  0  0  0  0  0  0  0
    2.6276   -5.5527    4.2889 C   0  0  1  0  0  0  0  0  0  0  0  0
    2.4511   -4.2146    5.0515 C   0  0  0  0  0  0  0  0  0  0  0  0
    4.2525   -4.6236    2.5473 C   0  0  2  0  0  0  0  0  0  0  0  0
    4.5776   -3.3616    3.0854 O   0  0  0  0  0  0  0  0  0  0  0  0
    4.4157   -2.2521    2.0134 O   0  0  0  0  0  0  0  0  0  0  0  0
   -0.4830   -9.2103    3.5486 H   0  0  0  0  0  0  0  0  0  0  0  0
    0.4720   -9.5272    2.0868 H   0  0  0  0  0  0  0  0  0  0  0  0
   -1.2281   -9.0908    1.9505 H   0  0  0  0  0  0  0  0  0  0  0  0
    0.6791   -5.1297    3.3697 H   0  0  0  0  0  0  0  0  0  0  0  0
    2.3147   -3.5946    2.4652 H   0  0  0  0  0  0  0  0  0  0  0  0
    2.6798   -0.9951    0.5210 H   0  0  0  0  0  0  0  0  0  0  0  0
    3.1624   -1.6787   -1.0241 H   0  0  0  0  0  0  0  0  0  0  0  0
    4.3029   -0.7005   -0.1001 H   0  0  0  0  0  0  0  0  0  0  0  0
    4.9392   -3.2530   -1.1917 H   0  0  0  0  0  0  0  0  0  0  0  0
    6.0780   -2.7574    0.0443 H   0  0  0  0  0  0  0  0  0  0  0  0
    4.5413   -5.4120   -0.1845 H   0  0  0  0  0  0  0  0  0  0  0  0
    6.2598   -5.1045   -0.3418 H   0  0  0  0  0  0  0  0  0  0  0  0
    6.2842   -4.2412    1.9579 H   0  0  0  0  0  0  0  0  0  0  0  0
    5.6511   -7.1389    1.8636 H   0  0  0  0  0  0  0  0  0  0  0  0
    8.2628   -5.5824    1.5946 H   0  0  0  0  0  0  0  0  0  0  0  0
    7.5409   -6.6235    0.3800 H   0  0  0  0  0  0  0  0  0  0  0  0
    8.1890   -7.3140    1.8567 H   0  0  0  0  0  0  0  0  0  0  0  0
    6.8203   -7.2925    3.9841 H   0  0  0  0  0  0  0  0  0  0  0  0
    7.2702   -5.6136    3.9548 H   0  0  0  0  0  0  0  0  0  0  0  0
    5.0216   -6.7213    5.2431 H   0  0  0  0  0  0  0  0  0  0  0  0
    5.4147   -5.0317    5.0889 H   0  0  0  0  0  0  0  0  0  0  0  0
    3.8817   -6.6690    3.0936 H   0  0  0  0  0  0  0  0  0  0  0  0
    2.5055   -6.3508    5.0200 H   0  0  0  0  0  0  0  0  0  0  0  0
    2.5645   -3.3340    4.4148 H   0  0  0  0  0  0  0  0  0  0  0  0
    3.1728   -4.1322    5.8627 H   0  0  0  0  0  0  0  0  0  0  0  0
    1.4750   -4.1360    5.5315 H   0  0  0  0  0  0  0  0  0  0  0  0
  1  2  1  0
  1 24  1  0
  1 25  1  0
  1 26  1  0
  2  3  2  0
  2  4  1  0
  4  5  1  0
  5 19  1  0
  5  6  1  0
  5 27  1  1
  6  7  1  0
  7 21  1  0
  7  8  1  0
  7 28  1  1
  8  9  1  0
  9 23  1  0
  9 10  1  6
  9 11  1  0
 10 29  1  0
 10 30  1  0
 10 31  1  0
 11 12  1  0
 11 32  1  0
 11 33  1  0
 12 13  1  0
 12 34  1  0
 12 35  1  0
 13 21  1  0
 13 14  1  0
 13 36  1  1
 14 15  1  0
 14 16  1  0
 14 37  1  1
 15 38  1  0
 15 39  1  0
 15 40  1  0
 16 17  1  0
 16 41  1  0
 16 42  1  0
 17 18  1  0
 17 43  1  0
 17 44  1  0
 18 19  1  0
 18 21  1  0
 18 45  1  6
 19 20  1  0
 19 46  1  1
 20 47  1  0
 20 48  1  0
 20 49  1  0
 21 22  1  1
 22 23  1  0
M  END
>  <i_m_ct_stereo_status>  (307) 
1

>  <s_m_source_file>  (307) 
/var/tmp/pbs.5076255.sched01/tmpsouvlwkc/11751gt6aqu.sdf

>  <i_m_source_file_index>  (307) 
10

>  <i_lp_mmshare_version>  (307) 
48012

>  <i_f3d_flags>  (307) 
0

>  <s_epik_input>  (307) 
W0NIM11DKD1PKU9bQ0BIXShPW0NASF0xW0NAXTIzNClbQ0BIXShbQ0gzXSlbQ0BASF0zW0NIMl1bQ0gyXVtDQEhdKFtDSDNdKVtDQEhdMltDSDJdW0NIMl1bQ0BdKE8xKShbQ0gzXSlPTzQ=

>  <s_epik_cmdline>  (307) 
J2VwaWtfcHl0aG9uJywgJy1waHQnLCAnMi4wJywgJy1waCcsICc3LjAnLCAnLXRuJywgJzgnLCAnLW1hJywgJzIwMCcsICctaW1hZScsICc8aW5maWxlLm1hZT4nLCAnLW9tYWUnLCAnPG91dGZpbGUubWFlPic=

>  <r_lp_tautomer_probability>  (307) 
1

>  <r_epik_Ionization_Penalty>  (307) 
1.44714e-15

>  <r_epik_Ionization_Penalty_Charging>  (307) 
0

>  <r_epik_Ionization_Penalty_Neutral>  (307) 
1.44714e-15

>  <r_epik_State_Penalty>  (307) 
-0

>  <r_epik_Charging_Adjusted_Penalty>  (307) 
0

>  <i_epik_Tot_Q>  (307) 
0

>  <i_epik_Tot_abs_Q>  (307) 
0

>  <s_epik_Chemistry_Notes>  (307) 
This compound has an ester and may undergo hydrolysis at high or low pH. This compound contains an acetal/aminal-like group ( X-CH(R)-Y where X, Y are N, S, or O) that may be acid/base labile, releasing an aldehyde.

>  <s_lp_Force_Field>  (307) 
OPLS3e

>  <r_lp_Energy>  (307) 
67.9323

>  <b_lp_Chiralities_Consistent>  (307) 
1

>  <s_lp_Variant>  (307) 
95:0-1

>  <s_i_glide_gridfile>  (307) 
pfpi4k_grid

>  <i_i_glide_lignum>  (307) 
10

>  <i_i_glide_rotatable_bonds>  (307) 
2

>  <r_i_docking_score>  (307) 
-3.1533

>  <r_i_glide_ligand_efficiency>  (307) 
-0.1371

>  <r_i_glide_ligand_efficiency_sa>  (307) 
-0.389895

>  <r_i_glide_ligand_efficiency_ln>  (307) 
-0.762498

>  <r_i_glide_gscore>  (307) 
-3.1533

>  <r_i_glide_lipo>  (307) 
-0.196084

>  <r_i_glide_hbond>  (307) 
-0.210559

>  <r_i_glide_metal>  (307) 
-0

>  <r_i_glide_rewards>  (307) 
-1.18374

>  <r_i_glide_evdw>  (307) 
-20.4503

>  <r_i_glide_ecoul>  (307) 
-4.1778

>  <r_i_glide_erotb>  (307) 
0.176049

>  <r_i_glide_esite>  (307) 
-0.0897871

>  <r_i_glide_emodel>  (307) 
-29.9404

>  <r_i_glide_energy>  (307) 
-24.6281

>  <r_i_glide_einternal>  (307) 
0.00408885

>  <r_i_glide_intrahb_reward>  (307) 
-0

>  <i_i_glide_confnum>  (307) 
3

>  <i_i_glide_posenum>  (307) 
4

>  <r_i_glide_eff_state_penalty>  (307) 
0

>  <ligand_id>  (307) 
95

>  <original_smiles>  (307) 
CC(=O)OC1OC2OC3(C)CCC4C(C)CCC(C1C)C24OO3

>  <smiles>  (307) 
[H]C([H])([H])C(=O)OC1([H])OC2([H])OC3(C([H])([H])[H])OOC24C([H])(C([H])([H])C([H])([H])C([H])(C([H])([H])[H])C4([H])C([H])([H])C3([H])[H])C1([H])C([H])([H])[H]

$$$$
95:0:2
     RDKit          3D

 49 52  0  0  1  0  0  0  0  0999 V2000
    3.4182   -2.3094   -1.2426 C   0  0  0  0  0  0  0  0  0  0  0  0
    3.6959   -3.7065   -0.6883 C   0  0  0  0  0  0  0  0  0  0  0  0
    4.7523   -4.2820   -0.9452 O   0  0  0  0  0  0  0  0  0  0  0  0
    2.6666   -4.1685    0.0772 O   0  0  0  0  0  0  0  0  0  0  0  0
    2.7730   -5.4848    0.5898 C   0  0  2  0  0  0  0  0  0  0  0  0
    1.4792   -5.8508    1.0972 O   0  0  0  0  0  0  0  0  0  0  0  0
    1.5383   -6.9174    1.9972 C   0  0  2  0  0  0  0  0  0  0  0  0
    0.3620   -7.6269    2.1610 O   0  0  0  0  0  0  0  0  0  0  0  0
    0.4596   -8.5281    3.2650 C   0  0  2  0  0  0  0  0  0  0  0  0
   -0.1648   -9.8631    2.8633 C   0  0  0  0  0  0  0  0  0  0  0  0
   -0.3966   -7.9154    4.3796 C   0  0  0  0  0  0  0  0  0  0  0  0
   -0.1842   -6.4080    4.5001 C   0  0  0  0  0  0  0  0  0  0  0  0
    1.3098   -6.1075    4.6253 C   0  0  2  0  0  0  0  0  0  0  0  0
    1.6699   -4.7345    5.2593 C   0  0  1  0  0  0  0  0  0  0  0  0
    0.9688   -4.5150    6.6112 C   0  0  0  0  0  0  0  0  0  0  0  0
    3.2045   -4.5978    5.4605 C   0  0  0  0  0  0  0  0  0  0  0  0
    4.0581   -4.9963    4.2344 C   0  0  0  0  0  0  0  0  0  0  0  0
    3.1784   -5.3557    3.0399 C   0  0  1  0  0  0  0  0  0  0  0  0
    3.8769   -5.5684    1.6911 C   0  0  1  0  0  0  0  0  0  0  0  0
    4.7083   -6.8703    1.5950 C   0  0  0  0  0  0  0  0  0  0  0  0
    2.1829   -6.4943    3.3627 C   0  0  2  0  0  0  0  0  0  0  0  0
    2.8032   -7.6916    3.7711 O   0  0  0  0  0  0  0  0  0  0  0  0
    1.8067   -8.8769    3.6794 O   0  0  0  0  0  0  0  0  0  0  0  0
    3.1236   -1.6331   -0.4413 H   0  0  0  0  0  0  0  0  0  0  0  0
    2.6067   -2.3471   -1.9678 H   0  0  0  0  0  0  0  0  0  0  0  0
    4.3036   -1.9044   -1.7343 H   0  0  0  0  0  0  0  0  0  0  0  0
    2.9850   -6.1424   -0.2468 H   0  0  0  0  0  0  0  0  0  0  0  0
    2.1709   -7.6612    1.4966 H   0  0  0  0  0  0  0  0  0  0  0  0
    0.4070  -10.3491    2.0686 H   0  0  0  0  0  0  0  0  0  0  0  0
   -1.1885   -9.7429    2.5102 H   0  0  0  0  0  0  0  0  0  0  0  0
   -0.1829  -10.5585    3.7062 H   0  0  0  0  0  0  0  0  0  0  0  0
   -1.4534   -8.0741    4.1728 H   0  0  0  0  0  0  0  0  0  0  0  0
   -0.1846   -8.4143    5.3258 H   0  0  0  0  0  0  0  0  0  0  0  0
   -0.5895   -5.8777    3.6415 H   0  0  0  0  0  0  0  0  0  0  0  0
   -0.7553   -6.0880    5.3692 H   0  0  0  0  0  0  0  0  0  0  0  0
    1.6320   -6.7805    5.4205 H   0  0  0  0  0  0  0  0  0  0  0  0
    1.3343   -3.9448    4.5906 H   0  0  0  0  0  0  0  0  0  0  0  0
    1.1683   -5.3389    7.2975 H   0  0  0  0  0  0  0  0  0  0  0  0
   -0.1154   -4.4288    6.5127 H   0  0  0  0  0  0  0  0  0  0  0  0
    1.3156   -3.5999    7.1065 H   0  0  0  0  0  0  0  0  0  0  0  0
    3.4412   -3.5706    5.7411 H   0  0  0  0  0  0  0  0  0  0  0  0
    3.5227   -5.2135    6.3023 H   0  0  0  0  0  0  0  0  0  0  0  0
    4.7328   -4.1771    3.9802 H   0  0  0  0  0  0  0  0  0  0  0  0
    4.6966   -5.8420    4.4891 H   0  0  0  0  0  0  0  0  0  0  0  0
    2.5974   -4.4519    2.8548 H   0  0  0  0  0  0  0  0  0  0  0  0
    4.5894   -4.7531    1.5842 H   0  0  0  0  0  0  0  0  0  0  0  0
    4.1199   -7.7824    1.7598 H   0  0  0  0  0  0  0  0  0  0  0  0
    5.5268   -6.8714    2.3124 H   0  0  0  0  0  0  0  0  0  0  0  0
    5.1811   -6.9788    0.6140 H   0  0  0  0  0  0  0  0  0  0  0  0
  1  2  1  0
  1 24  1  0
  1 25  1  0
  1 26  1  0
  2  3  2  0
  2  4  1  0
  4  5  1  0
  5 19  1  0
  5  6  1  0
  5 27  1  6
  6  7  1  0
  7 21  1  0
  7  8  1  0
  7 28  1  6
  8  9  1  0
  9 23  1  0
  9 10  1  6
  9 11  1  0
 10 29  1  0
 10 30  1  0
 10 31  1  0
 11 12  1  0
 11 32  1  0
 11 33  1  0
 12 13  1  0
 12 34  1  0
 12 35  1  0
 13 21  1  0
 13 14  1  0
 13 36  1  1
 14 15  1  0
 14 16  1  0
 14 37  1  6
 15 38  1  0
 15 39  1  0
 15 40  1  0
 16 17  1  0
 16 41  1  0
 16 42  1  0
 17 18  1  0
 17 43  1  0
 17 44  1  0
 18 19  1  0
 18 21  1  0
 18 45  1  6
 19 20  1  0
 19 46  1  6
 20 47  1  0
 20 48  1  0
 20 49  1  0
 21 22  1  1
 22 23  1  0
M  END
>  <i_m_ct_stereo_status>  (308) 
1

>  <s_m_source_file>  (308) 
/var/tmp/pbs.5076255.sched01/tmpsouvlwkc/11751gt6aqu.sdf

>  <i_m_source_file_index>  (308) 
10

>  <i_lp_mmshare_version>  (308) 
48012

>  <i_f3d_flags>  (308) 
0

>  <s_epik_input>  (308) 
W0NIM11DKD1PKU9bQ0BIXShPW0NASF0xW0NAXTIzNClbQ0BIXShbQ0gzXSlbQ0BASF0zW0NIMl1bQ0gyXVtDQEhdKFtDSDNdKVtDQEhdMltDSDJdW0NIMl1bQ0BdKE8xKShbQ0gzXSlPTzQ=

>  <s_epik_cmdline>  (308) 
J2VwaWtfcHl0aG9uJywgJy1waHQnLCAnMi4wJywgJy1waCcsICc3LjAnLCAnLXRuJywgJzgnLCAnLW1hJywgJzIwMCcsICctaW1hZScsICc8aW5maWxlLm1hZT4nLCAnLW9tYWUnLCAnPG91dGZpbGUubWFlPic=

>  <r_lp_tautomer_probability>  (308) 
1

>  <r_epik_Ionization_Penalty>  (308) 
1.44714e-15

>  <r_epik_Ionization_Penalty_Charging>  (308) 
0

>  <r_epik_Ionization_Penalty_Neutral>  (308) 
1.44714e-15

>  <r_epik_State_Penalty>  (308) 
-0

>  <r_epik_Charging_Adjusted_Penalty>  (308) 
0

>  <i_epik_Tot_Q>  (308) 
0

>  <i_epik_Tot_abs_Q>  (308) 
0

>  <s_epik_Chemistry_Notes>  (308) 
This compound has an ester and may undergo hydrolysis at high or low pH. This compound contains an acetal/aminal-like group ( X-CH(R)-Y where X, Y are N, S, or O) that may be acid/base labile, releasing an aldehyde.

>  <s_lp_Force_Field>  (308) 
OPLS3e

>  <r_lp_Energy>  (308) 
67.9323

>  <b_lp_Chiralities_Consistent>  (308) 
1

>  <s_lp_Variant>  (308) 
95:0-1

>  <s_i_glide_gridfile>  (308) 
pfpi4k_grid

>  <i_i_glide_lignum>  (308) 
10

>  <i_i_glide_rotatable_bonds>  (308) 
2

>  <r_i_docking_score>  (308) 
-2.83247

>  <r_i_glide_ligand_efficiency>  (308) 
-0.123151

>  <r_i_glide_ligand_efficiency_sa>  (308) 
-0.350225

>  <r_i_glide_ligand_efficiency_ln>  (308) 
-0.684918

>  <r_i_glide_gscore>  (308) 
-2.83247

>  <r_i_glide_lipo>  (308) 
-0.0857481

>  <r_i_glide_hbond>  (308) 
-0.145511

>  <r_i_glide_metal>  (308) 
-0

>  <r_i_glide_rewards>  (308) 
-1.18374

>  <r_i_glide_evdw>  (308) 
-22.9904

>  <r_i_glide_ecoul>  (308) 
-2.31654

>  <r_i_glide_erotb>  (308) 
0.176049

>  <r_i_glide_esite>  (308) 
-0.0965203

>  <r_i_glide_emodel>  (308) 
-28.4821

>  <r_i_glide_energy>  (308) 
-25.307

>  <r_i_glide_einternal>  (308) 
2.67132

>  <r_i_glide_intrahb_reward>  (308) 
-0

>  <i_i_glide_confnum>  (308) 
3

>  <i_i_glide_posenum>  (308) 
25

>  <r_i_glide_eff_state_penalty>  (308) 
0

>  <ligand_id>  (308) 
95

>  <original_smiles>  (308) 
CC(=O)OC1OC2OC3(C)CCC4C(C)CCC(C1C)C24OO3

>  <smiles>  (308) 
[H]C([H])([H])C(=O)OC1([H])OC2([H])OC3(C([H])([H])[H])OOC24C([H])(C([H])([H])C([H])([H])C([H])(C([H])([H])[H])C4([H])C([H])([H])C3([H])[H])C1([H])C([H])([H])[H]

$$$$
96:0:0
     RDKit          3D

 32 34  0  0  1  0  0  0  0  0999 V2000
    2.1280   -3.0144   -3.2756 C   0  0  0  0  0  0  0  0  0  0  0  0
    2.6254   -1.9848   -2.3360 N   0  0  0  0  0  0  0  0  0  0  0  0
    3.6468   -2.4178   -1.3489 C   0  0  2  0  0  0  0  0  0  0  0  0
    4.0967   -1.1829   -0.5201 C   0  0  0  0  0  0  0  0  0  0  0  0
    5.1467   -1.5981    0.5337 C   0  0  1  0  0  0  0  0  0  0  0  0
    4.5302   -2.6451    1.4845 C   0  0  0  0  0  0  0  0  0  0  0  0
    4.1080   -3.8844    0.6688 C   0  0  2  0  0  0  0  0  0  0  0  0
    5.3264   -4.4898   -0.0599 C   0  0  0  0  0  0  0  0  0  0  0  0
    5.9452   -3.4299   -0.9938 C   0  0  2  0  0  0  0  0  0  0  0  0
    6.3789   -2.2023   -0.1694 C   0  0  0  0  0  0  0  0  0  0  0  0
    4.9035   -3.0100   -2.0468 C   0  0  0  0  0  0  0  0  0  0  0  0
    3.0531   -3.4680   -0.3703 C   0  0  0  0  0  0  0  0  0  0  0  0
    1.3891   -2.5883   -3.9515 H   0  0  0  0  0  0  0  0  0  0  0  0
    1.6589   -3.8361   -2.7370 H   0  0  0  0  0  0  0  0  0  0  0  0
    2.9212   -3.4222   -3.9017 H   0  0  0  0  0  0  0  0  0  0  0  0
    3.0138   -1.2242   -2.8730 H   0  0  0  0  0  0  0  0  0  0  0  0
    4.5187   -0.4134   -1.1687 H   0  0  0  0  0  0  0  0  0  0  0  0
    3.2425   -0.7234   -0.0194 H   0  0  0  0  0  0  0  0  0  0  0  0
    5.4554   -0.7234    1.1099 H   0  0  0  0  0  0  0  0  0  0  0  0
    5.2422   -2.9256    2.2630 H   0  0  0  0  0  0  0  0  0  0  0  0
    3.6638   -2.2191    1.9933 H   0  0  0  0  0  0  0  0  0  0  0  0
    3.6788   -4.6299    1.3387 H   0  0  0  0  0  0  0  0  0  0  0  0
    6.0676   -4.8412    0.6589 H   0  0  0  0  0  0  0  0  0  0  0  0
    5.0189   -5.3646   -0.6386 H   0  0  0  0  0  0  0  0  0  0  0  0
    6.8129   -3.8512   -1.4990 H   0  0  0  0  0  0  0  0  0  0  0  0
    6.8351   -1.4580   -0.8181 H   0  0  0  0  0  0  0  0  0  0  0  0
    7.1389   -2.4879    0.5616 H   0  0  0  0  0  0  0  0  0  0  0  0
    4.6577   -3.8922   -2.6365 H   0  0  0  0  0  0  0  0  0  0  0  0
    5.3364   -2.2832   -2.7357 H   0  0  0  0  0  0  0  0  0  0  0  0
    2.1763   -3.0613    0.1328 H   0  0  0  0  0  0  0  0  0  0  0  0
    2.7259   -4.3627   -0.8955 H   0  0  0  0  0  0  0  0  0  0  0  0
    1.8461   -1.5958   -1.7938 H   0  0  0  0  0  0  0  0  0  0  0  0
  1  2  1  0
  1 13  1  0
  1 14  1  0
  1 15  1  0
  3  2  1  6
  2 16  1  0
  2 32  1  0
  3 11  1  0
  3 12  1  0
  3  4  1  0
  4  5  1  0
  4 17  1  0
  4 18  1  0
  5 10  1  0
  5  6  1  0
  5 19  1  1
  6  7  1  0
  6 20  1  0
  6 21  1  0
  7  8  1  0
  7 12  1  0
  7 22  1  1
  8  9  1  0
  8 23  1  0
  8 24  1  0
  9 10  1  0
  9 11  1  0
  9 25  1  6
 10 26  1  0
 10 27  1  0
 11 28  1  0
 11 29  1  0
 12 30  1  0
 12 31  1  0
M  CHG  1   2   1
M  END
>  <i_m_ct_stereo_status>  (309) 
1

>  <s_m_source_file>  (309) 
/var/tmp/pbs.5076255.sched01/tmpsouvlwkc/11751gt6aqu.sdf

>  <i_m_source_file_index>  (309) 
11

>  <i_lp_mmshare_version>  (309) 
48012

>  <i_f3d_flags>  (309) 
0

>  <s_epik_input>  (309) 
W0NIM11bTkhdQzEyW0NIMl1bQ0BASF0zW0NIMl1bQ0BIXShbQ0gyXTIpW0NIMl1bQ0BASF0oW0NIMl0zKVtDSDJdMQ==

>  <s_epik_cmdline>  (309) 
J2VwaWtfcHl0aG9uJywgJy1waHQnLCAnMi4wJywgJy1waCcsICc3LjAnLCAnLXRuJywgJzgnLCAnLW1hJywgJzIwMCcsICctaW1hZScsICc8aW5maWxlLm1hZT4nLCAnLW9tYWUnLCAnPG91dGZpbGUubWFlPic=

>  <r_lp_tautomer_probability>  (309) 
1

>  <r_epik_Ionization_Penalty>  (309) 
5.08465e-05

>  <r_epik_Ionization_Penalty_Charging>  (309) 
5.08465e-05

>  <r_epik_Ionization_Penalty_Neutral>  (309) 
0

>  <r_epik_State_Penalty>  (309) 
-0

>  <r_epik_Charging_Adjusted_Penalty>  (309) 
5.08465e-05

>  <i_epik_Tot_Q>  (309) 
1

>  <i_epik_Tot_abs_Q>  (309) 
1

>  <s_lp_Force_Field>  (309) 
OPLS3e

>  <r_lp_Energy>  (309) 
10.7166

>  <b_lp_Chiralities_Consistent>  (309) 
1

>  <s_lp_Variant>  (309) 
96:0-1

>  <s_i_glide_gridfile>  (309) 
pfpi4k_grid

>  <i_i_glide_lignum>  (309) 
11

>  <i_i_glide_rotatable_bonds>  (309) 
1

>  <r_i_docking_score>  (309) 
-4.6359

>  <r_i_glide_ligand_efficiency>  (309) 
-0.386325

>  <r_i_glide_ligand_efficiency_sa>  (309) 
-0.884463

>  <r_i_glide_ligand_efficiency_ln>  (309) 
-1.33028

>  <r_i_glide_gscore>  (309) 
-4.6359

>  <r_i_glide_lipo>  (309) 
-0.557203

>  <r_i_glide_hbond>  (309) 
-0.2

>  <r_i_glide_metal>  (309) 
-0

>  <r_i_glide_rewards>  (309) 
-2.25

>  <r_i_glide_evdw>  (309) 
-11.9396

>  <r_i_glide_ecoul>  (309) 
-6.41218

>  <r_i_glide_erotb>  (309) 
0

>  <r_i_glide_esite>  (309) 
-0.0698892

>  <r_i_glide_emodel>  (309) 
-25.2973

>  <r_i_glide_energy>  (309) 
-18.3518

>  <r_i_glide_einternal>  (309) 
0.064373

>  <r_i_glide_intrahb_reward>  (309) 
-0

>  <i_i_glide_confnum>  (309) 
1

>  <i_i_glide_posenum>  (309) 
31

>  <r_i_glide_eff_state_penalty>  (309) 
0

>  <ligand_id>  (309) 
96

>  <original_smiles>  (309) 
CNC12CC3CC(CC(C3)C1)C2

>  <smiles>  (309) 
[H]C1([H])C2([H])C([H])([H])C3([H])C([H])([H])C1([H])C([H])([H])C([N+]([H])([H])C([H])([H])[H])(C2([H])[H])C3([H])[H]

$$$$
96:0:1
     RDKit          3D

 32 34  0  0  1  0  0  0  0  0999 V2000
    2.9413   -2.2364   -3.2778 C   0  0  0  0  0  0  0  0  0  0  0  0
    3.0198   -1.4514   -2.0244 N   0  0  0  0  0  0  0  0  0  0  0  0
    3.9689   -1.8977   -0.9899 C   0  0  2  0  0  0  0  0  0  0  0  0
    5.4344   -1.6964   -1.4597 C   0  0  0  0  0  0  0  0  0  0  0  0
    6.4113   -2.1301   -0.3503 C   0  0  1  0  0  0  0  0  0  0  0  0
    6.1766   -1.2662    0.9032 C   0  0  0  0  0  0  0  0  0  0  0  0
    4.7300   -1.4689    1.4012 C   0  0  2  0  0  0  0  0  0  0  0  0
    4.4922   -2.9553    1.7475 C   0  0  0  0  0  0  0  0  0  0  0  0
    4.7291   -3.8123    0.4922 C   0  0  2  0  0  0  0  0  0  0  0  0
    6.1745   -3.6170   -0.0089 C   0  0  0  0  0  0  0  0  0  0  0  0
    3.7469   -3.3909   -0.6125 C   0  0  0  0  0  0  0  0  0  0  0  0
    3.7505   -1.0407    0.2906 C   0  0  0  0  0  0  0  0  0  0  0  0
    2.2133   -1.7977   -3.9534 H   0  0  0  0  0  0  0  0  0  0  0  0
    2.6227   -3.2616   -3.1048 H   0  0  0  0  0  0  0  0  0  0  0  0
    3.8961   -2.2545   -3.7949 H   0  0  0  0  0  0  0  0  0  0  0  0
    3.2128   -0.4881   -2.2555 H   0  0  0  0  0  0  0  0  0  0  0  0
    5.6445   -2.2794   -2.3546 H   0  0  0  0  0  0  0  0  0  0  0  0
    5.5978   -0.6502   -1.7236 H   0  0  0  0  0  0  0  0  0  0  0  0
    7.4372   -2.0044   -0.6960 H   0  0  0  0  0  0  0  0  0  0  0  0
    6.8934   -1.5242    1.6850 H   0  0  0  0  0  0  0  0  0  0  0  0
    6.3403   -0.2146    0.6651 H   0  0  0  0  0  0  0  0  0  0  0  0
    4.5706   -0.8649    2.2957 H   0  0  0  0  0  0  0  0  0  0  0  0
    5.1556   -3.2797    2.5528 H   0  0  0  0  0  0  0  0  0  0  0  0
    3.4714   -3.0960    2.1069 H   0  0  0  0  0  0  0  0  0  0  0  0
    4.5677   -4.8651    0.7296 H   0  0  0  0  0  0  0  0  0  0  0  0
    6.3470   -4.2357   -0.8887 H   0  0  0  0  0  0  0  0  0  0  0  0
    6.8850   -3.9483    0.7499 H   0  0  0  0  0  0  0  0  0  0  0  0
    2.7174   -3.5514   -0.2893 H   0  0  0  0  0  0  0  0  0  0  0  0
    3.9141   -4.0468   -1.4649 H   0  0  0  0  0  0  0  0  0  0  0  0
    3.8984    0.0199    0.0856 H   0  0  0  0  0  0  0  0  0  0  0  0
    2.7280   -1.1382    0.6571 H   0  0  0  0  0  0  0  0  0  0  0  0
    2.0807   -1.4416   -1.5960 H   0  0  0  0  0  0  0  0  0  0  0  0
  1  2  1  0
  1 13  1  0
  1 14  1  0
  1 15  1  0
  3  2  1  6
  2 16  1  0
  2 32  1  0
  3 11  1  0
  3 12  1  0
  3  4  1  0
  4  5  1  0
  4 17  1  0
  4 18  1  0
  5 10  1  0
  5  6  1  0
  5 19  1  6
  6  7  1  0
  6 20  1  0
  6 21  1  0
  7  8  1  0
  7 12  1  0
  7 22  1  1
  8  9  1  0
  8 23  1  0
  8 24  1  0
  9 10  1  0
  9 11  1  0
  9 25  1  1
 10 26  1  0
 10 27  1  0
 11 28  1  0
 11 29  1  0
 12 30  1  0
 12 31  1  0
M  CHG  1   2   1
M  END
>  <i_m_ct_stereo_status>  (310) 
1

>  <s_m_source_file>  (310) 
/var/tmp/pbs.5076255.sched01/tmpsouvlwkc/11751gt6aqu.sdf

>  <i_m_source_file_index>  (310) 
11

>  <i_lp_mmshare_version>  (310) 
48012

>  <i_f3d_flags>  (310) 
0

>  <s_epik_input>  (310) 
W0NIM11bTkhdQzEyW0NIMl1bQ0BASF0zW0NIMl1bQ0BIXShbQ0gyXTIpW0NIMl1bQ0BASF0oW0NIMl0zKVtDSDJdMQ==

>  <s_epik_cmdline>  (310) 
J2VwaWtfcHl0aG9uJywgJy1waHQnLCAnMi4wJywgJy1waCcsICc3LjAnLCAnLXRuJywgJzgnLCAnLW1hJywgJzIwMCcsICctaW1hZScsICc8aW5maWxlLm1hZT4nLCAnLW9tYWUnLCAnPG91dGZpbGUubWFlPic=

>  <r_lp_tautomer_probability>  (310) 
1

>  <r_epik_Ionization_Penalty>  (310) 
5.08465e-05

>  <r_epik_Ionization_Penalty_Charging>  (310) 
5.08465e-05

>  <r_epik_Ionization_Penalty_Neutral>  (310) 
0

>  <r_epik_State_Penalty>  (310) 
-0

>  <r_epik_Charging_Adjusted_Penalty>  (310) 
5.08465e-05

>  <i_epik_Tot_Q>  (310) 
1

>  <i_epik_Tot_abs_Q>  (310) 
1

>  <s_lp_Force_Field>  (310) 
OPLS3e

>  <r_lp_Energy>  (310) 
10.7166

>  <b_lp_Chiralities_Consistent>  (310) 
1

>  <s_lp_Variant>  (310) 
96:0-1

>  <s_i_glide_gridfile>  (310) 
pfpi4k_grid

>  <i_i_glide_lignum>  (310) 
11

>  <i_i_glide_rotatable_bonds>  (310) 
1

>  <r_i_docking_score>  (310) 
-4.58279

>  <r_i_glide_ligand_efficiency>  (310) 
-0.381899

>  <r_i_glide_ligand_efficiency_sa>  (310) 
-0.874331

>  <r_i_glide_ligand_efficiency_ln>  (310) 
-1.31504

>  <r_i_glide_gscore>  (310) 
-4.58279

>  <r_i_glide_lipo>  (310) 
-0.482888

>  <r_i_glide_hbond>  (310) 
-0.2

>  <r_i_glide_metal>  (310) 
-0

>  <r_i_glide_rewards>  (310) 
-2.25

>  <r_i_glide_evdw>  (310) 
-11.2555

>  <r_i_glide_ecoul>  (310) 
-6.60233

>  <r_i_glide_erotb>  (310) 
0

>  <r_i_glide_esite>  (310) 
-0.0967792

>  <r_i_glide_emodel>  (310) 
-24.6913

>  <r_i_glide_energy>  (310) 
-17.8578

>  <r_i_glide_einternal>  (310) 
0.16036

>  <r_i_glide_intrahb_reward>  (310) 
-0

>  <i_i_glide_confnum>  (310) 
1

>  <i_i_glide_posenum>  (310) 
32

>  <r_i_glide_eff_state_penalty>  (310) 
0

>  <ligand_id>  (310) 
96

>  <original_smiles>  (310) 
CNC12CC3CC(CC(C3)C1)C2

>  <smiles>  (310) 
[H]C1([H])C2([H])C([H])([H])C3([H])C([H])([H])C1([H])C([H])([H])C([N+]([H])([H])C([H])([H])[H])(C2([H])[H])C3([H])[H]

$$$$
96:0:2
     RDKit          3D

 32 34  0  0  1  0  0  0  0  0999 V2000
    3.1808   -1.1045   -3.7981 C   0  0  0  0  0  0  0  0  0  0  0  0
    3.0145   -1.0904   -2.3564 N   0  0  0  0  0  0  0  0  0  0  0  0
    3.9068   -1.9593   -1.5364 C   0  0  2  0  0  0  0  0  0  0  0  0
    5.2807   -1.2676   -1.3397 C   0  0  0  0  0  0  0  0  0  0  0  0
    6.1946   -2.1447   -0.4608 C   0  0  1  0  0  0  0  0  0  0  0  0
    5.5436   -2.3418    0.9230 C   0  0  0  0  0  0  0  0  0  0  0  0
    4.1823   -3.0468    0.7551 C   0  0  2  0  0  0  0  0  0  0  0  0
    4.3724   -4.4194    0.0797 C   0  0  0  0  0  0  0  0  0  0  0  0
    5.0217   -4.2173   -1.2965 C   0  0  2  0  0  0  0  0  0  0  0  0
    6.3899   -3.5159   -1.1368 C   0  0  0  0  0  0  0  0  0  0  0  0
    4.1171   -3.3562   -2.1763 C   0  0  0  0  0  0  0  0  0  0  0  0
    3.2705   -2.1728   -0.1285 C   0  0  0  0  0  0  0  0  0  0  0  0
    2.4827   -0.4122   -4.2794 H   0  0  0  0  0  0  0  0  0  0  0  0
    2.9864   -2.0906   -4.2425 H   0  0  0  0  0  0  0  0  0  0  0  0
    4.1961   -0.7957   -4.0866 H   0  0  0  0  0  0  0  0  0  0  0  0
    3.1011   -0.1503   -2.0064 H   0  0  0  0  0  0  0  0  0  0  0  0
    5.7536   -1.0946   -2.3033 H   0  0  0  0  0  0  0  0  0  0  0  0
    5.1464   -0.2892   -0.8748 H   0  0  0  0  0  0  0  0  0  0  0  0
    7.1610   -1.6591   -0.3289 H   0  0  0  0  0  0  0  0  0  0  0  0
    6.1970   -2.9306    1.5706 H   0  0  0  0  0  0  0  0  0  0  0  0
    5.4056   -1.3755    1.4123 H   0  0  0  0  0  0  0  0  0  0  0  0
    3.7231   -3.1899    1.7358 H   0  0  0  0  0  0  0  0  0  0  0  0
    4.9940   -5.0763    0.6946 H   0  0  0  0  0  0  0  0  0  0  0  0
    3.4090   -4.9205   -0.0400 H   0  0  0  0  0  0  0  0  0  0  0  0
    5.1323   -5.1863   -1.7742 H   0  0  0  0  0  0  0  0  0  0  0  0
    6.8684   -3.3936   -2.1121 H   0  0  0  0  0  0  0  0  0  0  0  0
    7.0628   -4.1333   -0.5359 H   0  0  0  0  0  0  0  0  0  0  0  0
    3.1586   -3.8553   -2.3324 H   0  0  0  0  0  0  0  0  0  0  0  0
    4.5991   -3.2891   -3.1517 H   0  0  0  0  0  0  0  0  0  0  0  0
    3.0850   -1.2162    0.3683 H   0  0  0  0  0  0  0  0  0  0  0  0
    2.2944   -2.6568   -0.2170 H   0  0  0  0  0  0  0  0  0  0  0  0
    2.0655   -1.3699   -2.1039 H   0  0  0  0  0  0  0  0  0  0  0  0
  1  2  1  0
  1 13  1  0
  1 14  1  0
  1 15  1  0
  3  2  1  6
  2 16  1  0
  2 32  1  0
  3 11  1  0
  3 12  1  0
  3  4  1  0
  4  5  1  0
  4 17  1  0
  4 18  1  0
  5 10  1  0
  5  6  1  0
  5 19  1  1
  6  7  1  0
  6 20  1  0
  6 21  1  0
  7  8  1  0
  7 12  1  0
  7 22  1  1
  8  9  1  0
  8 23  1  0
  8 24  1  0
  9 10  1  0
  9 11  1  0
  9 25  1  6
 10 26  1  0
 10 27  1  0
 11 28  1  0
 11 29  1  0
 12 30  1  0
 12 31  1  0
M  CHG  1   2   1
M  END
>  <i_m_ct_stereo_status>  (311) 
1

>  <s_m_source_file>  (311) 
/var/tmp/pbs.5076255.sched01/tmpsouvlwkc/11751gt6aqu.sdf

>  <i_m_source_file_index>  (311) 
11

>  <i_lp_mmshare_version>  (311) 
48012

>  <i_f3d_flags>  (311) 
0

>  <s_epik_input>  (311) 
W0NIM11bTkhdQzEyW0NIMl1bQ0BASF0zW0NIMl1bQ0BIXShbQ0gyXTIpW0NIMl1bQ0BASF0oW0NIMl0zKVtDSDJdMQ==

>  <s_epik_cmdline>  (311) 
J2VwaWtfcHl0aG9uJywgJy1waHQnLCAnMi4wJywgJy1waCcsICc3LjAnLCAnLXRuJywgJzgnLCAnLW1hJywgJzIwMCcsICctaW1hZScsICc8aW5maWxlLm1hZT4nLCAnLW9tYWUnLCAnPG91dGZpbGUubWFlPic=

>  <r_lp_tautomer_probability>  (311) 
1

>  <r_epik_Ionization_Penalty>  (311) 
5.08465e-05

>  <r_epik_Ionization_Penalty_Charging>  (311) 
5.08465e-05

>  <r_epik_Ionization_Penalty_Neutral>  (311) 
0

>  <r_epik_State_Penalty>  (311) 
-0

>  <r_epik_Charging_Adjusted_Penalty>  (311) 
5.08465e-05

>  <i_epik_Tot_Q>  (311) 
1

>  <i_epik_Tot_abs_Q>  (311) 
1

>  <s_lp_Force_Field>  (311) 
OPLS3e

>  <r_lp_Energy>  (311) 
10.7166

>  <b_lp_Chiralities_Consistent>  (311) 
1

>  <s_lp_Variant>  (311) 
96:0-1

>  <s_i_glide_gridfile>  (311) 
pfpi4k_grid

>  <i_i_glide_lignum>  (311) 
11

>  <i_i_glide_rotatable_bonds>  (311) 
1

>  <r_i_docking_score>  (311) 
-4.06212

>  <r_i_glide_ligand_efficiency>  (311) 
-0.33851

>  <r_i_glide_ligand_efficiency_sa>  (311) 
-0.774994

>  <r_i_glide_ligand_efficiency_ln>  (311) 
-1.16563

>  <r_i_glide_gscore>  (311) 
-4.06212

>  <r_i_glide_lipo>  (311) 
-0.381952

>  <r_i_glide_hbond>  (311) 
-0.165273

>  <r_i_glide_metal>  (311) 
-0

>  <r_i_glide_rewards>  (311) 
-2.25

>  <r_i_glide_evdw>  (311) 
-12.4082

>  <r_i_glide_ecoul>  (311) 
-3.81213

>  <r_i_glide_erotb>  (311) 
0

>  <r_i_glide_esite>  (311) 
-0.0726651

>  <r_i_glide_emodel>  (311) 
-21.8178

>  <r_i_glide_energy>  (311) 
-16.2203

>  <r_i_glide_einternal>  (311) 
0.821432

>  <r_i_glide_intrahb_reward>  (311) 
-0

>  <i_i_glide_confnum>  (311) 
1

>  <i_i_glide_posenum>  (311) 
1

>  <r_i_glide_eff_state_penalty>  (311) 
0

>  <ligand_id>  (311) 
96

>  <original_smiles>  (311) 
CNC12CC3CC(CC(C3)C1)C2

>  <smiles>  (311) 
[H]C1([H])C2([H])C([H])([H])C3([H])C([H])([H])C1([H])C([H])([H])C([N+]([H])([H])C([H])([H])[H])(C2([H])[H])C3([H])[H]

$$$$
97:0:0
     RDKit          3D

 21 23  0  0  1  0  0  0  0  0999 V2000
   -1.3842   -8.2083    4.1208 C   0  0  0  0  0  0  0  0  0  0  0  0
   -0.8337   -8.4878    2.8675 C   0  0  0  0  0  0  0  0  0  0  0  0
    0.1246   -7.5892    2.4054 C   0  0  0  0  0  0  0  0  0  0  0  0
    0.9034   -7.4498    1.2696 N   0  0  0  0  0  0  0  0  0  0  0  0
    1.6940   -6.3247    1.2564 N   0  0  0  0  0  0  0  0  0  0  0  0
    1.4783   -5.7462    2.4292 C   0  0  0  0  0  0  0  0  0  0  0  0
    0.5103   -6.4653    3.1632 C   0  0  0  0  0  0  0  0  0  0  0  0
   -0.0851   -6.2456    4.4412 C   0  0  0  0  0  0  0  0  0  0  0  0
    0.1693   -5.1196    5.3723 C   0  0  0  0  0  0  0  0  0  0  0  0
   -0.5479   -4.8441    6.5782 C   0  0  0  0  0  0  0  0  0  0  0  0
   -0.1052   -3.7531    7.1858 N   0  0  0  0  0  0  0  0  0  0  0  0
    0.9056   -3.3322    6.4005 N   0  0  0  0  0  0  0  0  0  0  0  0
    1.0999   -4.1220    5.2906 C   0  0  0  0  0  0  0  0  0  0  0  0
   -1.0285   -7.1274    4.8563 N   0  0  0  0  0  0  0  0  0  0  0  0
    0.9016   -8.1076    0.4991 H   0  0  0  0  0  0  0  0  0  0  0  0
    1.4559   -2.5197    6.6398 H   0  0  0  0  0  0  0  0  0  0  0  0
   -2.1333   -8.8546    4.5432 H   0  0  0  0  0  0  0  0  0  0  0  0
   -1.1269   -9.3537    2.2928 H   0  0  0  0  0  0  0  0  0  0  0  0
    1.9654   -4.8297    2.7292 H   0  0  0  0  0  0  0  0  0  0  0  0
   -1.3721   -5.3791    7.0285 H   0  0  0  0  0  0  0  0  0  0  0  0
    1.8705   -3.8994    4.5711 H   0  0  0  0  0  0  0  0  0  0  0  0
  1 14  2  0
  1  2  1  0
  1 17  1  0
  2  3  2  0
  2 18  1  0
  3  7  1  0
  3  4  1  0
  4 15  1  0
  4  5  1  0
  5  6  2  0
  6  7  1  0
  6 19  1  0
  7  8  2  0
  8  9  1  0
  8 14  1  0
  9 13  2  0
  9 10  1  0
 10 11  2  0
 10 20  1  0
 11 12  1  0
 12 16  1  0
 12 13  1  0
 13 21  1  0
M  END
>  <i_m_ct_stereo_status>  (312) 
1

>  <s_m_source_file>  (312) 
/var/tmp/pbs.5076255.sched01/tmpsouvlwkc/11751gt6aqu.sdf

>  <i_m_source_file_index>  (312) 
12

>  <i_lp_mmshare_version>  (312) 
48012

>  <i_f3d_flags>  (312) 
0

>  <s_epik_input>  (312) 
W25IXTFuW2NIXWMoYzEyKWMobltjSF1bY0hdMiktYzNbY0hdbltuSF1bY0hdMw==

>  <s_epik_cmdline>  (312) 
J2VwaWtfcHl0aG9uJywgJy1waHQnLCAnMi4wJywgJy1waCcsICc3LjAnLCAnLXRuJywgJzgnLCAnLW1hJywgJzIwMCcsICctaW1hZScsICc8aW5maWxlLm1hZT4nLCAnLW9tYWUnLCAnPG91dGZpbGUubWFlPic=

>  <r_lp_tautomer_probability>  (312) 
1

>  <r_epik_Ionization_Penalty>  (312) 
3.51829e-05

>  <r_epik_Ionization_Penalty_Charging>  (312) 
0

>  <r_epik_Ionization_Penalty_Neutral>  (312) 
3.51829e-05

>  <r_epik_State_Penalty>  (312) 
-0

>  <r_epik_Charging_Adjusted_Penalty>  (312) 
0

>  <i_epik_Tot_Q>  (312) 
0

>  <i_epik_Tot_abs_Q>  (312) 
0

>  <s_lp_Force_Field>  (312) 
OPLS3e

>  <r_lp_Energy>  (312) 
14.4164

>  <b_lp_Chiralities_Consistent>  (312) 
1

>  <s_lp_Variant>  (312) 
97:0-1

>  <s_i_glide_gridfile>  (312) 
pfpi4k_grid

>  <i_i_glide_lignum>  (312) 
12

>  <i_i_glide_rotatable_bonds>  (312) 
1

>  <r_i_docking_score>  (312) 
-3.58225

>  <r_i_glide_ligand_efficiency>  (312) 
-0.255875

>  <r_i_glide_ligand_efficiency_sa>  (312) 
-0.616694

>  <r_i_glide_ligand_efficiency_ln>  (312) 
-0.984388

>  <r_i_glide_gscore>  (312) 
-3.58225

>  <r_i_glide_lipo>  (312) 
-0.015542

>  <r_i_glide_hbond>  (312) 
-0.267315

>  <r_i_glide_metal>  (312) 
-0

>  <r_i_glide_rewards>  (312) 
-2.14646

>  <r_i_glide_evdw>  (312) 
-15.9536

>  <r_i_glide_ecoul>  (312) 
-5.03757

>  <r_i_glide_erotb>  (312) 
0.463908

>  <r_i_glide_esite>  (312) 
-0.063516

>  <r_i_glide_emodel>  (312) 
-26.5034

>  <r_i_glide_energy>  (312) 
-20.9912

>  <r_i_glide_einternal>  (312) 
0.0347846

>  <r_i_glide_intrahb_reward>  (312) 
-0

>  <i_i_glide_confnum>  (312) 
3

>  <i_i_glide_posenum>  (312) 
33

>  <r_i_glide_eff_state_penalty>  (312) 
0

>  <ligand_id>  (312) 
97

>  <original_smiles>  (312) 
c1cc2[nH]ncc2c(-c2cn[nH]c2)n1

>  <smiles>  (312) 
[H]c1nn([H])c([H])c1-c1nc([H])c([H])c2c1c([H])nn2[H]

$$$$
97:0:1
     RDKit          3D

 21 23  0  0  1  0  0  0  0  0999 V2000
   -3.1639    3.0922    8.6408 C   0  0  0  0  0  0  0  0  0  0  0  0
   -2.2475    2.5573    9.5536 C   0  0  0  0  0  0  0  0  0  0  0  0
   -1.0071    2.1764    9.0345 C   0  0  0  0  0  0  0  0  0  0  0  0
    0.1632    1.6114    9.5207 N   0  0  0  0  0  0  0  0  0  0  0  0
    1.1366    1.4112    8.5639 N   0  0  0  0  0  0  0  0  0  0  0  0
    0.6017    1.8594    7.4349 C   0  0  0  0  0  0  0  0  0  0  0  0
   -0.7085    2.3319    7.6669 C   0  0  0  0  0  0  0  0  0  0  0  0
   -1.6873    2.8789    6.7890 C   0  0  0  0  0  0  0  0  0  0  0  0
   -1.5483    3.1078    5.3337 C   0  0  0  0  0  0  0  0  0  0  0  0
   -2.6106    3.1080    4.3855 C   0  0  0  0  0  0  0  0  0  0  0  0
   -2.1970    3.3994    3.1678 N   0  0  0  0  0  0  0  0  0  0  0  0
   -0.8603    3.5481    3.2877 N   0  0  0  0  0  0  0  0  0  0  0  0
   -0.4272    3.3916    4.5954 C   0  0  0  0  0  0  0  0  0  0  0  0
   -2.8922    3.2266    7.3184 N   0  0  0  0  0  0  0  0  0  0  0  0
    0.3291    1.3639   10.4873 H   0  0  0  0  0  0  0  0  0  0  0  0
   -0.2904    3.7616    2.4603 H   0  0  0  0  0  0  0  0  0  0  0  0
   -4.1441    3.4096    8.9651 H   0  0  0  0  0  0  0  0  0  0  0  0
   -2.4890    2.4432   10.6018 H   0  0  0  0  0  0  0  0  0  0  0  0
    1.1058    1.8454    6.4757 H   0  0  0  0  0  0  0  0  0  0  0  0
   -3.6684    2.9461    4.5323 H   0  0  0  0  0  0  0  0  0  0  0  0
    0.6069    3.5111    4.8826 H   0  0  0  0  0  0  0  0  0  0  0  0
  1 14  2  0
  1  2  1  0
  1 17  1  0
  2  3  2  0
  2 18  1  0
  3  7  1  0
  3  4  1  0
  4 15  1  0
  4  5  1  0
  5  6  2  0
  6  7  1  0
  6 19  1  0
  7  8  2  0
  8  9  1  0
  8 14  1  0
  9 13  2  0
  9 10  1  0
 10 11  2  0
 10 20  1  0
 11 12  1  0
 12 16  1  0
 12 13  1  0
 13 21  1  0
M  END
>  <i_m_ct_stereo_status>  (313) 
1

>  <s_m_source_file>  (313) 
/var/tmp/pbs.5076255.sched01/tmpsouvlwkc/11751gt6aqu.sdf

>  <i_m_source_file_index>  (313) 
12

>  <i_lp_mmshare_version>  (313) 
48012

>  <i_f3d_flags>  (313) 
0

>  <s_epik_input>  (313) 
W25IXTFuW2NIXWMoYzEyKWMobltjSF1bY0hdMiktYzNbY0hdbltuSF1bY0hdMw==

>  <s_epik_cmdline>  (313) 
J2VwaWtfcHl0aG9uJywgJy1waHQnLCAnMi4wJywgJy1waCcsICc3LjAnLCAnLXRuJywgJzgnLCAnLW1hJywgJzIwMCcsICctaW1hZScsICc8aW5maWxlLm1hZT4nLCAnLW9tYWUnLCAnPG91dGZpbGUubWFlPic=

>  <r_lp_tautomer_probability>  (313) 
1

>  <r_epik_Ionization_Penalty>  (313) 
3.51829e-05

>  <r_epik_Ionization_Penalty_Charging>  (313) 
0

>  <r_epik_Ionization_Penalty_Neutral>  (313) 
3.51829e-05

>  <r_epik_State_Penalty>  (313) 
-0

>  <r_epik_Charging_Adjusted_Penalty>  (313) 
0

>  <i_epik_Tot_Q>  (313) 
0

>  <i_epik_Tot_abs_Q>  (313) 
0

>  <s_lp_Force_Field>  (313) 
OPLS3e

>  <r_lp_Energy>  (313) 
14.4164

>  <b_lp_Chiralities_Consistent>  (313) 
1

>  <s_lp_Variant>  (313) 
97:0-1

>  <s_i_glide_gridfile>  (313) 
pfpi4k_grid

>  <i_i_glide_lignum>  (313) 
12

>  <i_i_glide_rotatable_bonds>  (313) 
1

>  <r_i_docking_score>  (313) 
-3.55447

>  <r_i_glide_ligand_efficiency>  (313) 
-0.253891

>  <r_i_glide_ligand_efficiency_sa>  (313) 
-0.611913

>  <r_i_glide_ligand_efficiency_ln>  (313) 
-0.976755

>  <r_i_glide_gscore>  (313) 
-3.55447

>  <r_i_glide_lipo>  (313) 
-0.0729324

>  <r_i_glide_hbond>  (313) 
-0.16

>  <r_i_glide_metal>  (313) 
-0

>  <r_i_glide_rewards>  (313) 
-2.14646

>  <r_i_glide_evdw>  (313) 
-14.9189

>  <r_i_glide_ecoul>  (313) 
-5.22443

>  <r_i_glide_erotb>  (313) 
0.463908

>  <r_i_glide_esite>  (313) 
-0.10937

>  <r_i_glide_emodel>  (313) 
-25.1442

>  <r_i_glide_energy>  (313) 
-20.1434

>  <r_i_glide_einternal>  (313) 
0.776663

>  <r_i_glide_intrahb_reward>  (313) 
-0

>  <i_i_glide_confnum>  (313) 
1

>  <i_i_glide_posenum>  (313) 
14

>  <r_i_glide_eff_state_penalty>  (313) 
0

>  <ligand_id>  (313) 
97

>  <original_smiles>  (313) 
c1cc2[nH]ncc2c(-c2cn[nH]c2)n1

>  <smiles>  (313) 
[H]c1nn([H])c([H])c1-c1nc([H])c([H])c2c1c([H])nn2[H]

$$$$
97:0:2
     RDKit          3D

 21 23  0  0  1  0  0  0  0  0999 V2000
    5.1597   -1.5834    0.1519 C   0  0  0  0  0  0  0  0  0  0  0  0
    5.1402   -1.0713   -1.1529 C   0  0  0  0  0  0  0  0  0  0  0  0
    4.2941   -1.6987   -2.0727 C   0  0  0  0  0  0  0  0  0  0  0  0
    3.9616   -1.5432   -3.4168 N   0  0  0  0  0  0  0  0  0  0  0  0
    3.0702   -2.4693   -3.8925 N   0  0  0  0  0  0  0  0  0  0  0  0
    2.7689   -3.2089   -2.8284 C   0  0  0  0  0  0  0  0  0  0  0  0
    3.5162   -2.7986   -1.6946 C   0  0  0  0  0  0  0  0  0  0  0  0
    3.6039   -3.2929   -0.3486 C   0  0  0  0  0  0  0  0  0  0  0  0
    2.8809   -4.4420    0.2537 C   0  0  0  0  0  0  0  0  0  0  0  0
    1.8094   -5.1710   -0.3177 C   0  0  0  0  0  0  0  0  0  0  0  0
    1.3130   -6.0867    0.4882 N   0  0  0  0  0  0  0  0  0  0  0  0
    2.1045   -6.0248    1.5682 N   0  0  0  0  0  0  0  0  0  0  0  0
    3.0552   -5.0245    1.4843 C   0  0  0  0  0  0  0  0  0  0  0  0
    4.4341   -2.6544    0.5205 N   0  0  0  0  0  0  0  0  0  0  0  0
    4.3063   -0.8120   -4.0211 H   0  0  0  0  0  0  0  0  0  0  0  0
    1.9789   -6.6842    2.3290 H   0  0  0  0  0  0  0  0  0  0  0  0
    5.7881   -1.1277    0.9096 H   0  0  0  0  0  0  0  0  0  0  0  0
    5.7397   -0.2375   -1.4470 H   0  0  0  0  0  0  0  0  0  0  0  0
    2.0818   -4.0348   -2.8706 H   0  0  0  0  0  0  0  0  0  0  0  0
    1.3148   -5.0405   -1.2676 H   0  0  0  0  0  0  0  0  0  0  0  0
    3.7480   -4.8166    2.2852 H   0  0  0  0  0  0  0  0  0  0  0  0
  1 14  2  0
  1  2  1  0
  1 17  1  0
  2  3  2  0
  2 18  1  0
  3  7  1  0
  3  4  1  0
  4 15  1  0
  4  5  1  0
  5  6  2  0
  6  7  1  0
  6 19  1  0
  7  8  2  0
  8  9  1  0
  8 14  1  0
  9 13  2  0
  9 10  1  0
 10 11  2  0
 10 20  1  0
 11 12  1  0
 12 16  1  0
 12 13  1  0
 13 21  1  0
M  END
>  <i_m_ct_stereo_status>  (314) 
1

>  <s_m_source_file>  (314) 
/var/tmp/pbs.5076255.sched01/tmpsouvlwkc/11751gt6aqu.sdf

>  <i_m_source_file_index>  (314) 
12

>  <i_lp_mmshare_version>  (314) 
48012

>  <i_f3d_flags>  (314) 
0

>  <s_epik_input>  (314) 
W25IXTFuW2NIXWMoYzEyKWMobltjSF1bY0hdMiktYzNbY0hdbltuSF1bY0hdMw==

>  <s_epik_cmdline>  (314) 
J2VwaWtfcHl0aG9uJywgJy1waHQnLCAnMi4wJywgJy1waCcsICc3LjAnLCAnLXRuJywgJzgnLCAnLW1hJywgJzIwMCcsICctaW1hZScsICc8aW5maWxlLm1hZT4nLCAnLW9tYWUnLCAnPG91dGZpbGUubWFlPic=

>  <r_lp_tautomer_probability>  (314) 
1

>  <r_epik_Ionization_Penalty>  (314) 
3.51829e-05

>  <r_epik_Ionization_Penalty_Charging>  (314) 
0

>  <r_epik_Ionization_Penalty_Neutral>  (314) 
3.51829e-05

>  <r_epik_State_Penalty>  (314) 
-0

>  <r_epik_Charging_Adjusted_Penalty>  (314) 
0

>  <i_epik_Tot_Q>  (314) 
0

>  <i_epik_Tot_abs_Q>  (314) 
0

>  <s_lp_Force_Field>  (314) 
OPLS3e

>  <r_lp_Energy>  (314) 
14.4164

>  <b_lp_Chiralities_Consistent>  (314) 
1

>  <s_lp_Variant>  (314) 
97:0-1

>  <s_i_glide_gridfile>  (314) 
pfpi4k_grid

>  <i_i_glide_lignum>  (314) 
12

>  <i_i_glide_rotatable_bonds>  (314) 
1

>  <r_i_docking_score>  (314) 
-3.43131

>  <r_i_glide_ligand_efficiency>  (314) 
-0.245094

>  <r_i_glide_ligand_efficiency_sa>  (314) 
-0.590711

>  <r_i_glide_ligand_efficiency_ln>  (314) 
-0.942913

>  <r_i_glide_gscore>  (314) 
-3.43131

>  <r_i_glide_lipo>  (314) 
-0.0962567

>  <r_i_glide_hbond>  (314) 
-0.16

>  <r_i_glide_metal>  (314) 
-0

>  <r_i_glide_rewards>  (314) 
-2.14646

>  <r_i_glide_evdw>  (314) 
-16.9613

>  <r_i_glide_ecoul>  (314) 
-4.11173

>  <r_i_glide_erotb>  (314) 
0.463908

>  <r_i_glide_esite>  (314) 
-0.0276776

>  <r_i_glide_emodel>  (314) 
-26.2289

>  <r_i_glide_energy>  (314) 
-21.073

>  <r_i_glide_einternal>  (314) 
0.14753

>  <r_i_glide_intrahb_reward>  (314) 
-0

>  <i_i_glide_confnum>  (314) 
4

>  <i_i_glide_posenum>  (314) 
4

>  <r_i_glide_eff_state_penalty>  (314) 
0

>  <ligand_id>  (314) 
97

>  <original_smiles>  (314) 
c1cc2[nH]ncc2c(-c2cn[nH]c2)n1

>  <smiles>  (314) 
[H]c1nn([H])c([H])c1-c1nc([H])c([H])c2c1c([H])nn2[H]

$$$$
99:0:0
     RDKit          3D

 33 36  0  0  1  0  0  0  0  0999 V2000
    3.0023   -2.6324   -1.8683 C   0  0  0  0  0  0  0  0  0  0  0  0
    2.7488   -3.0680   -3.1577 C   0  0  0  0  0  0  0  0  0  0  0  0
    3.7360   -3.4656   -4.0012 N   0  0  0  0  0  0  0  0  0  0  0  0
    5.0151   -3.5046   -3.5451 C   0  0  0  0  0  0  0  0  0  0  0  0
    5.4041   -3.0574   -2.2671 C   0  0  0  0  0  0  0  0  0  0  0  0
    6.7298   -3.0302   -1.7861 N   0  0  0  0  0  0  0  0  0  0  0  0
    7.0424   -3.1832   -0.3385 C   0  0  0  0  0  0  0  0  0  0  0  0
    6.2593   -2.3769    0.6857 C   0  0  0  0  0  0  0  0  0  0  0  0
    6.4612   -1.0616    0.8744 N   0  0  0  0  0  0  0  0  0  0  0  0
    5.4242   -0.5475    1.6245 N   0  0  0  0  0  0  0  0  0  0  0  0
    4.5582   -1.5529    1.8721 C   0  0  0  0  0  0  0  0  0  0  0  0
    3.2942   -1.5891    2.4892 C   0  0  0  0  0  0  0  0  0  0  0  0
    2.5575   -2.7634    2.4800 C   0  0  0  0  0  0  0  0  0  0  0  0
    3.0706   -3.9142    1.8179 C   0  0  0  0  0  0  0  0  0  0  0  0
    2.2938   -5.1144    1.7983 N   0  0  0  0  0  0  0  0  0  0  0  0
    2.3414   -6.1463    0.9440 C   0  0  0  0  0  0  0  0  0  0  0  0
    1.4794   -7.0921    1.2814 N   0  0  0  0  0  0  0  0  0  0  0  0
    0.8857   -6.6024    2.4252 N   0  0  0  0  0  0  0  0  0  0  0  0
    1.3682   -5.4195    2.7298 N   0  0  0  0  0  0  0  0  0  0  0  0
    4.3150   -3.8845    1.2429 C   0  0  0  0  0  0  0  0  0  0  0  0
    5.0848   -2.7318    1.3094 N   0  0  0  0  0  0  0  0  0  0  0  0
    4.3336   -2.5626   -1.5197 C   0  0  0  0  0  0  0  0  0  0  0  0
    2.2729   -2.2598   -1.1650 H   0  0  0  0  0  0  0  0  0  0  0  0
    1.7279   -3.0559   -3.4875 H   0  0  0  0  0  0  0  0  0  0  0  0
    5.7505   -3.8598   -4.2519 H   0  0  0  0  0  0  0  0  0  0  0  0
    7.4565   -3.3359   -2.4396 H   0  0  0  0  0  0  0  0  0  0  0  0
    6.9443   -4.2300   -0.0714 H   0  0  0  0  0  0  0  0  0  0  0  0
    8.0973   -2.9224   -0.2246 H   0  0  0  0  0  0  0  0  0  0  0  0
    2.9042   -0.6991    2.9684 H   0  0  0  0  0  0  0  0  0  0  0  0
    1.6036   -2.7864    2.9884 H   0  0  0  0  0  0  0  0  0  0  0  0
    2.9889   -6.1872    0.0881 H   0  0  0  0  0  0  0  0  0  0  0  0
    4.6941   -4.6955    0.6248 H   0  0  0  0  0  0  0  0  0  0  0  0
    4.4496   -2.0006   -0.6627 H   0  0  0  0  0  0  0  0  0  0  0  0
  1 22  2  0
  1  2  1  0
  1 23  1  0
  2  3  2  0
  2 24  1  0
  3  4  1  0
  4  5  2  0
  4 25  1  0
  5  6  1  0
  5 22  1  0
  6  7  1  0
  6 26  1  0
  7  8  1  0
  7 27  1  0
  7 28  1  0
  8 21  1  0
  8  9  2  0
  9 10  1  0
 10 11  2  0
 11 21  1  0
 11 12  1  0
 12 13  2  0
 12 29  1  0
 13 14  1  0
 13 30  1  0
 14 15  1  0
 14 20  2  0
 15 19  1  0
 15 16  1  0
 16 17  2  0
 16 31  1  0
 17 18  1  0
 18 19  2  0
 20 21  1  0
 20 32  1  0
 22 33  1  0
M  END
>  <i_m_ct_stereo_status>  (315) 
1

>  <s_m_source_file>  (315) 
/var/tmp/pbs.5076255.sched01/tmpsouvlwkc/11751gt6aqu.sdf

>  <i_m_source_file_index>  (315) 
14

>  <i_lp_mmshare_version>  (315) 
48012

>  <i_f3d_flags>  (315) 
0

>  <s_epik_input>  (315) 
W2NIXTFbY0hdW2NIXW5bY0hdYzFbTkhdW0NIMl1jKG5uMiluKGMyMylbY0hdYyhbY0hdW2NIXTMpLW40W2NIXW5ubjQ=

>  <s_epik_cmdline>  (315) 
J2VwaWtfcHl0aG9uJywgJy1waHQnLCAnMi4wJywgJy1waCcsICc3LjAnLCAnLXRuJywgJzgnLCAnLW1hJywgJzIwMCcsICctaW1hZScsICc8aW5maWxlLm1hZT4nLCAnLW9tYWUnLCAnPG91dGZpbGUubWFlPic=

>  <r_lp_tautomer_probability>  (315) 
1

>  <r_epik_Ionization_Penalty>  (315) 
0.0761983

>  <r_epik_Ionization_Penalty_Charging>  (315) 
0

>  <r_epik_Ionization_Penalty_Neutral>  (315) 
0.0761983

>  <r_epik_State_Penalty>  (315) 
0.067109

>  <r_epik_Charging_Adjusted_Penalty>  (315) 
0.067109

>  <i_epik_Tot_Q>  (315) 
0

>  <i_epik_Tot_abs_Q>  (315) 
0

>  <s_lp_Force_Field>  (315) 
OPLS3e

>  <r_lp_Energy>  (315) 
32.6199

>  <b_lp_Chiralities_Consistent>  (315) 
1

>  <s_lp_Variant>  (315) 
99:0-1

>  <s_i_glide_gridfile>  (315) 
pfpi4k_grid

>  <i_i_glide_lignum>  (315) 
14

>  <i_i_glide_rotatable_bonds>  (315) 
4

>  <r_i_docking_score>  (315) 
-3.81847

>  <r_i_glide_ligand_efficiency>  (315) 
-0.173567

>  <r_i_glide_ligand_efficiency_sa>  (315) 
-0.486341

>  <r_i_glide_ligand_efficiency_ln>  (315) 
-0.933373

>  <r_i_glide_gscore>  (315) 
-3.81847

>  <r_i_glide_lipo>  (315) 
-0.629327

>  <r_i_glide_hbond>  (315) 
-0.114749

>  <r_i_glide_metal>  (315) 
-0

>  <r_i_glide_rewards>  (315) 
-1.61689

>  <r_i_glide_evdw>  (315) 
-30.1343

>  <r_i_glide_ecoul>  (315) 
-5.28437

>  <r_i_glide_erotb>  (315) 
0.849619

>  <r_i_glide_esite>  (315) 
-0.191617

>  <r_i_glide_emodel>  (315) 
-39.2403

>  <r_i_glide_energy>  (315) 
-35.4187

>  <r_i_glide_einternal>  (315) 
1.95464

>  <r_i_glide_intrahb_reward>  (315) 
-0

>  <i_i_glide_confnum>  (315) 
2

>  <i_i_glide_posenum>  (315) 
3

>  <r_i_glide_eff_state_penalty>  (315) 
0

>  <ligand_id>  (315) 
99

>  <original_smiles>  (315) 
c1cncc(NCc2nnc3ccc(-n4cnnn4)cn23)c1

>  <smiles>  (315) 
[H]c1nc([H])c(N([H])C([H])([H])c2nnc3c([H])c([H])c(-n4nnnc4[H])c([H])n23)c([H])c1[H]

$$$$
99:0:1
     RDKit          3D

 33 36  0  0  1  0  0  0  0  0999 V2000
   -0.2540   -9.5784    2.8836 C   0  0  0  0  0  0  0  0  0  0  0  0
   -1.3059   -8.6465    2.9186 C   0  0  0  0  0  0  0  0  0  0  0  0
   -1.1066   -7.3111    2.8607 N   0  0  0  0  0  0  0  0  0  0  0  0
    0.1670   -6.8731    2.7666 C   0  0  0  0  0  0  0  0  0  0  0  0
    1.2975   -7.7204    2.7060 C   0  0  0  0  0  0  0  0  0  0  0  0
    2.6126   -7.2470    2.5671 N   0  0  0  0  0  0  0  0  0  0  0  0
    2.9504   -5.8498    2.8121 C   0  0  0  0  0  0  0  0  0  0  0  0
    4.3938   -5.5475    2.5570 C   0  0  0  0  0  0  0  0  0  0  0  0
    5.3920   -5.8627    3.3838 N   0  0  0  0  0  0  0  0  0  0  0  0
    6.5893   -5.4741    2.8095 N   0  0  0  0  0  0  0  0  0  0  0  0
    6.3023   -4.9145    1.6379 C   0  0  0  0  0  0  0  0  0  0  0  0
    7.1013   -4.3401    0.6164 C   0  0  0  0  0  0  0  0  0  0  0  0
    6.4990   -3.8251   -0.5059 C   0  0  0  0  0  0  0  0  0  0  0  0
    5.0869   -3.8576   -0.6674 C   0  0  0  0  0  0  0  0  0  0  0  0
    4.5089   -3.3400   -1.8580 N   0  0  0  0  0  0  0  0  0  0  0  0
    5.0593   -3.0868   -3.0517 C   0  0  0  0  0  0  0  0  0  0  0  0
    4.1832   -2.5806   -3.9032 N   0  0  0  0  0  0  0  0  0  0  0  0
    3.0169   -2.5454   -3.1678 N   0  0  0  0  0  0  0  0  0  0  0  0
    3.1994   -2.9974   -1.9568 N   0  0  0  0  0  0  0  0  0  0  0  0
    4.3055   -4.4115    0.3308 C   0  0  0  0  0  0  0  0  0  0  0  0
    4.9066   -4.9294    1.4467 N   0  0  0  0  0  0  0  0  0  0  0  0
    1.0664   -9.1103    2.7715 C   0  0  0  0  0  0  0  0  0  0  0  0
   -0.4584  -10.6348    2.9436 H   0  0  0  0  0  0  0  0  0  0  0  0
   -2.3304   -8.9776    3.0009 H   0  0  0  0  0  0  0  0  0  0  0  0
    0.2613   -5.7990    2.7191 H   0  0  0  0  0  0  0  0  0  0  0  0
    3.3673   -7.9141    2.6638 H   0  0  0  0  0  0  0  0  0  0  0  0
    2.3216   -5.1797    2.2257 H   0  0  0  0  0  0  0  0  0  0  0  0
    2.7579   -5.6301    3.8607 H   0  0  0  0  0  0  0  0  0  0  0  0
    8.1803   -4.3260    0.7289 H   0  0  0  0  0  0  0  0  0  0  0  0
    7.1373   -3.4136   -1.2827 H   0  0  0  0  0  0  0  0  0  0  0  0
    6.0944   -3.2570   -3.3119 H   0  0  0  0  0  0  0  0  0  0  0  0
    3.2241   -4.4766    0.2732 H   0  0  0  0  0  0  0  0  0  0  0  0
    1.8886   -9.8109    2.7352 H   0  0  0  0  0  0  0  0  0  0  0  0
  1 22  2  0
  1  2  1  0
  1 23  1  0
  2  3  2  0
  2 24  1  0
  3  4  1  0
  4  5  2  0
  4 25  1  0
  5  6  1  0
  5 22  1  0
  6  7  1  0
  6 26  1  0
  7  8  1  0
  7 27  1  0
  7 28  1  0
  8 21  1  0
  8  9  2  0
  9 10  1  0
 10 11  2  0
 11 21  1  0
 11 12  1  0
 12 13  2  0
 12 29  1  0
 13 14  1  0
 13 30  1  0
 14 15  1  0
 14 20  2  0
 15 19  1  0
 15 16  1  0
 16 17  2  0
 16 31  1  0
 17 18  1  0
 18 19  2  0
 20 21  1  0
 20 32  1  0
 22 33  1  0
M  END
>  <i_m_ct_stereo_status>  (316) 
1

>  <s_m_source_file>  (316) 
/var/tmp/pbs.5076255.sched01/tmpsouvlwkc/11751gt6aqu.sdf

>  <i_m_source_file_index>  (316) 
14

>  <i_lp_mmshare_version>  (316) 
48012

>  <i_f3d_flags>  (316) 
0

>  <s_epik_input>  (316) 
W2NIXTFbY0hdW2NIXW5bY0hdYzFbTkhdW0NIMl1jKG5uMiluKGMyMylbY0hdYyhbY0hdW2NIXTMpLW40W2NIXW5ubjQ=

>  <s_epik_cmdline>  (316) 
J2VwaWtfcHl0aG9uJywgJy1waHQnLCAnMi4wJywgJy1waCcsICc3LjAnLCAnLXRuJywgJzgnLCAnLW1hJywgJzIwMCcsICctaW1hZScsICc8aW5maWxlLm1hZT4nLCAnLW9tYWUnLCAnPG91dGZpbGUubWFlPic=

>  <r_lp_tautomer_probability>  (316) 
1

>  <r_epik_Ionization_Penalty>  (316) 
0.0761983

>  <r_epik_Ionization_Penalty_Charging>  (316) 
0

>  <r_epik_Ionization_Penalty_Neutral>  (316) 
0.0761983

>  <r_epik_State_Penalty>  (316) 
0.067109

>  <r_epik_Charging_Adjusted_Penalty>  (316) 
0.067109

>  <i_epik_Tot_Q>  (316) 
0

>  <i_epik_Tot_abs_Q>  (316) 
0

>  <s_lp_Force_Field>  (316) 
OPLS3e

>  <r_lp_Energy>  (316) 
32.6199

>  <b_lp_Chiralities_Consistent>  (316) 
1

>  <s_lp_Variant>  (316) 
99:0-1

>  <s_i_glide_gridfile>  (316) 
pfpi4k_grid

>  <i_i_glide_lignum>  (316) 
14

>  <i_i_glide_rotatable_bonds>  (316) 
4

>  <r_i_docking_score>  (316) 
-3.23628

>  <r_i_glide_ligand_efficiency>  (316) 
-0.147104

>  <r_i_glide_ligand_efficiency_sa>  (316) 
-0.412191

>  <r_i_glide_ligand_efficiency_ln>  (316) 
-0.791066

>  <r_i_glide_gscore>  (316) 
-3.23628

>  <r_i_glide_lipo>  (316) 
-0.297431

>  <r_i_glide_hbond>  (316) 
-0.0936144

>  <r_i_glide_metal>  (316) 
-0

>  <r_i_glide_rewards>  (316) 
-1.81727

>  <r_i_glide_evdw>  (316) 
-30.1849

>  <r_i_glide_ecoul>  (316) 
-2.32284

>  <r_i_glide_erotb>  (316) 
0.849619

>  <r_i_glide_esite>  (316) 
-0.0199222

>  <r_i_glide_emodel>  (316) 
-39.7928

>  <r_i_glide_energy>  (316) 
-32.5077

>  <r_i_glide_einternal>  (316) 
0.601092

>  <r_i_glide_intrahb_reward>  (316) 
-0

>  <i_i_glide_confnum>  (316) 
4

>  <i_i_glide_posenum>  (316) 
4

>  <r_i_glide_eff_state_penalty>  (316) 
0

>  <ligand_id>  (316) 
99

>  <original_smiles>  (316) 
c1cncc(NCc2nnc3ccc(-n4cnnn4)cn23)c1

>  <smiles>  (316) 
[H]c1nc([H])c(N([H])C([H])([H])c2nnc3c([H])c([H])c(-n4nnnc4[H])c([H])n23)c([H])c1[H]

$$$$
99:0:2
     RDKit          3D

 33 36  0  0  1  0  0  0  0  0999 V2000
   -1.6575    1.8121    5.1838 C   0  0  0  0  0  0  0  0  0  0  0  0
   -2.2507    2.5452    4.1421 C   0  0  0  0  0  0  0  0  0  0  0  0
   -1.7826    2.5469    2.8795 N   0  0  0  0  0  0  0  0  0  0  0  0
   -0.6838    1.8101    2.6030 C   0  0  0  0  0  0  0  0  0  0  0  0
   -0.0002    1.0359    3.5733 C   0  0  0  0  0  0  0  0  0  0  0  0
    1.1508    0.2741    3.2991 N   0  0  0  0  0  0  0  0  0  0  0  0
    1.9114    0.4321    2.0630 C   0  0  0  0  0  0  0  0  0  0  0  0
    3.3259   -0.0673    2.1856 C   0  0  0  0  0  0  0  0  0  0  0  0
    4.1047    0.1343    3.2544 N   0  0  0  0  0  0  0  0  0  0  0  0
    5.3293   -0.4794    3.0413 N   0  0  0  0  0  0  0  0  0  0  0  0
    5.2816   -1.0531    1.8402 C   0  0  0  0  0  0  0  0  0  0  0  0
    6.2046   -1.8327    1.0967 C   0  0  0  0  0  0  0  0  0  0  0  0
    5.8644   -2.3087   -0.1480 C   0  0  0  0  0  0  0  0  0  0  0  0
    4.5941   -2.0110   -0.7159 C   0  0  0  0  0  0  0  0  0  0  0  0
    4.2485   -2.4989   -2.0075 N   0  0  0  0  0  0  0  0  0  0  0  0
    3.1272   -2.3580   -2.7239 C   0  0  0  0  0  0  0  0  0  0  0  0
    3.2193   -2.9471   -3.9086 N   0  0  0  0  0  0  0  0  0  0  0  0
    4.4831   -3.4997   -3.8845 N   0  0  0  0  0  0  0  0  0  0  0  0
    5.1036   -3.2326   -2.7718 N   0  0  0  0  0  0  0  0  0  0  0  0
    3.6956   -1.2466    0.0115 C   0  0  0  0  0  0  0  0  0  0  0  0
    4.0292   -0.7922    1.2572 N   0  0  0  0  0  0  0  0  0  0  0  0
   -0.5112    1.0477    4.8905 C   0  0  0  0  0  0  0  0  0  0  0  0
   -2.0717    1.8445    6.1803 H   0  0  0  0  0  0  0  0  0  0  0  0
   -3.1387    3.1377    4.3225 H   0  0  0  0  0  0  0  0  0  0  0  0
   -0.3535    1.8515    1.5760 H   0  0  0  0  0  0  0  0  0  0  0  0
    1.6546   -0.1375    4.0702 H   0  0  0  0  0  0  0  0  0  0  0  0
    1.3846   -0.0992    1.2710 H   0  0  0  0  0  0  0  0  0  0  0  0
    1.9560    1.4824    1.7799 H   0  0  0  0  0  0  0  0  0  0  0  0
    7.1661   -2.0648    1.5301 H   0  0  0  0  0  0  0  0  0  0  0  0
    6.5882   -2.9211   -0.6826 H   0  0  0  0  0  0  0  0  0  0  0  0
    2.2519   -1.8174   -2.3932 H   0  0  0  0  0  0  0  0  0  0  0  0
    2.7027   -0.9797   -0.3301 H   0  0  0  0  0  0  0  0  0  0  0  0
   -0.0294    0.4828    5.6725 H   0  0  0  0  0  0  0  0  0  0  0  0
  1 22  2  0
  1  2  1  0
  1 23  1  0
  2  3  2  0
  2 24  1  0
  3  4  1  0
  4  5  2  0
  4 25  1  0
  5  6  1  0
  5 22  1  0
  6  7  1  0
  6 26  1  0
  7  8  1  0
  7 27  1  0
  7 28  1  0
  8 21  1  0
  8  9  2  0
  9 10  1  0
 10 11  2  0
 11 21  1  0
 11 12  1  0
 12 13  2  0
 12 29  1  0
 13 14  1  0
 13 30  1  0
 14 15  1  0
 14 20  2  0
 15 19  1  0
 15 16  1  0
 16 17  2  0
 16 31  1  0
 17 18  1  0
 18 19  2  0
 20 21  1  0
 20 32  1  0
 22 33  1  0
M  END
>  <i_m_ct_stereo_status>  (317) 
1

>  <s_m_source_file>  (317) 
/var/tmp/pbs.5076255.sched01/tmpsouvlwkc/11751gt6aqu.sdf

>  <i_m_source_file_index>  (317) 
14

>  <i_lp_mmshare_version>  (317) 
48012

>  <i_f3d_flags>  (317) 
0

>  <s_epik_input>  (317) 
W2NIXTFbY0hdW2NIXW5bY0hdYzFbTkhdW0NIMl1jKG5uMiluKGMyMylbY0hdYyhbY0hdW2NIXTMpLW40W2NIXW5ubjQ=

>  <s_epik_cmdline>  (317) 
J2VwaWtfcHl0aG9uJywgJy1waHQnLCAnMi4wJywgJy1waCcsICc3LjAnLCAnLXRuJywgJzgnLCAnLW1hJywgJzIwMCcsICctaW1hZScsICc8aW5maWxlLm1hZT4nLCAnLW9tYWUnLCAnPG91dGZpbGUubWFlPic=

>  <r_lp_tautomer_probability>  (317) 
1

>  <r_epik_Ionization_Penalty>  (317) 
0.0761983

>  <r_epik_Ionization_Penalty_Charging>  (317) 
0

>  <r_epik_Ionization_Penalty_Neutral>  (317) 
0.0761983

>  <r_epik_State_Penalty>  (317) 
0.067109

>  <r_epik_Charging_Adjusted_Penalty>  (317) 
0.067109

>  <i_epik_Tot_Q>  (317) 
0

>  <i_epik_Tot_abs_Q>  (317) 
0

>  <s_lp_Force_Field>  (317) 
OPLS3e

>  <r_lp_Energy>  (317) 
32.6199

>  <b_lp_Chiralities_Consistent>  (317) 
1

>  <s_lp_Variant>  (317) 
99:0-1

>  <s_i_glide_gridfile>  (317) 
pfpi4k_grid

>  <i_i_glide_lignum>  (317) 
14

>  <i_i_glide_rotatable_bonds>  (317) 
4

>  <r_i_docking_score>  (317) 
-3.09355

>  <r_i_glide_ligand_efficiency>  (317) 
-0.140616

>  <r_i_glide_ligand_efficiency_sa>  (317) 
-0.394011

>  <r_i_glide_ligand_efficiency_ln>  (317) 
-0.756176

>  <r_i_glide_gscore>  (317) 
-3.09355

>  <r_i_glide_lipo>  (317) 
-0.133587

>  <r_i_glide_hbond>  (317) 
0

>  <r_i_glide_metal>  (317) 
-0

>  <r_i_glide_rewards>  (317) 
-1.63144

>  <r_i_glide_evdw>  (317) 
-33.981

>  <r_i_glide_ecoul>  (317) 
-2.89321

>  <r_i_glide_erotb>  (317) 
0.849619

>  <r_i_glide_esite>  (317) 
-0.0451122

>  <r_i_glide_emodel>  (317) 
-43.613

>  <r_i_glide_energy>  (317) 
-36.8742

>  <r_i_glide_einternal>  (317) 
1.02959

>  <r_i_glide_intrahb_reward>  (317) 
-0

>  <i_i_glide_confnum>  (317) 
2

>  <i_i_glide_posenum>  (317) 
2

>  <r_i_glide_eff_state_penalty>  (317) 
0

>  <ligand_id>  (317) 
99

>  <original_smiles>  (317) 
c1cncc(NCc2nnc3ccc(-n4cnnn4)cn23)c1

>  <smiles>  (317) 
[H]c1nc([H])c(N([H])C([H])([H])c2nnc3c([H])c([H])c(-n4nnnc4[H])c([H])n23)c([H])c1[H]

$$$$
99:1:0
     RDKit          3D

 34 37  0  0  1  0  0  0  0  0999 V2000
    4.4626  -12.3027    3.7152 C   0  0  0  0  0  0  0  0  0  0  0  0
    3.8583  -12.6585    4.9347 C   0  0  0  0  0  0  0  0  0  0  0  0
    3.0114  -11.7933    5.5361 N   0  0  0  0  0  0  0  0  0  0  0  0
    2.7166  -10.5754    5.0245 C   0  0  0  0  0  0  0  0  0  0  0  0
    3.2992  -10.1501    3.8034 C   0  0  0  0  0  0  0  0  0  0  0  0
    2.9770   -8.8870    3.2667 N   0  0  0  0  0  0  0  0  0  0  0  0
    3.6736   -8.3669    2.0888 C   0  0  0  0  0  0  0  0  0  0  0  0
    3.0079   -7.1793    1.4694 C   0  0  0  0  0  0  0  0  0  0  0  0
    1.6880   -7.0612    1.2954 N   0  0  0  0  0  0  0  0  0  0  0  0
    1.4228   -5.8606    0.6814 N   0  0  0  0  0  0  0  0  0  0  0  0
    2.5948   -5.2440    0.4884 C   0  0  0  0  0  0  0  0  0  0  0  0
    2.9446   -3.9828   -0.0464 C   0  0  0  0  0  0  0  0  0  0  0  0
    4.2724   -3.6214   -0.1332 C   0  0  0  0  0  0  0  0  0  0  0  0
    5.2992   -4.5070    0.3051 C   0  0  0  0  0  0  0  0  0  0  0  0
    6.6634   -4.1179    0.2118 N   0  0  0  0  0  0  0  0  0  0  0  0
    7.7630   -4.6750    0.7337 C   0  0  0  0  0  0  0  0  0  0  0  0
    8.8553   -4.0113    0.3962 N   0  0  0  0  0  0  0  0  0  0  0  0
    8.3738   -2.9794   -0.3734 N   0  0  0  0  0  0  0  0  0  0  0  0
    7.0775   -3.0268   -0.4881 N   0  0  0  0  0  0  0  0  0  0  0  0
    4.9534   -5.7362    0.8391 C   0  0  0  0  0  0  0  0  0  0  0  0
    3.6284   -6.0807    0.9432 N   0  0  0  0  0  0  0  0  0  0  0  0
    4.1907  -11.0454    3.1522 C   0  0  0  0  0  0  0  0  0  0  0  0
    5.1113  -12.9836    3.1842 H   0  0  0  0  0  0  0  0  0  0  0  0
    3.9859  -13.6163    5.4279 H   0  0  0  0  0  0  0  0  0  0  0  0
    2.0111   -9.9983    5.6096 H   0  0  0  0  0  0  0  0  0  0  0  0
    2.1624   -8.3719    3.5821 H   0  0  0  0  0  0  0  0  0  0  0  0
    4.7033   -8.1334    2.3626 H   0  0  0  0  0  0  0  0  0  0  0  0
    3.7019   -9.1088    1.2924 H   0  0  0  0  0  0  0  0  0  0  0  0
    2.1767   -3.3017   -0.3865 H   0  0  0  0  0  0  0  0  0  0  0  0
    4.5058   -2.6473   -0.5462 H   0  0  0  0  0  0  0  0  0  0  0  0
    7.7693   -5.5602    1.3512 H   0  0  0  0  0  0  0  0  0  0  0  0
    5.6704   -6.4674    1.1995 H   0  0  0  0  0  0  0  0  0  0  0  0
    4.6658  -10.8269    2.2101 H   0  0  0  0  0  0  0  0  0  0  0  0
    2.5238  -12.0982    6.4015 H   0  0  0  0  0  0  0  0  0  0  0  0
  1 22  2  0
  1  2  1  0
  1 23  1  0
  2  3  2  0
  2 24  1  0
  3  4  1  0
  3 34  1  0
  4  5  2  0
  4 25  1  0
  5  6  1  0
  5 22  1  0
  6  7  1  0
  6 26  1  0
  7  8  1  0
  7 27  1  0
  7 28  1  0
  8 21  1  0
  8  9  2  0
  9 10  1  0
 10 11  2  0
 11 21  1  0
 11 12  1  0
 12 13  2  0
 12 29  1  0
 13 14  1  0
 13 30  1  0
 14 15  1  0
 14 20  2  0
 15 19  1  0
 15 16  1  0
 16 17  2  0
 16 31  1  0
 17 18  1  0
 18 19  2  0
 20 21  1  0
 20 32  1  0
 22 33  1  0
M  CHG  1   3   1
M  END
>  <i_m_ct_stereo_status>  (318) 
1

>  <s_m_source_file>  (318) 
/var/tmp/pbs.5076255.sched01/tmpsouvlwkc/11751gt6aqu.sdf

>  <i_m_source_file_index>  (318) 
15

>  <i_lp_mmshare_version>  (318) 
48012

>  <i_f3d_flags>  (318) 
0

>  <s_epik_input>  (318) 
W2NIXTFbY0hdW2NIXW5bY0hdYzFbTkhdW0NIMl1jKG5uMiluKGMyMylbY0hdYyhbY0hdW2NIXTMpLW40W2NIXW5ubjQ=

>  <s_epik_cmdline>  (318) 
J2VwaWtfcHl0aG9uJywgJy1waHQnLCAnMi4wJywgJy1waCcsICc3LjAnLCAnLXRuJywgJzgnLCAnLW1hJywgJzIwMCcsICctaW1hZScsICc8aW5maWxlLm1hZT4nLCAnLW9tYWUnLCAnPG91dGZpbGUubWFlPic=

>  <r_lp_tautomer_probability>  (318) 
0.999846

>  <r_epik_Ionization_Penalty>  (318) 
1.25378

>  <r_epik_Ionization_Penalty_Charging>  (318) 
1.25367

>  <r_epik_Ionization_Penalty_Neutral>  (318) 
0.00010969

>  <r_epik_State_Penalty>  (318) 
1.32368

>  <r_epik_Charging_Adjusted_Penalty>  (318) 
2.57734

>  <i_epik_Tot_Q>  (318) 
1

>  <i_epik_Tot_abs_Q>  (318) 
1

>  <s_lp_Force_Field>  (318) 
OPLS3e

>  <r_lp_Energy>  (318) 
38.0431

>  <b_lp_Chiralities_Consistent>  (318) 
1

>  <s_lp_Variant>  (318) 
99:0-2

>  <s_i_glide_gridfile>  (318) 
pfpi4k_grid

>  <i_i_glide_lignum>  (318) 
15

>  <i_i_glide_rotatable_bonds>  (318) 
4

>  <r_i_docking_score>  (318) 
-5.32179

>  <r_i_glide_ligand_efficiency>  (318) 
-0.241899

>  <r_i_glide_ligand_efficiency_sa>  (318) 
-0.677811

>  <r_i_glide_ligand_efficiency_ln>  (318) 
-1.30084

>  <r_i_glide_gscore>  (318) 
-5.32179

>  <r_i_glide_lipo>  (318) 
-0.176381

>  <r_i_glide_hbond>  (318) 
-0.224915

>  <r_i_glide_metal>  (318) 
-0

>  <r_i_glide_rewards>  (318) 
-2.39757

>  <r_i_glide_evdw>  (318) 
-24.4201

>  <r_i_glide_ecoul>  (318) 
-10.7236

>  <r_i_glide_erotb>  (318) 
0.591181

>  <r_i_glide_esite>  (318) 
-0.284563

>  <r_i_glide_emodel>  (318) 
-51.6261

>  <r_i_glide_energy>  (318) 
-35.1437

>  <r_i_glide_einternal>  (318) 
2.12598

>  <r_i_glide_intrahb_reward>  (318) 
-0

>  <i_i_glide_confnum>  (318) 
1

>  <i_i_glide_posenum>  (318) 
14

>  <r_i_glide_eff_state_penalty>  (318) 
0

>  <ligand_id>  (318) 
99

>  <original_smiles>  (318) 
c1cncc(NCc2nnc3ccc(-n4cnnn4)cn23)c1

>  <smiles>  (318) 
[H]c1c([H])c([H])[n+]([H])c([H])c1N([H])C([H])([H])c1nnc2c([H])c([H])c(-n3nnnc3[H])c([H])n12

$$$$
99:1:1
     RDKit          3D

 34 37  0  0  1  0  0  0  0  0999 V2000
    3.1667    0.0842    2.6964 C   0  0  0  0  0  0  0  0  0  0  0  0
    4.4273   -0.1204    3.2992 C   0  0  0  0  0  0  0  0  0  0  0  0
    5.4346   -0.6157    2.5540 N   0  0  0  0  0  0  0  0  0  0  0  0
    5.3121   -0.9212    1.2483 C   0  0  0  0  0  0  0  0  0  0  0  0
    4.0533   -0.8136    0.5971 C   0  0  0  0  0  0  0  0  0  0  0  0
    3.8158   -1.2306   -0.7315 N   0  0  0  0  0  0  0  0  0  0  0  0
    4.7916   -1.9129   -1.5918 C   0  0  0  0  0  0  0  0  0  0  0  0
    5.6911   -2.9078   -0.9274 C   0  0  0  0  0  0  0  0  0  0  0  0
    7.0252   -2.8119   -0.8797 N   0  0  0  0  0  0  0  0  0  0  0  0
    7.5062   -3.7495    0.0201 N   0  0  0  0  0  0  0  0  0  0  0  0
    6.4678   -4.4881    0.4120 C   0  0  0  0  0  0  0  0  0  0  0  0
    6.3448   -5.6183    1.2568 C   0  0  0  0  0  0  0  0  0  0  0  0
    5.1057   -6.1796    1.4599 C   0  0  0  0  0  0  0  0  0  0  0  0
    3.9392   -5.6330    0.8695 C   0  0  0  0  0  0  0  0  0  0  0  0
    2.6765   -6.2378    1.1054 N   0  0  0  0  0  0  0  0  0  0  0  0
    2.3350   -7.2408    1.9334 C   0  0  0  0  0  0  0  0  0  0  0  0
    1.0421   -7.5242    1.8572 N   0  0  0  0  0  0  0  0  0  0  0  0
    0.5854   -6.6448    0.8969 N   0  0  0  0  0  0  0  0  0  0  0  0
    1.5339   -5.8668    0.4703 N   0  0  0  0  0  0  0  0  0  0  0  0
    4.0548   -4.5127    0.0579 C   0  0  0  0  0  0  0  0  0  0  0  0
    5.2951   -3.9816   -0.1734 N   0  0  0  0  0  0  0  0  0  0  0  0
    2.9725   -0.2730    1.3398 C   0  0  0  0  0  0  0  0  0  0  0  0
    2.3520    0.5125    3.2676 H   0  0  0  0  0  0  0  0  0  0  0  0
    4.6764    0.1262    4.3246 H   0  0  0  0  0  0  0  0  0  0  0  0
    6.2470   -1.2547    0.8134 H   0  0  0  0  0  0  0  0  0  0  0  0
    2.8783   -1.1095   -1.1059 H   0  0  0  0  0  0  0  0  0  0  0  0
    4.2636   -2.3991   -2.4204 H   0  0  0  0  0  0  0  0  0  0  0  0
    5.4198   -1.1476   -2.0492 H   0  0  0  0  0  0  0  0  0  0  0  0
    7.2328   -6.0433    1.7136 H   0  0  0  0  0  0  0  0  0  0  0  0
    5.0531   -7.0731    2.0768 H   0  0  0  0  0  0  0  0  0  0  0  0
    3.0126   -7.7604    2.5973 H   0  0  0  0  0  0  0  0  0  0  0  0
    3.2178   -4.0254   -0.4316 H   0  0  0  0  0  0  0  0  0  0  0  0
    1.9970   -0.1363    0.8891 H   0  0  0  0  0  0  0  0  0  0  0  0
    6.3496   -0.7544    2.9794 H   0  0  0  0  0  0  0  0  0  0  0  0
  1 22  2  0
  1  2  1  0
  1 23  1  0
  2  3  2  0
  2 24  1  0
  3  4  1  0
  3 34  1  0
  4  5  2  0
  4 25  1  0
  5  6  1  0
  5 22  1  0
  6  7  1  0
  6 26  1  0
  7  8  1  0
  7 27  1  0
  7 28  1  0
  8 21  1  0
  8  9  2  0
  9 10  1  0
 10 11  2  0
 11 21  1  0
 11 12  1  0
 12 13  2  0
 12 29  1  0
 13 14  1  0
 13 30  1  0
 14 15  1  0
 14 20  2  0
 15 19  1  0
 15 16  1  0
 16 17  2  0
 16 31  1  0
 17 18  1  0
 18 19  2  0
 20 21  1  0
 20 32  1  0
 22 33  1  0
M  CHG  1   3   1
M  END
>  <i_m_ct_stereo_status>  (319) 
1

>  <s_m_source_file>  (319) 
/var/tmp/pbs.5076255.sched01/tmpsouvlwkc/11751gt6aqu.sdf

>  <i_m_source_file_index>  (319) 
15

>  <i_lp_mmshare_version>  (319) 
48012

>  <i_f3d_flags>  (319) 
0

>  <s_epik_input>  (319) 
W2NIXTFbY0hdW2NIXW5bY0hdYzFbTkhdW0NIMl1jKG5uMiluKGMyMylbY0hdYyhbY0hdW2NIXTMpLW40W2NIXW5ubjQ=

>  <s_epik_cmdline>  (319) 
J2VwaWtfcHl0aG9uJywgJy1waHQnLCAnMi4wJywgJy1waCcsICc3LjAnLCAnLXRuJywgJzgnLCAnLW1hJywgJzIwMCcsICctaW1hZScsICc8aW5maWxlLm1hZT4nLCAnLW9tYWUnLCAnPG91dGZpbGUubWFlPic=

>  <r_lp_tautomer_probability>  (319) 
0.999846

>  <r_epik_Ionization_Penalty>  (319) 
1.25378

>  <r_epik_Ionization_Penalty_Charging>  (319) 
1.25367

>  <r_epik_Ionization_Penalty_Neutral>  (319) 
0.00010969

>  <r_epik_State_Penalty>  (319) 
1.32368

>  <r_epik_Charging_Adjusted_Penalty>  (319) 
2.57734

>  <i_epik_Tot_Q>  (319) 
1

>  <i_epik_Tot_abs_Q>  (319) 
1

>  <s_lp_Force_Field>  (319) 
OPLS3e

>  <r_lp_Energy>  (319) 
38.0431

>  <b_lp_Chiralities_Consistent>  (319) 
1

>  <s_lp_Variant>  (319) 
99:0-2

>  <s_i_glide_gridfile>  (319) 
pfpi4k_grid

>  <i_i_glide_lignum>  (319) 
15

>  <i_i_glide_rotatable_bonds>  (319) 
4

>  <r_i_docking_score>  (319) 
-4.24802

>  <r_i_glide_ligand_efficiency>  (319) 
-0.193092

>  <r_i_glide_ligand_efficiency_sa>  (319) 
-0.541052

>  <r_i_glide_ligand_efficiency_ln>  (319) 
-1.03837

>  <r_i_glide_gscore>  (319) 
-4.24802

>  <r_i_glide_lipo>  (319) 
-0.412542

>  <r_i_glide_hbond>  (319) 
-0.104895

>  <r_i_glide_metal>  (319) 
-0

>  <r_i_glide_rewards>  (319) 
-1.66196

>  <r_i_glide_evdw>  (319) 
-28.3022

>  <r_i_glide_ecoul>  (319) 
-7.68309

>  <r_i_glide_erotb>  (319) 
0.844545

>  <r_i_glide_esite>  (319) 
-0.345606

>  <r_i_glide_emodel>  (319) 
-49.5748

>  <r_i_glide_energy>  (319) 
-35.9853

>  <r_i_glide_einternal>  (319) 
0.280564

>  <r_i_glide_intrahb_reward>  (319) 
-0

>  <i_i_glide_confnum>  (319) 
3

>  <i_i_glide_posenum>  (319) 
25

>  <r_i_glide_eff_state_penalty>  (319) 
0

>  <ligand_id>  (319) 
99

>  <original_smiles>  (319) 
c1cncc(NCc2nnc3ccc(-n4cnnn4)cn23)c1

>  <smiles>  (319) 
[H]c1c([H])c([H])[n+]([H])c([H])c1N([H])C([H])([H])c1nnc2c([H])c([H])c(-n3nnnc3[H])c([H])n12

$$$$
99:1:2
     RDKit          3D

 34 37  0  0  1  0  0  0  0  0999 V2000
    3.4967   -1.4187   -3.7825 C   0  0  0  0  0  0  0  0  0  0  0  0
    3.0232   -2.7440   -3.8125 C   0  0  0  0  0  0  0  0  0  0  0  0
    2.9240   -3.4451   -2.6632 N   0  0  0  0  0  0  0  0  0  0  0  0
    3.2539   -2.9380   -1.4543 C   0  0  0  0  0  0  0  0  0  0  0  0
    3.7518   -1.6159   -1.3522 C   0  0  0  0  0  0  0  0  0  0  0  0
    4.1428   -1.0395   -0.1290 N   0  0  0  0  0  0  0  0  0  0  0  0
    3.7413   -1.6209    1.1467 C   0  0  0  0  0  0  0  0  0  0  0  0
    4.1578   -0.7937    2.3261 C   0  0  0  0  0  0  0  0  0  0  0  0
    5.3573   -0.8622    2.9090 N   0  0  0  0  0  0  0  0  0  0  0  0
    5.3993    0.0416    3.9569 N   0  0  0  0  0  0  0  0  0  0  0  0
    4.2181    0.6675    3.9895 C   0  0  0  0  0  0  0  0  0  0  0  0
    3.7023    1.7069    4.7963 C   0  0  0  0  0  0  0  0  0  0  0  0
    2.4268    2.1748    4.5640 C   0  0  0  0  0  0  0  0  0  0  0  0
    1.6176    1.6112    3.5384 C   0  0  0  0  0  0  0  0  0  0  0  0
    0.3020    2.1136    3.3435 N   0  0  0  0  0  0  0  0  0  0  0  0
   -0.2288    3.3029    3.6723 C   0  0  0  0  0  0  0  0  0  0  0  0
   -1.5094    3.3697    3.3598 N   0  0  0  0  0  0  0  0  0  0  0  0
   -1.7547    2.1428    2.7902 N   0  0  0  0  0  0  0  0  0  0  0  0
   -0.6931    1.3908    2.7752 N   0  0  0  0  0  0  0  0  0  0  0  0
    2.1206    0.5873    2.7494 C   0  0  0  0  0  0  0  0  0  0  0  0
    3.3979    0.1449    2.9684 N   0  0  0  0  0  0  0  0  0  0  0  0
    3.8625   -0.8522   -2.5410 C   0  0  0  0  0  0  0  0  0  0  0  0
    3.5658   -0.8337   -4.6883 H   0  0  0  0  0  0  0  0  0  0  0  0
    2.7288   -3.2689   -4.7096 H   0  0  0  0  0  0  0  0  0  0  0  0
    3.1430   -3.6241   -0.6253 H   0  0  0  0  0  0  0  0  0  0  0  0
    4.6481   -0.1634   -0.1057 H   0  0  0  0  0  0  0  0  0  0  0  0
    2.6730   -1.8394    1.1932 H   0  0  0  0  0  0  0  0  0  0  0  0
    4.2638   -2.5715    1.2418 H   0  0  0  0  0  0  0  0  0  0  0  0
    4.3211    2.1462    5.5675 H   0  0  0  0  0  0  0  0  0  0  0  0
    2.0531    2.9772    5.1938 H   0  0  0  0  0  0  0  0  0  0  0  0
    0.3045    4.1204    4.1312 H   0  0  0  0  0  0  0  0  0  0  0  0
    1.5628    0.1291    1.9371 H   0  0  0  0  0  0  0  0  0  0  0  0
    4.2057    0.1715   -2.4970 H   0  0  0  0  0  0  0  0  0  0  0  0
    2.6287   -4.4366   -2.7163 H   0  0  0  0  0  0  0  0  0  0  0  0
  1 22  2  0
  1  2  1  0
  1 23  1  0
  2  3  2  0
  2 24  1  0
  3  4  1  0
  3 34  1  0
  4  5  2  0
  4 25  1  0
  5  6  1  0
  5 22  1  0
  6  7  1  0
  6 26  1  0
  7  8  1  0
  7 27  1  0
  7 28  1  0
  8 21  1  0
  8  9  2  0
  9 10  1  0
 10 11  2  0
 11 21  1  0
 11 12  1  0
 12 13  2  0
 12 29  1  0
 13 14  1  0
 13 30  1  0
 14 15  1  0
 14 20  2  0
 15 19  1  0
 15 16  1  0
 16 17  2  0
 16 31  1  0
 17 18  1  0
 18 19  2  0
 20 21  1  0
 20 32  1  0
 22 33  1  0
M  CHG  1   3   1
M  END
>  <i_m_ct_stereo_status>  (320) 
1

>  <s_m_source_file>  (320) 
/var/tmp/pbs.5076255.sched01/tmpsouvlwkc/11751gt6aqu.sdf

>  <i_m_source_file_index>  (320) 
15

>  <i_lp_mmshare_version>  (320) 
48012

>  <i_f3d_flags>  (320) 
0

>  <s_epik_input>  (320) 
W2NIXTFbY0hdW2NIXW5bY0hdYzFbTkhdW0NIMl1jKG5uMiluKGMyMylbY0hdYyhbY0hdW2NIXTMpLW40W2NIXW5ubjQ=

>  <s_epik_cmdline>  (320) 
J2VwaWtfcHl0aG9uJywgJy1waHQnLCAnMi4wJywgJy1waCcsICc3LjAnLCAnLXRuJywgJzgnLCAnLW1hJywgJzIwMCcsICctaW1hZScsICc8aW5maWxlLm1hZT4nLCAnLW9tYWUnLCAnPG91dGZpbGUubWFlPic=

>  <r_lp_tautomer_probability>  (320) 
0.999846

>  <r_epik_Ionization_Penalty>  (320) 
1.25378

>  <r_epik_Ionization_Penalty_Charging>  (320) 
1.25367

>  <r_epik_Ionization_Penalty_Neutral>  (320) 
0.00010969

>  <r_epik_State_Penalty>  (320) 
1.32368

>  <r_epik_Charging_Adjusted_Penalty>  (320) 
2.57734

>  <i_epik_Tot_Q>  (320) 
1

>  <i_epik_Tot_abs_Q>  (320) 
1

>  <s_lp_Force_Field>  (320) 
OPLS3e

>  <r_lp_Energy>  (320) 
38.0431

>  <b_lp_Chiralities_Consistent>  (320) 
1

>  <s_lp_Variant>  (320) 
99:0-2

>  <s_i_glide_gridfile>  (320) 
pfpi4k_grid

>  <i_i_glide_lignum>  (320) 
15

>  <i_i_glide_rotatable_bonds>  (320) 
4

>  <r_i_docking_score>  (320) 
-3.82474

>  <r_i_glide_ligand_efficiency>  (320) 
-0.173852

>  <r_i_glide_ligand_efficiency_sa>  (320) 
-0.487139

>  <r_i_glide_ligand_efficiency_ln>  (320) 
-0.934905

>  <r_i_glide_gscore>  (320) 
-3.82474

>  <r_i_glide_lipo>  (320) 
-0.322577

>  <r_i_glide_hbond>  (320) 
0

>  <r_i_glide_metal>  (320) 
-0

>  <r_i_glide_rewards>  (320) 
-1.46916

>  <r_i_glide_evdw>  (320) 
-29.0416

>  <r_i_glide_ecoul>  (320) 
-7.40749

>  <r_i_glide_erotb>  (320) 
0.844545

>  <r_i_glide_esite>  (320) 
-0.314341

>  <r_i_glide_emodel>  (320) 
-48.3962

>  <r_i_glide_energy>  (320) 
-36.4491

>  <r_i_glide_einternal>  (320) 
1.10206

>  <r_i_glide_intrahb_reward>  (320) 
-0

>  <i_i_glide_confnum>  (320) 
4

>  <i_i_glide_posenum>  (320) 
9

>  <r_i_glide_eff_state_penalty>  (320) 
0

>  <ligand_id>  (320) 
99

>  <original_smiles>  (320) 
c1cncc(NCc2nnc3ccc(-n4cnnn4)cn23)c1

>  <smiles>  (320) 
[H]c1c([H])c([H])[n+]([H])c([H])c1N([H])C([H])([H])c1nnc2c([H])c([H])c(-n3nnnc3[H])c([H])n12

$$$$
100:0:0
     RDKit          3D

 38 40  0  0  1  0  0  0  0  0999 V2000
   -9.3625   -3.8055   -6.0400 C   0  0  0  0  0  0  0  0  0  0  0  0
   -8.0523   -4.5618   -6.2526 C   0  0  0  0  0  0  0  0  0  0  0  0
   -7.3916   -4.9972   -4.9353 C   0  0  0  0  0  0  0  0  0  0  0  0
   -6.1420   -5.8603   -5.1299 C   0  0  0  0  0  0  0  0  0  0  0  0
   -5.0148   -5.3719   -5.1193 O   0  0  0  0  0  0  0  0  0  0  0  0
   -6.3270   -7.3737   -5.2781 C   0  0  0  0  0  0  0  0  0  0  0  0
   -5.9164   -7.9749   -6.6499 C   0  0  2  0  0  0  0  0  0  0  0  0
   -6.8319   -7.6281   -7.8219 C   0  0  0  0  0  0  0  0  0  0  0  0
   -8.1700   -8.3217   -7.6513 C   0  0  0  0  0  0  0  0  0  0  0  0
   -8.0572   -9.8247   -7.4899 C   0  0  0  0  0  0  0  0  0  0  0  0
   -9.0879  -10.7080   -7.8698 C   0  0  0  0  0  0  0  0  0  0  0  0
   -8.9269  -12.0892   -7.7184 C   0  0  0  0  0  0  0  0  0  0  0  0
   -7.7237  -12.5775   -7.1878 C   0  0  0  0  0  0  0  0  0  0  0  0
   -6.6627  -11.7364   -6.7940 C   0  0  0  0  0  0  0  0  0  0  0  0
   -5.5131  -12.2646   -6.3073 N   0  0  0  0  0  0  0  0  0  0  0  0
   -4.5083  -11.4649   -5.9203 C   0  0  0  0  0  0  0  0  0  0  0  0
   -4.5793  -10.0721   -6.0003 C   0  0  0  0  0  0  0  0  0  0  0  0
   -5.7436   -9.4831   -6.5161 C   0  0  0  0  0  0  0  0  0  0  0  0
   -6.8313  -10.3188   -6.9364 C   0  0  0  0  0  0  0  0  0  0  0  0
   -9.8030   -3.5345   -7.0018 H   0  0  0  0  0  0  0  0  0  0  0  0
   -9.2102   -2.8930   -5.4619 H   0  0  0  0  0  0  0  0  0  0  0  0
  -10.0856   -4.4354   -5.5194 H   0  0  0  0  0  0  0  0  0  0  0  0
   -8.3174   -5.4322   -6.8447 H   0  0  0  0  0  0  0  0  0  0  0  0
   -7.3615   -3.9534   -6.8392 H   0  0  0  0  0  0  0  0  0  0  0  0
   -7.1213   -4.1218   -4.3443 H   0  0  0  0  0  0  0  0  0  0  0  0
   -8.1048   -5.5641   -4.3425 H   0  0  0  0  0  0  0  0  0  0  0  0
   -5.6847   -7.8136   -4.5103 H   0  0  0  0  0  0  0  0  0  0  0  0
   -7.3512   -7.6466   -5.0179 H   0  0  0  0  0  0  0  0  0  0  0  0
   -4.9307   -7.5844   -6.9021 H   0  0  0  0  0  0  0  0  0  0  0  0
   -6.9739   -6.5598   -7.9222 H   0  0  0  0  0  0  0  0  0  0  0  0
   -6.3727   -7.9639   -8.7523 H   0  0  0  0  0  0  0  0  0  0  0  0
   -8.6823   -7.9267   -6.7769 H   0  0  0  0  0  0  0  0  0  0  0  0
   -8.7964   -8.1096   -8.5165 H   0  0  0  0  0  0  0  0  0  0  0  0
  -10.0084  -10.3237   -8.2869 H   0  0  0  0  0  0  0  0  0  0  0  0
   -9.7095  -12.7729   -8.0167 H   0  0  0  0  0  0  0  0  0  0  0  0
   -7.5943  -13.6412   -7.0796 H   0  0  0  0  0  0  0  0  0  0  0  0
   -3.6289  -11.9491   -5.5297 H   0  0  0  0  0  0  0  0  0  0  0  0
   -3.7413   -9.4672   -5.6728 H   0  0  0  0  0  0  0  0  0  0  0  0
  1  2  1  0
  1 20  1  0
  1 21  1  0
  1 22  1  0
  2  3  1  0
  2 23  1  0
  2 24  1  0
  3  4  1  0
  3 25  1  0
  3 26  1  0
  4  5  2  0
  4  6  1  0
  6  7  1  0
  6 27  1  0
  6 28  1  0
  7 18  1  0
  7  8  1  0
  7 29  1  6
  8  9  1  0
  8 30  1  0
  8 31  1  0
  9 10  1  0
  9 32  1  0
  9 33  1  0
 10 19  2  0
 10 11  1  0
 11 12  2  0
 11 34  1  0
 12 13  1  0
 12 35  1  0
 13 14  2  0
 13 36  1  0
 14 19  1  0
 14 15  1  0
 15 16  2  0
 16 17  1  0
 16 37  1  0
 17 18  2  0
 17 38  1  0
 18 19  1  0
M  END
>  <i_m_ct_stereo_status>  (321) 
1

>  <s_m_source_file>  (321) 
/var/tmp/pbs.5076255.sched01/tmpsouvlwkc/11751gt6aqu.sdf

>  <i_m_source_file_index>  (321) 
16

>  <i_lp_mmshare_version>  (321) 
48012

>  <i_f3d_flags>  (321) 
0

>  <s_epik_input>  (321) 
W0NIM11bQ0gyXVtDSDJdQyg9TylbQ0gyXVtDQEhdKFtDSDJdW0NIMl0xKWMyW2NIXVtjSF1uYyhjMmMxMylbY0hdW2NIXVtjSF0z

>  <s_epik_cmdline>  (321) 
J2VwaWtfcHl0aG9uJywgJy1waHQnLCAnMi4wJywgJy1waCcsICc3LjAnLCAnLXRuJywgJzgnLCAnLW1hJywgJzIwMCcsICctaW1hZScsICc8aW5maWxlLm1hZT4nLCAnLW9tYWUnLCAnPG91dGZpbGUubWFlPic=

>  <r_lp_tautomer_probability>  (321) 
1

>  <r_epik_Ionization_Penalty>  (321) 
0.091046

>  <r_epik_Ionization_Penalty_Charging>  (321) 
0

>  <r_epik_Ionization_Penalty_Neutral>  (321) 
0.091046

>  <r_epik_State_Penalty>  (321) 
0.081393

>  <r_epik_Charging_Adjusted_Penalty>  (321) 
0.081393

>  <i_epik_Tot_Q>  (321) 
0

>  <i_epik_Tot_abs_Q>  (321) 
0

>  <s_lp_Force_Field>  (321) 
OPLS3e

>  <r_lp_Energy>  (321) 
26.6584

>  <b_lp_Chiralities_Consistent>  (321) 
1

>  <s_lp_Variant>  (321) 
100:0-1

>  <s_i_glide_gridfile>  (321) 
pfpi4k_grid

>  <i_i_glide_lignum>  (321) 
16

>  <i_i_glide_rotatable_bonds>  (321) 
4

>  <r_i_docking_score>  (321) 
-7.32249

>  <r_i_glide_ligand_efficiency>  (321) 
-0.385394

>  <r_i_glide_ligand_efficiency_sa>  (321) 
-1.02839

>  <r_i_glide_ligand_efficiency_ln>  (321) 
-1.85641

>  <r_i_glide_gscore>  (321) 
-7.32249

>  <r_i_glide_lipo>  (321) 
-2.66174

>  <r_i_glide_hbond>  (321) 
-0.279422

>  <r_i_glide_metal>  (321) 
-0

>  <r_i_glide_rewards>  (321) 
-3.10802

>  <r_i_glide_evdw>  (321) 
-29.0671

>  <r_i_glide_ecoul>  (321) 
-2.44899

>  <r_i_glide_erotb>  (321) 
0.547398

>  <r_i_glide_esite>  (321) 
0

>  <r_i_glide_emodel>  (321) 
-43.234

>  <r_i_glide_energy>  (321) 
-31.5161

>  <r_i_glide_einternal>  (321) 
3.7365

>  <r_i_glide_intrahb_reward>  (321) 
-0

>  <i_i_glide_confnum>  (321) 
2

>  <i_i_glide_posenum>  (321) 
5

>  <r_i_glide_eff_state_penalty>  (321) 
0

>  <ligand_id>  (321) 
100

>  <original_smiles>  (321) 
CCCC(=O)CC1CCc2cccc3nccc1c23

>  <smiles>  (321) 
[H]c1nc2c([H])c([H])c([H])c3c2c(c1[H])C([H])(C([H])([H])C(=O)C([H])([H])C([H])([H])C([H])([H])[H])C([H])([H])C3([H])[H]

$$$$
100:0:1
     RDKit          3D

 38 40  0  0  1  0  0  0  0  0999 V2000
   -8.2306   -4.3491   -4.7521 C   0  0  0  0  0  0  0  0  0  0  0  0
   -7.4912   -5.5590   -5.3277 C   0  0  0  0  0  0  0  0  0  0  0  0
   -6.2661   -5.9471   -4.4874 C   0  0  0  0  0  0  0  0  0  0  0  0
   -5.3715   -6.9670   -5.1888 C   0  0  0  0  0  0  0  0  0  0  0  0
   -4.2274   -6.6663   -5.5196 O   0  0  0  0  0  0  0  0  0  0  0  0
   -5.9129   -8.3831   -5.3923 C   0  0  0  0  0  0  0  0  0  0  0  0
   -5.7195   -8.9902   -6.8013 C   0  0  2  0  0  0  0  0  0  0  0  0
   -6.5172   -8.2939   -7.8970 C   0  0  0  0  0  0  0  0  0  0  0  0
   -7.9979   -8.5927   -7.7388 C   0  0  0  0  0  0  0  0  0  0  0  0
   -8.3232  -10.0738   -7.6697 C   0  0  0  0  0  0  0  0  0  0  0  0
   -9.5729  -10.5899   -8.0644 C   0  0  0  0  0  0  0  0  0  0  0  0
   -9.8244  -11.9642   -7.9923 C   0  0  0  0  0  0  0  0  0  0  0  0
   -8.8157  -12.8146   -7.5244 C   0  0  0  0  0  0  0  0  0  0  0  0
   -7.5472  -12.3492   -7.1071 C   0  0  0  0  0  0  0  0  0  0  0  0
   -6.6091  -13.2177   -6.6577 N   0  0  0  0  0  0  0  0  0  0  0  0
   -5.3995  -12.7757   -6.2824 C   0  0  0  0  0  0  0  0  0  0  0  0
   -5.0445  -11.4265   -6.3180 C   0  0  0  0  0  0  0  0  0  0  0  0
   -5.9949  -10.4883   -6.7620 C   0  0  0  0  0  0  0  0  0  0  0  0
   -7.2896  -10.9386   -7.1818 C   0  0  0  0  0  0  0  0  0  0  0  0
   -9.1071   -4.1032   -5.3532 H   0  0  0  0  0  0  0  0  0  0  0  0
   -7.5860   -3.4696   -4.7216 H   0  0  0  0  0  0  0  0  0  0  0  0
   -8.5731   -4.5502   -3.7377 H   0  0  0  0  0  0  0  0  0  0  0  0
   -8.1818   -6.3996   -5.3676 H   0  0  0  0  0  0  0  0  0  0  0  0
   -7.1938   -5.3421   -6.3548 H   0  0  0  0  0  0  0  0  0  0  0  0
   -5.6716   -5.0588   -4.2775 H   0  0  0  0  0  0  0  0  0  0  0  0
   -6.5718   -6.3533   -3.5242 H   0  0  0  0  0  0  0  0  0  0  0  0
   -5.3785   -9.0103   -4.6765 H   0  0  0  0  0  0  0  0  0  0  0  0
   -6.9681   -8.4103   -5.1172 H   0  0  0  0  0  0  0  0  0  0  0  0
   -4.6676   -8.8870   -7.0627 H   0  0  0  0  0  0  0  0  0  0  0  0
   -6.3448   -7.2232   -7.8921 H   0  0  0  0  0  0  0  0  0  0  0  0
   -6.1862   -8.6630   -8.8666 H   0  0  0  0  0  0  0  0  0  0  0  0
   -8.3906   -8.1169   -6.8413 H   0  0  0  0  0  0  0  0  0  0  0  0
   -8.5385   -8.1577   -8.5785 H   0  0  0  0  0  0  0  0  0  0  0  0
  -10.3448   -9.9280   -8.4280 H   0  0  0  0  0  0  0  0  0  0  0  0
  -10.7824  -12.3644   -8.2954 H   0  0  0  0  0  0  0  0  0  0  0  0
   -9.0026  -13.8750   -7.4770 H   0  0  0  0  0  0  0  0  0  0  0  0
   -4.7003  -13.5227   -5.9361 H   0  0  0  0  0  0  0  0  0  0  0  0
   -4.0648  -11.1101   -5.9830 H   0  0  0  0  0  0  0  0  0  0  0  0
  1  2  1  0
  1 20  1  0
  1 21  1  0
  1 22  1  0
  2  3  1  0
  2 23  1  0
  2 24  1  0
  3  4  1  0
  3 25  1  0
  3 26  1  0
  4  5  2  0
  4  6  1  0
  6  7  1  0
  6 27  1  0
  6 28  1  0
  7 18  1  0
  7  8  1  0
  7 29  1  6
  8  9  1  0
  8 30  1  0
  8 31  1  0
  9 10  1  0
  9 32  1  0
  9 33  1  0
 10 19  2  0
 10 11  1  0
 11 12  2  0
 11 34  1  0
 12 13  1  0
 12 35  1  0
 13 14  2  0
 13 36  1  0
 14 19  1  0
 14 15  1  0
 15 16  2  0
 16 17  1  0
 16 37  1  0
 17 18  2  0
 17 38  1  0
 18 19  1  0
M  END
>  <i_m_ct_stereo_status>  (322) 
1

>  <s_m_source_file>  (322) 
/var/tmp/pbs.5076255.sched01/tmpsouvlwkc/11751gt6aqu.sdf

>  <i_m_source_file_index>  (322) 
16

>  <i_lp_mmshare_version>  (322) 
48012

>  <i_f3d_flags>  (322) 
0

>  <s_epik_input>  (322) 
W0NIM11bQ0gyXVtDSDJdQyg9TylbQ0gyXVtDQEhdKFtDSDJdW0NIMl0xKWMyW2NIXVtjSF1uYyhjMmMxMylbY0hdW2NIXVtjSF0z

>  <s_epik_cmdline>  (322) 
J2VwaWtfcHl0aG9uJywgJy1waHQnLCAnMi4wJywgJy1waCcsICc3LjAnLCAnLXRuJywgJzgnLCAnLW1hJywgJzIwMCcsICctaW1hZScsICc8aW5maWxlLm1hZT4nLCAnLW9tYWUnLCAnPG91dGZpbGUubWFlPic=

>  <r_lp_tautomer_probability>  (322) 
1

>  <r_epik_Ionization_Penalty>  (322) 
0.091046

>  <r_epik_Ionization_Penalty_Charging>  (322) 
0

>  <r_epik_Ionization_Penalty_Neutral>  (322) 
0.091046

>  <r_epik_State_Penalty>  (322) 
0.081393

>  <r_epik_Charging_Adjusted_Penalty>  (322) 
0.081393

>  <i_epik_Tot_Q>  (322) 
0

>  <i_epik_Tot_abs_Q>  (322) 
0

>  <s_lp_Force_Field>  (322) 
OPLS3e

>  <r_lp_Energy>  (322) 
26.6584

>  <b_lp_Chiralities_Consistent>  (322) 
1

>  <s_lp_Variant>  (322) 
100:0-1

>  <s_i_glide_gridfile>  (322) 
pfpi4k_grid

>  <i_i_glide_lignum>  (322) 
16

>  <i_i_glide_rotatable_bonds>  (322) 
4

>  <r_i_docking_score>  (322) 
-7.0197

>  <r_i_glide_ligand_efficiency>  (322) 
-0.369458

>  <r_i_glide_ligand_efficiency_sa>  (322) 
-0.985862

>  <r_i_glide_ligand_efficiency_ln>  (322) 
-1.77964

>  <r_i_glide_gscore>  (322) 
-7.0197

>  <r_i_glide_lipo>  (322) 
-2.3175

>  <r_i_glide_hbond>  (322) 
-0.28601

>  <r_i_glide_metal>  (322) 
-0

>  <r_i_glide_rewards>  (322) 
-3.0544

>  <r_i_glide_evdw>  (322) 
-27.5963

>  <r_i_glide_ecoul>  (322) 
-3.52913

>  <r_i_glide_erotb>  (322) 
0.547398

>  <r_i_glide_esite>  (322) 
0

>  <r_i_glide_emodel>  (322) 
-42.7738

>  <r_i_glide_energy>  (322) 
-31.1255

>  <r_i_glide_einternal>  (322) 
3.44108

>  <r_i_glide_intrahb_reward>  (322) 
-0

>  <i_i_glide_confnum>  (322) 
2

>  <i_i_glide_posenum>  (322) 
1

>  <r_i_glide_eff_state_penalty>  (322) 
0

>  <ligand_id>  (322) 
100

>  <original_smiles>  (322) 
CCCC(=O)CC1CCc2cccc3nccc1c23

>  <smiles>  (322) 
[H]c1nc2c([H])c([H])c([H])c3c2c(c1[H])C([H])(C([H])([H])C(=O)C([H])([H])C([H])([H])C([H])([H])[H])C([H])([H])C3([H])[H]

$$$$
100:0:2
     RDKit          3D

 38 40  0  0  1  0  0  0  0  0999 V2000
   -7.3299   -4.1206   -4.4017 C   0  0  0  0  0  0  0  0  0  0  0  0
   -6.1816   -4.9678   -4.9489 C   0  0  0  0  0  0  0  0  0  0  0  0
   -6.3124   -6.4326   -4.5058 C   0  0  0  0  0  0  0  0  0  0  0  0
   -5.3436   -7.3803   -5.2093 C   0  0  0  0  0  0  0  0  0  0  0  0
   -4.2058   -7.0272   -5.5172 O   0  0  0  0  0  0  0  0  0  0  0  0
   -5.8336   -8.8116   -5.4593 C   0  0  0  0  0  0  0  0  0  0  0  0
   -5.6728   -9.3401   -6.9040 C   0  0  2  0  0  0  0  0  0  0  0  0
   -6.3968   -8.5181   -7.9682 C   0  0  0  0  0  0  0  0  0  0  0  0
   -7.8992   -8.7033   -7.8408 C   0  0  0  0  0  0  0  0  0  0  0  0
   -8.3374  -10.1548   -7.8736 C   0  0  0  0  0  0  0  0  0  0  0  0
   -9.6165  -10.5473   -8.3197 C   0  0  0  0  0  0  0  0  0  0  0  0
   -9.9745  -11.8997   -8.3380 C   0  0  0  0  0  0  0  0  0  0  0  0
   -9.0422  -12.8558   -7.9082 C   0  0  0  0  0  0  0  0  0  0  0  0
   -7.7533  -12.5150   -7.4439 C   0  0  0  0  0  0  0  0  0  0  0  0
   -6.8950  -13.4821   -7.0334 N   0  0  0  0  0  0  0  0  0  0  0  0
   -5.6600  -13.1619   -6.6152 C   0  0  0  0  0  0  0  0  0  0  0  0
   -5.1990  -11.8450   -6.5606 C   0  0  0  0  0  0  0  0  0  0  0  0
   -6.0633  -10.8112   -6.9591 C   0  0  0  0  0  0  0  0  0  0  0  0
   -7.3825  -11.1287   -7.4251 C   0  0  0  0  0  0  0  0  0  0  0  0
   -7.2257   -3.0858   -4.7175 H   0  0  0  0  0  0  0  0  0  0  0  0
   -7.3348   -4.1453   -3.3097 H   0  0  0  0  0  0  0  0  0  0  0  0
   -8.3032   -4.4764   -4.7463 H   0  0  0  0  0  0  0  0  0  0  0  0
   -6.1850   -4.8971   -6.0356 H   0  0  0  0  0  0  0  0  0  0  0  0
   -5.2336   -4.5460   -4.6117 H   0  0  0  0  0  0  0  0  0  0  0  0
   -6.1551   -6.5109   -3.4303 H   0  0  0  0  0  0  0  0  0  0  0  0
   -7.3249   -6.7768   -4.7077 H   0  0  0  0  0  0  0  0  0  0  0  0
   -5.2565   -9.4511   -4.7901 H   0  0  0  0  0  0  0  0  0  0  0  0
   -6.8764   -8.8935   -5.1431 H   0  0  0  0  0  0  0  0  0  0  0  0
   -4.6110   -9.2991   -7.1428 H   0  0  0  0  0  0  0  0  0  0  0  0
   -6.1308   -7.4661   -7.9058 H   0  0  0  0  0  0  0  0  0  0  0  0
   -6.0844   -8.8572   -8.9580 H   0  0  0  0  0  0  0  0  0  0  0  0
   -8.2572   -8.2517   -6.9142 H   0  0  0  0  0  0  0  0  0  0  0  0
   -8.3864   -8.1796   -8.6647 H   0  0  0  0  0  0  0  0  0  0  0  0
  -10.3302   -9.8066   -8.6535 H   0  0  0  0  0  0  0  0  0  0  0  0
  -10.9549  -12.2065   -8.6804 H   0  0  0  0  0  0  0  0  0  0  0  0
   -9.3163  -13.8957   -7.9305 H   0  0  0  0  0  0  0  0  0  0  0  0
   -5.0292  -13.9828   -6.3165 H   0  0  0  0  0  0  0  0  0  0  0  0
   -4.2011  -11.6313   -6.1967 H   0  0  0  0  0  0  0  0  0  0  0  0
  1  2  1  0
  1 20  1  0
  1 21  1  0
  1 22  1  0
  2  3  1  0
  2 23  1  0
  2 24  1  0
  3  4  1  0
  3 25  1  0
  3 26  1  0
  4  5  2  0
  4  6  1  0
  6  7  1  0
  6 27  1  0
  6 28  1  0
  7 18  1  0
  7  8  1  0
  7 29  1  6
  8  9  1  0
  8 30  1  0
  8 31  1  0
  9 10  1  0
  9 32  1  0
  9 33  1  0
 10 19  2  0
 10 11  1  0
 11 12  2  0
 11 34  1  0
 12 13  1  0
 12 35  1  0
 13 14  2  0
 13 36  1  0
 14 19  1  0
 14 15  1  0
 15 16  2  0
 16 17  1  0
 16 37  1  0
 17 18  2  0
 17 38  1  0
 18 19  1  0
M  END
>  <i_m_ct_stereo_status>  (323) 
1

>  <s_m_source_file>  (323) 
/var/tmp/pbs.5076255.sched01/tmpsouvlwkc/11751gt6aqu.sdf

>  <i_m_source_file_index>  (323) 
16

>  <i_lp_mmshare_version>  (323) 
48012

>  <i_f3d_flags>  (323) 
0

>  <s_epik_input>  (323) 
W0NIM11bQ0gyXVtDSDJdQyg9TylbQ0gyXVtDQEhdKFtDSDJdW0NIMl0xKWMyW2NIXVtjSF1uYyhjMmMxMylbY0hdW2NIXVtjSF0z

>  <s_epik_cmdline>  (323) 
J2VwaWtfcHl0aG9uJywgJy1waHQnLCAnMi4wJywgJy1waCcsICc3LjAnLCAnLXRuJywgJzgnLCAnLW1hJywgJzIwMCcsICctaW1hZScsICc8aW5maWxlLm1hZT4nLCAnLW9tYWUnLCAnPG91dGZpbGUubWFlPic=

>  <r_lp_tautomer_probability>  (323) 
1

>  <r_epik_Ionization_Penalty>  (323) 
0.091046

>  <r_epik_Ionization_Penalty_Charging>  (323) 
0

>  <r_epik_Ionization_Penalty_Neutral>  (323) 
0.091046

>  <r_epik_State_Penalty>  (323) 
0.081393

>  <r_epik_Charging_Adjusted_Penalty>  (323) 
0.081393

>  <i_epik_Tot_Q>  (323) 
0

>  <i_epik_Tot_abs_Q>  (323) 
0

>  <s_lp_Force_Field>  (323) 
OPLS3e

>  <r_lp_Energy>  (323) 
26.6584

>  <b_lp_Chiralities_Consistent>  (323) 
1

>  <s_lp_Variant>  (323) 
100:0-1

>  <s_i_glide_gridfile>  (323) 
pfpi4k_grid

>  <i_i_glide_lignum>  (323) 
16

>  <i_i_glide_rotatable_bonds>  (323) 
4

>  <r_i_docking_score>  (323) 
-6.00421

>  <r_i_glide_ligand_efficiency>  (323) 
-0.316011

>  <r_i_glide_ligand_efficiency_sa>  (323) 
-0.843244

>  <r_i_glide_ligand_efficiency_ln>  (323) 
-1.5222

>  <r_i_glide_gscore>  (323) 
-6.00421

>  <r_i_glide_lipo>  (323) 
-2.23648

>  <r_i_glide_hbond>  (323) 
-0.193829

>  <r_i_glide_metal>  (323) 
-0

>  <r_i_glide_rewards>  (323) 
-2.37947

>  <r_i_glide_evdw>  (323) 
-27.592

>  <r_i_glide_ecoul>  (323) 
-2.41483

>  <r_i_glide_erotb>  (323) 
0.547398

>  <r_i_glide_esite>  (323) 
0

>  <r_i_glide_emodel>  (323) 
-39.9855

>  <r_i_glide_energy>  (323) 
-30.0068

>  <r_i_glide_einternal>  (323) 
2.91273

>  <r_i_glide_intrahb_reward>  (323) 
-0

>  <i_i_glide_confnum>  (323) 
1

>  <i_i_glide_posenum>  (323) 
7

>  <r_i_glide_eff_state_penalty>  (323) 
0

>  <ligand_id>  (323) 
100

>  <original_smiles>  (323) 
CCCC(=O)CC1CCc2cccc3nccc1c23

>  <smiles>  (323) 
[H]c1nc2c([H])c([H])c([H])c3c2c(c1[H])C([H])(C([H])([H])C(=O)C([H])([H])C([H])([H])C([H])([H])[H])C([H])([H])C3([H])[H]

$$$$
100:1:0
     RDKit          3D

 39 41  0  0  1  0  0  0  0  0999 V2000
   -6.5396   -4.2576   -4.1993 C   0  0  0  0  0  0  0  0  0  0  0  0
   -5.8605   -5.2783   -5.1217 C   0  0  0  0  0  0  0  0  0  0  0  0
   -6.1603   -6.7274   -4.7026 C   0  0  0  0  0  0  0  0  0  0  0  0
   -5.8027   -7.7724   -5.7636 C   0  0  0  0  0  0  0  0  0  0  0  0
   -4.7073   -7.7776   -6.3174 O   0  0  0  0  0  0  0  0  0  0  0  0
   -6.8549   -8.8447   -6.0668 C   0  0  0  0  0  0  0  0  0  0  0  0
   -7.1184   -9.1434   -7.5637 C   0  0  2  0  0  0  0  0  0  0  0  0
   -7.4370   -7.9229   -8.4261 C   0  0  0  0  0  0  0  0  0  0  0  0
   -8.8248   -7.4020   -8.1006 C   0  0  0  0  0  0  0  0  0  0  0  0
   -9.9166   -8.4529   -8.2134 C   0  0  0  0  0  0  0  0  0  0  0  0
  -11.2583   -8.1301   -8.4928 C   0  0  0  0  0  0  0  0  0  0  0  0
  -12.2251   -9.1361   -8.5817 C   0  0  0  0  0  0  0  0  0  0  0  0
  -11.8452  -10.4747   -8.3890 C   0  0  0  0  0  0  0  0  0  0  0  0
  -10.5091  -10.8353   -8.0969 C   0  0  0  0  0  0  0  0  0  0  0  0
  -10.1847  -12.1357   -7.9229 N   0  0  0  0  0  0  0  0  0  0  0  0
   -8.9316  -12.5526   -7.6510 C   0  0  0  0  0  0  0  0  0  0  0  0
   -7.9034  -11.6034   -7.5320 C   0  0  0  0  0  0  0  0  0  0  0  0
   -8.1832  -10.2307   -7.7006 C   0  0  0  0  0  0  0  0  0  0  0  0
   -9.5208   -9.8091   -8.0009 C   0  0  0  0  0  0  0  0  0  0  0  0
   -6.3069   -3.2395   -4.5085 H   0  0  0  0  0  0  0  0  0  0  0  0
   -6.2094   -4.3623   -3.1674 H   0  0  0  0  0  0  0  0  0  0  0  0
   -7.6246   -4.3684   -4.2087 H   0  0  0  0  0  0  0  0  0  0  0  0
   -6.2047   -5.1034   -6.1414 H   0  0  0  0  0  0  0  0  0  0  0  0
   -4.7841   -5.1034   -5.1215 H   0  0  0  0  0  0  0  0  0  0  0  0
   -5.6332   -6.9628   -3.7787 H   0  0  0  0  0  0  0  0  0  0  0  0
   -7.2223   -6.8211   -4.4880 H   0  0  0  0  0  0  0  0  0  0  0  0
   -6.5404   -9.7588   -5.5608 H   0  0  0  0  0  0  0  0  0  0  0  0
   -7.7824   -8.5462   -5.6057 H   0  0  0  0  0  0  0  0  0  0  0  0
   -6.1998   -9.5707   -7.9644 H   0  0  0  0  0  0  0  0  0  0  0  0
   -6.6931   -7.1390   -8.3024 H   0  0  0  0  0  0  0  0  0  0  0  0
   -7.4076   -8.2090   -9.4779 H   0  0  0  0  0  0  0  0  0  0  0  0
   -8.8411   -6.9746   -7.1000 H   0  0  0  0  0  0  0  0  0  0  0  0
   -9.0637   -6.5777   -8.7715 H   0  0  0  0  0  0  0  0  0  0  0  0
  -11.5530   -7.0993   -8.6380 H   0  0  0  0  0  0  0  0  0  0  0  0
  -13.2544   -8.8779   -8.7958 H   0  0  0  0  0  0  0  0  0  0  0  0
  -12.6125  -11.2308   -8.4623 H   0  0  0  0  0  0  0  0  0  0  0  0
   -8.7882  -13.6186   -7.5359 H   0  0  0  0  0  0  0  0  0  0  0  0
   -6.8941  -11.9218   -7.3096 H   0  0  0  0  0  0  0  0  0  0  0  0
  -10.9285  -12.8281   -8.0054 H   0  0  0  0  0  0  0  0  0  0  0  0
  1  2  1  0
  1 20  1  0
  1 21  1  0
  1 22  1  0
  2  3  1  0
  2 23  1  0
  2 24  1  0
  3  4  1  0
  3 25  1  0
  3 26  1  0
  4  5  2  0
  4  6  1  0
  6  7  1  0
  6 27  1  0
  6 28  1  0
  7 18  1  0
  7  8  1  0
  7 29  1  6
  8  9  1  0
  8 30  1  0
  8 31  1  0
  9 10  1  0
  9 32  1  0
  9 33  1  0
 10 19  2  0
 10 11  1  0
 11 12  2  0
 11 34  1  0
 12 13  1  0
 12 35  1  0
 13 14  2  0
 13 36  1  0
 14 19  1  0
 14 15  1  0
 15 16  2  0
 15 39  1  0
 16 17  1  0
 16 37  1  0
 17 18  2  0
 17 38  1  0
 18 19  1  0
M  CHG  1  15   1
M  END
>  <i_m_ct_stereo_status>  (324) 
1

>  <s_m_source_file>  (324) 
/var/tmp/pbs.5076255.sched01/tmpsouvlwkc/11751gt6aqu.sdf

>  <i_m_source_file_index>  (324) 
17

>  <i_lp_mmshare_version>  (324) 
48012

>  <i_f3d_flags>  (324) 
0

>  <s_epik_input>  (324) 
W0NIM11bQ0gyXVtDSDJdQyg9TylbQ0gyXVtDQEhdKFtDSDJdW0NIMl0xKWMyW2NIXVtjSF1uYyhjMmMxMylbY0hdW2NIXVtjSF0z

>  <s_epik_cmdline>  (324) 
J2VwaWtfcHl0aG9uJywgJy1waHQnLCAnMi4wJywgJy1waCcsICc3LjAnLCAnLXRuJywgJzgnLCAnLW1hJywgJzIwMCcsICctaW1hZScsICc8aW5maWxlLm1hZT4nLCAnLW9tYWUnLCAnPG91dGZpbGUubWFlPic=

>  <r_lp_tautomer_probability>  (324) 
1

>  <r_epik_Ionization_Penalty>  (324) 
1.15464

>  <r_epik_Ionization_Penalty_Charging>  (324) 
1.15464

>  <r_epik_Ionization_Penalty_Neutral>  (324) 
3.13635e-13

>  <r_epik_State_Penalty>  (324) 
1.21634

>  <r_epik_Charging_Adjusted_Penalty>  (324) 
2.37098

>  <i_epik_Tot_Q>  (324) 
1

>  <i_epik_Tot_abs_Q>  (324) 
1

>  <s_lp_Force_Field>  (324) 
OPLS3e

>  <r_lp_Energy>  (324) 
28.5238

>  <b_lp_Chiralities_Consistent>  (324) 
1

>  <s_lp_Variant>  (324) 
100:0-2

>  <s_i_glide_gridfile>  (324) 
pfpi4k_grid

>  <i_i_glide_lignum>  (324) 
17

>  <i_i_glide_rotatable_bonds>  (324) 
4

>  <r_i_docking_score>  (324) 
-4.0822

>  <r_i_glide_ligand_efficiency>  (324) 
-0.214853

>  <r_i_glide_ligand_efficiency_sa>  (324) 
-0.573313

>  <r_i_glide_ligand_efficiency_ln>  (324) 
-1.03493

>  <r_i_glide_gscore>  (324) 
-4.0822

>  <r_i_glide_lipo>  (324) 
-1.79824

>  <r_i_glide_hbond>  (324) 
0

>  <r_i_glide_metal>  (324) 
-0

>  <r_i_glide_rewards>  (324) 
-1.55885

>  <r_i_glide_evdw>  (324) 
-23.3992

>  <r_i_glide_ecoul>  (324) 
-0.646647

>  <r_i_glide_erotb>  (324) 
0.543677

>  <r_i_glide_esite>  (324) 
-0.00182311

>  <r_i_glide_emodel>  (324) 
-27.8406

>  <r_i_glide_energy>  (324) 
-24.0459

>  <r_i_glide_einternal>  (324) 
3.60903

>  <r_i_glide_intrahb_reward>  (324) 
-0

>  <i_i_glide_confnum>  (324) 
2

>  <i_i_glide_posenum>  (324) 
1

>  <r_i_glide_eff_state_penalty>  (324) 
0

>  <ligand_id>  (324) 
100

>  <original_smiles>  (324) 
CCCC(=O)CC1CCc2cccc3nccc1c23

>  <smiles>  (324) 
[H]c1c([H])c([H])c2c3c1C([H])([H])C([H])([H])C([H])(C([H])([H])C(=O)C([H])([H])C([H])([H])C([H])([H])[H])c3c([H])c([H])[n+]2[H]

$$$$
100:1:1
     RDKit          3D

 39 41  0  0  1  0  0  0  0  0999 V2000
   -6.8267   -4.5473   -4.1159 C   0  0  0  0  0  0  0  0  0  0  0  0
   -5.9853   -5.8503   -4.2063 C   0  0  0  0  0  0  0  0  0  0  0  0
   -6.5997   -7.0547   -4.9505 C   0  0  0  0  0  0  0  0  0  0  0  0
   -7.2206   -6.7160   -6.3036 C   0  0  0  0  0  0  0  0  0  0  0  0
   -7.2344   -5.5690   -6.7219 O   0  0  0  0  0  0  0  0  0  0  0  0
   -7.8677   -7.8701   -7.1005 C   0  0  0  0  0  0  0  0  0  0  0  0
   -7.9252   -7.6632   -8.6465 C   0  0  2  0  0  0  0  0  0  0  0  0
   -8.6180   -6.3898   -9.1856 C   0  0  0  0  0  0  0  0  0  0  0  0
  -10.1081   -6.4878   -8.9225 C   0  0  0  0  0  0  0  0  0  0  0  0
  -10.7364   -7.7263   -9.5277 C   0  0  0  0  0  0  0  0  0  0  0  0
  -12.0733   -7.7684   -9.9372 C   0  0  0  0  0  0  0  0  0  0  0  0
  -12.6073   -8.9316  -10.5082 C   0  0  0  0  0  0  0  0  0  0  0  0
  -11.7886  -10.0571  -10.6712 C   0  0  0  0  0  0  0  0  0  0  0  0
  -10.4317  -10.0582  -10.2691 C   0  0  0  0  0  0  0  0  0  0  0  0
   -9.6695  -11.1483  -10.4394 N   0  0  0  0  0  0  0  0  0  0  0  0
   -8.3687  -11.2224  -10.0748 C   0  0  0  0  0  0  0  0  0  0  0  0
   -7.7695  -10.1036   -9.4857 C   0  0  0  0  0  0  0  0  0  0  0  0
   -8.5130   -8.9187   -9.2944 C   0  0  0  0  0  0  0  0  0  0  0  0
   -9.8886   -8.8696   -9.6829 C   0  0  0  0  0  0  0  0  0  0  0  0
   -6.3351   -3.8286   -3.4534 H   0  0  0  0  0  0  0  0  0  0  0  0
   -7.8099   -4.7505   -3.6839 H   0  0  0  0  0  0  0  0  0  0  0  0
   -6.9794   -4.0675   -5.0744 H   0  0  0  0  0  0  0  0  0  0  0  0
   -5.0134   -5.6234   -4.6370 H   0  0  0  0  0  0  0  0  0  0  0  0
   -5.7914   -6.2064   -3.2040 H   0  0  0  0  0  0  0  0  0  0  0  0
   -5.8513   -7.8464   -5.0838 H   0  0  0  0  0  0  0  0  0  0  0  0
   -7.3790   -7.4865   -4.3260 H   0  0  0  0  0  0  0  0  0  0  0  0
   -7.3198   -8.8027   -6.8865 H   0  0  0  0  0  0  0  0  0  0  0  0
   -8.8785   -8.0451   -6.7230 H   0  0  0  0  0  0  0  0  0  0  0  0
   -6.8838   -7.6042   -8.9904 H   0  0  0  0  0  0  0  0  0  0  0  0
   -8.2407   -5.4555   -8.7780 H   0  0  0  0  0  0  0  0  0  0  0  0
   -8.4479   -6.3298  -10.2712 H   0  0  0  0  0  0  0  0  0  0  0  0
  -10.3210   -6.4845   -7.8462 H   0  0  0  0  0  0  0  0  0  0  0  0
  -10.6064   -5.6023   -9.3443 H   0  0  0  0  0  0  0  0  0  0  0  0
  -12.7175   -6.9107   -9.8246 H   0  0  0  0  0  0  0  0  0  0  0  0
  -13.6334   -8.9776  -10.8257 H   0  0  0  0  0  0  0  0  0  0  0  0
  -12.1944  -10.9542  -11.1097 H   0  0  0  0  0  0  0  0  0  0  0  0
   -7.8592  -12.1581  -10.2686 H   0  0  0  0  0  0  0  0  0  0  0  0
   -6.7342  -10.1390   -9.1716 H   0  0  0  0  0  0  0  0  0  0  0  0
  -10.0929  -11.9637  -10.8622 H   0  0  0  0  0  0  0  0  0  0  0  0
  1  2  1  0
  1 20  1  0
  1 21  1  0
  1 22  1  0
  2  3  1  0
  2 23  1  0
  2 24  1  0
  3  4  1  0
  3 25  1  0
  3 26  1  0
  4  5  2  0
  4  6  1  0
  6  7  1  0
  6 27  1  0
  6 28  1  0
  7 18  1  0
  7  8  1  0
  7 29  1  6
  8  9  1  0
  8 30  1  0
  8 31  1  0
  9 10  1  0
  9 32  1  0
  9 33  1  0
 10 19  2  0
 10 11  1  0
 11 12  2  0
 11 34  1  0
 12 13  1  0
 12 35  1  0
 13 14  2  0
 13 36  1  0
 14 19  1  0
 14 15  1  0
 15 16  2  0
 15 39  1  0
 16 17  1  0
 16 37  1  0
 17 18  2  0
 17 38  1  0
 18 19  1  0
M  CHG  1  15   1
M  END
>  <i_m_ct_stereo_status>  (325) 
1

>  <s_m_source_file>  (325) 
/var/tmp/pbs.5076255.sched01/tmpsouvlwkc/11751gt6aqu.sdf

>  <i_m_source_file_index>  (325) 
17

>  <i_lp_mmshare_version>  (325) 
48012

>  <i_f3d_flags>  (325) 
0

>  <s_epik_input>  (325) 
W0NIM11bQ0gyXVtDSDJdQyg9TylbQ0gyXVtDQEhdKFtDSDJdW0NIMl0xKWMyW2NIXVtjSF1uYyhjMmMxMylbY0hdW2NIXVtjSF0z

>  <s_epik_cmdline>  (325) 
J2VwaWtfcHl0aG9uJywgJy1waHQnLCAnMi4wJywgJy1waCcsICc3LjAnLCAnLXRuJywgJzgnLCAnLW1hJywgJzIwMCcsICctaW1hZScsICc8aW5maWxlLm1hZT4nLCAnLW9tYWUnLCAnPG91dGZpbGUubWFlPic=

>  <r_lp_tautomer_probability>  (325) 
1

>  <r_epik_Ionization_Penalty>  (325) 
1.15464

>  <r_epik_Ionization_Penalty_Charging>  (325) 
1.15464

>  <r_epik_Ionization_Penalty_Neutral>  (325) 
3.13635e-13

>  <r_epik_State_Penalty>  (325) 
1.21634

>  <r_epik_Charging_Adjusted_Penalty>  (325) 
2.37098

>  <i_epik_Tot_Q>  (325) 
1

>  <i_epik_Tot_abs_Q>  (325) 
1

>  <s_lp_Force_Field>  (325) 
OPLS3e

>  <r_lp_Energy>  (325) 
28.5238

>  <b_lp_Chiralities_Consistent>  (325) 
1

>  <s_lp_Variant>  (325) 
100:0-2

>  <s_i_glide_gridfile>  (325) 
pfpi4k_grid

>  <i_i_glide_lignum>  (325) 
17

>  <i_i_glide_rotatable_bonds>  (325) 
4

>  <r_i_docking_score>  (325) 
-4.02884

>  <r_i_glide_ligand_efficiency>  (325) 
-0.212044

>  <r_i_glide_ligand_efficiency_sa>  (325) 
-0.56582

>  <r_i_glide_ligand_efficiency_ln>  (325) 
-1.0214

>  <r_i_glide_gscore>  (325) 
-4.02884

>  <r_i_glide_lipo>  (325) 
-1.47056

>  <r_i_glide_hbond>  (325) 
0

>  <r_i_glide_metal>  (325) 
-0

>  <r_i_glide_rewards>  (325) 
-1.98737

>  <r_i_glide_evdw>  (325) 
-18.488

>  <r_i_glide_ecoul>  (325) 
-1.26794

>  <r_i_glide_erotb>  (325) 
0.543677

>  <r_i_glide_esite>  (325) 
0

>  <r_i_glide_emodel>  (325) 
-22.7147

>  <r_i_glide_energy>  (325) 
-19.756

>  <r_i_glide_einternal>  (325) 
1.654

>  <r_i_glide_intrahb_reward>  (325) 
-0

>  <i_i_glide_confnum>  (325) 
1

>  <i_i_glide_posenum>  (325) 
15

>  <r_i_glide_eff_state_penalty>  (325) 
0

>  <ligand_id>  (325) 
100

>  <original_smiles>  (325) 
CCCC(=O)CC1CCc2cccc3nccc1c23

>  <smiles>  (325) 
[H]c1c([H])c([H])c2c3c1C([H])([H])C([H])([H])C([H])(C([H])([H])C(=O)C([H])([H])C([H])([H])C([H])([H])[H])c3c([H])c([H])[n+]2[H]

$$$$
101:0:0
     RDKit          3D

 60 65  0  0  1  0  0  0  0  0999 V2000
    5.7397   -9.5824    2.4882 C   0  0  0  0  0  0  0  0  0  0  0  0
    5.5806   -8.0764    2.8864 C   0  0  2  0  0  0  0  0  0  0  0  0
    7.0972   -7.6973    2.9637 C   0  0  0  0  0  0  0  0  0  0  0  0
    7.7554   -7.8231    3.9964 O   0  0  0  0  0  0  0  0  0  0  0  0
    7.8019   -7.2627    1.6782 C   0  0  0  0  0  0  0  0  0  0  0  0
    7.5155   -5.8265    1.2538 C   0  0  0  0  0  0  0  0  0  0  0  0
    6.4060   -5.0815    1.4825 C   0  0  0  0  0  0  0  0  0  0  0  0
    6.4069   -3.7673    0.9258 N   0  0  0  0  0  0  0  0  0  0  0  0
    5.4558   -2.8046    1.2886 C   0  0  0  0  0  0  0  0  0  0  0  0
    5.7713   -1.6621    0.5853 C   0  0  0  0  0  0  0  0  0  0  0  0
    6.9025   -1.8809   -0.2014 N   0  0  0  0  0  0  0  0  0  0  0  0
    7.2173   -3.1436    0.0535 C   0  0  0  0  0  0  0  0  0  0  0  0
    5.1909   -5.5946    2.2717 C   0  0  2  0  0  0  0  0  0  0  0  0
    5.4333   -5.3213    3.7993 C   0  0  0  0  0  0  0  0  0  0  0  0
    5.1907   -6.4745    4.8233 C   0  0  0  0  0  0  0  0  0  0  0  0
    4.8176   -7.8852    4.2383 C   0  0  1  0  0  0  0  0  0  0  0  0
    3.2515   -8.2480    4.2820 C   0  0  1  0  0  0  0  0  0  0  0  0
    2.3213   -7.0775    4.6814 C   0  0  0  0  0  0  0  0  0  0  0  0
    2.1661   -5.9826    3.6150 C   0  0  0  0  0  0  0  0  0  0  0  0
    2.1334   -6.4421    2.1379 C   0  0  2  0  0  0  0  0  0  0  0  0
    0.7342   -7.0185    1.7750 C   0  0  0  0  0  0  0  0  0  0  0  0
    0.1360   -8.0977    2.7235 C   0  0  1  0  0  0  0  0  0  0  0  0
   -1.0103   -8.6092    2.0777 O   0  0  0  0  0  0  0  0  0  0  0  0
    1.0264   -9.2939    3.2081 C   0  0  0  0  0  0  0  0  0  0  0  0
    2.5777   -9.1470    3.1517 C   0  0  1  0  0  0  0  0  0  0  0  0
    2.9344   -8.8045    1.6923 C   0  0  0  0  0  0  0  0  0  0  0  0
    3.3095   -7.3325    1.5774 C   0  0  2  0  0  0  0  0  0  0  0  0
    4.8412   -7.0830    1.9067 C   0  0  2  0  0  0  0  0  0  0  0  0
    4.9228  -10.2250    2.7904 H   0  0  0  0  0  0  0  0  0  0  0  0
    6.5907  -10.0658    2.9749 H   0  0  0  0  0  0  0  0  0  0  0  0
    5.8917   -9.7090    1.4153 H   0  0  0  0  0  0  0  0  0  0  0  0
    8.8726   -7.3220    1.8723 H   0  0  0  0  0  0  0  0  0  0  0  0
    7.5896   -7.9558    0.8653 H   0  0  0  0  0  0  0  0  0  0  0  0
    8.3243   -5.4216    0.6732 H   0  0  0  0  0  0  0  0  0  0  0  0
    4.6501   -2.9527    1.9969 H   0  0  0  0  0  0  0  0  0  0  0  0
    5.2815   -0.6981    0.5889 H   0  0  0  0  0  0  0  0  0  0  0  0
    8.0691   -3.6068   -0.4180 H   0  0  0  0  0  0  0  0  0  0  0  0
    4.3370   -5.0124    1.9473 H   0  0  0  0  0  0  0  0  0  0  0  0
    6.4837   -5.0548    3.9275 H   0  0  0  0  0  0  0  0  0  0  0  0
    4.9187   -4.4140    4.1131 H   0  0  0  0  0  0  0  0  0  0  0  0
    6.1180   -6.5912    5.3899 H   0  0  0  0  0  0  0  0  0  0  0  0
    4.5413   -6.1313    5.6181 H   0  0  0  0  0  0  0  0  0  0  0  0
    5.2710   -8.5992    4.9270 H   0  0  0  0  0  0  0  0  0  0  0  0
    3.1834   -8.8908    5.1603 H   0  0  0  0  0  0  0  0  0  0  0  0
    1.3509   -7.4702    4.9628 H   0  0  0  0  0  0  0  0  0  0  0  0
    2.6034   -6.6343    5.6313 H   0  0  0  0  0  0  0  0  0  0  0  0
    1.2507   -5.4344    3.8332 H   0  0  0  0  0  0  0  0  0  0  0  0
    2.9281   -5.2292    3.7492 H   0  0  0  0  0  0  0  0  0  0  0  0
    2.1961   -5.5161    1.5670 H   0  0  0  0  0  0  0  0  0  0  0  0
    0.0271   -6.1931    1.7734 H   0  0  0  0  0  0  0  0  0  0  0  0
    0.7345   -7.3663    0.7403 H   0  0  0  0  0  0  0  0  0  0  0  0
   -0.2590   -7.5847    3.5988 H   0  0  0  0  0  0  0  0  0  0  0  0
   -0.7184   -9.1497    1.3505 H   0  0  0  0  0  0  0  0  0  0  0  0
    0.7284   -9.5705    4.2206 H   0  0  0  0  0  0  0  0  0  0  0  0
    0.7753  -10.1751    2.6144 H   0  0  0  0  0  0  0  0  0  0  0  0
    2.9181  -10.1654    3.3323 H   0  0  0  0  0  0  0  0  0  0  0  0
    3.6807   -9.4480    1.2448 H   0  0  0  0  0  0  0  0  0  0  0  0
    2.0999   -9.0481    1.0345 H   0  0  0  0  0  0  0  0  0  0  0  0
    3.2644   -7.1257    0.5081 H   0  0  0  0  0  0  0  0  0  0  0  0
    5.2869   -7.2822    0.9321 H   0  0  0  0  0  0  0  0  0  0  0  0
  2  1  1  6
  1 29  1  0
  1 30  1  0
  1 31  1  0
  2 16  1  0
  2 28  1  0
  2  3  1  0
  3  4  2  0
  3  5  1  0
  5  6  1  0
  5 32  1  0
  5 33  1  0
  6  7  2  0
  6 34  1  0
  7  8  1  0
  7 13  1  0
  8 12  1  0
  8  9  1  0
  9 10  2  0
  9 35  1  0
 10 11  1  0
 10 36  1  0
 11 12  2  0
 12 37  1  0
 13 28  1  0
 13 14  1  0
 13 38  1  6
 14 15  1  0
 14 39  1  0
 14 40  1  0
 15 16  1  0
 15 41  1  0
 15 42  1  0
 16 17  1  0
 16 43  1  1
 17 25  1  0
 17 18  1  0
 17 44  1  1
 18 19  1  0
 18 45  1  0
 18 46  1  0
 19 20  1  0
 19 47  1  0
 19 48  1  0
 20 27  1  0
 20 21  1  0
 20 49  1  6
 21 22  1  0
 21 50  1  0
 21 51  1  0
 22 23  1  0
 22 24  1  0
 22 52  1  1
 23 53  1  0
 24 25  1  0
 24 54  1  0
 24 55  1  0
 25 26  1  0
 25 56  1  1
 26 27  1  0
 26 57  1  0
 26 58  1  0
 27 28  1  0
 27 59  1  6
 28 60  1  6
M  END
>  <i_m_ct_stereo_status>  (326) 
1

>  <s_m_source_file>  (326) 
/var/tmp/pbs.5076255.sched01/tmpsouvlwkc/11751gt6aqu.sdf

>  <i_m_source_file_index>  (326) 
18

>  <i_lp_mmshare_version>  (326) 
48012

>  <i_f3d_flags>  (326) 
0

>  <s_epik_input>  (326) 
W0NIM11bQ0BAXTEyW0NAQEhdM1tDQEBIXTRbQ0BIXTVbQ0gyXVtDQEhdKFtPSF0pW0NIMl1bQ0BASF0oW0NIMl1bQ0gyXTQpW0NASF0oW0NIMl01KVtDQEhdMltDQEBIXShbQ0gyXVtDSDJdMylDKD1bQ0hdW0NIMl1DMT1PKW42W2NIXVtjSF1uW2NIXTY=

>  <s_epik_cmdline>  (326) 
J2VwaWtfcHl0aG9uJywgJy1waHQnLCAnMi4wJywgJy1waCcsICc3LjAnLCAnLXRuJywgJzgnLCAnLW1hJywgJzIwMCcsICctaW1hZScsICc8aW5maWxlLm1hZT4nLCAnLW9tYWUnLCAnPG91dGZpbGUubWFlPic=

>  <r_epik_Ionization_Penalty>  (326) 
0.339848

>  <r_epik_Ionization_Penalty_Charging>  (326) 
0.339845

>  <r_epik_Ionization_Penalty_Neutral>  (326) 
2.95306e-06

>  <r_epik_State_Penalty>  (326) 
0.335436

>  <r_epik_Charging_Adjusted_Penalty>  (326) 
0.675282

>  <i_epik_Tot_Q>  (326) 
0

>  <i_epik_Tot_abs_Q>  (326) 
0

>  <s_lp_Force_Field>  (326) 
OPLS3e

>  <r_lp_Energy>  (326) 
116.407

>  <b_lp_Chiralities_Consistent>  (326) 
1

>  <s_lp_Variant>  (326) 
101:0-1

>  <s_i_glide_gridfile>  (326) 
pfpi4k_grid

>  <i_i_glide_lignum>  (326) 
18

>  <i_i_glide_rotatable_bonds>  (326) 
2

>  <r_i_docking_score>  (326) 
-4.02114

>  <r_i_glide_ligand_efficiency>  (326) 
-0.143612

>  <r_i_glide_ligand_efficiency_sa>  (326) 
-0.436091

>  <r_i_glide_ligand_efficiency_ln>  (326) 
-0.928198

>  <r_i_glide_gscore>  (326) 
-4.02114

>  <r_i_glide_lipo>  (326) 
-0.41101

>  <r_i_glide_hbond>  (326) 
-0.430168

>  <r_i_glide_metal>  (326) 
-0

>  <r_i_glide_rewards>  (326) 
-1.15162

>  <r_i_glide_evdw>  (326) 
-29.3483

>  <r_i_glide_ecoul>  (326) 
-4.63281

>  <r_i_glide_erotb>  (326) 
0.13399

>  <r_i_glide_esite>  (326) 
0

>  <r_i_glide_emodel>  (326) 
-42.6118

>  <r_i_glide_energy>  (326) 
-33.9811

>  <r_i_glide_einternal>  (326) 
0.0460531

>  <r_i_glide_intrahb_reward>  (326) 
-0

>  <i_i_glide_confnum>  (326) 
1

>  <i_i_glide_posenum>  (326) 
34

>  <r_i_glide_eff_state_penalty>  (326) 
0

>  <ligand_id>  (326) 
101

>  <original_smiles>  (326) 
CC12C(=O)CC=C(n3ccnc3)C3CCC1C1CCC4CC(O)CC1CC4C32

>  <smiles>  (326) 
[H]OC1([H])C([H])([H])C2([H])C([H])([H])C3([H])C([H])(C([H])([H])C([H])([H])C2([H])C2([H])C([H])([H])C([H])([H])C4([H])C(n5c([H])nc([H])c5[H])=C([H])C([H])([H])C(=O)C2(C([H])([H])[H])C43[H])C1([H])[H]

$$$$
101:0:1
     RDKit          3D

 60 65  0  0  1  0  0  0  0  0999 V2000
    5.4152   -9.7311    3.5771 C   0  0  0  0  0  0  0  0  0  0  0  0
    5.4166   -8.1679    3.5690 C   0  0  2  0  0  0  0  0  0  0  0  0
    6.9413   -7.9288    3.8355 C   0  0  0  0  0  0  0  0  0  0  0  0
    7.4019   -7.8502    4.9743 O   0  0  0  0  0  0  0  0  0  0  0  0
    7.8969   -7.9092    2.6390 C   0  0  0  0  0  0  0  0  0  0  0  0
    7.9008   -6.6083    1.8347 C   0  0  0  0  0  0  0  0  0  0  0  0
    6.8746   -5.7309    1.6756 C   0  0  0  0  0  0  0  0  0  0  0  0
    7.0308   -4.5391    0.9011 N   0  0  0  0  0  0  0  0  0  0  0  0
    8.1570   -4.2918    0.1075 C   0  0  0  0  0  0  0  0  0  0  0  0
    7.9600   -3.0553   -0.4716 C   0  0  0  0  0  0  0  0  0  0  0  0
    6.7416   -2.5241   -0.0591 N   0  0  0  0  0  0  0  0  0  0  0  0
    6.2475   -3.4567    0.7494 C   0  0  0  0  0  0  0  0  0  0  0  0
    5.5001   -5.9177    2.3280 C   0  0  2  0  0  0  0  0  0  0  0  0
    5.5257   -5.2757    3.7616 C   0  0  0  0  0  0  0  0  0  0  0  0
    4.9571   -6.0908    4.9654 C   0  0  0  0  0  0  0  0  0  0  0  0
    4.4811   -7.5576    4.6661 C   0  0  1  0  0  0  0  0  0  0  0  0
    2.8922   -7.7370    4.4971 C   0  0  1  0  0  0  0  0  0  0  0  0
    2.0873   -6.4169    4.4280 C   0  0  0  0  0  0  0  0  0  0  0  0
    2.2660   -5.6226    3.1254 C   0  0  0  0  0  0  0  0  0  0  0  0
    2.3992   -6.4435    1.8219 C   0  0  2  0  0  0  0  0  0  0  0  0
    1.0005   -6.9472    1.3620 C   0  0  0  0  0  0  0  0  0  0  0  0
    0.1122   -7.6859    2.4003 C   0  0  1  0  0  0  0  0  0  0  0  0
   -0.9810   -8.2336    1.6903 O   0  0  0  0  0  0  0  0  0  0  0  0
    0.7387   -8.8017    3.3030 C   0  0  0  0  0  0  0  0  0  0  0  0
    2.2840   -8.8257    3.5054 C   0  0  1  0  0  0  0  0  0  0  0  0
    2.9105   -8.9097    2.0999 C   0  0  0  0  0  0  0  0  0  0  0  0
    3.5092   -7.5646    1.7150 C   0  0  2  0  0  0  0  0  0  0  0  0
    4.9941   -7.4002    2.2589 C   0  0  2  0  0  0  0  0  0  0  0  0
    4.4762  -10.1869    3.8627 H   0  0  0  0  0  0  0  0  0  0  0  0
    6.1017  -10.1512    4.3159 H   0  0  0  0  0  0  0  0  0  0  0  0
    5.7150  -10.1415    2.6120 H   0  0  0  0  0  0  0  0  0  0  0  0
    8.9069   -8.0431    3.0301 H   0  0  0  0  0  0  0  0  0  0  0  0
    7.7007   -8.7542    1.9841 H   0  0  0  0  0  0  0  0  0  0  0  0
    8.8501   -6.4582    1.3522 H   0  0  0  0  0  0  0  0  0  0  0  0
    8.9926   -4.9628   -0.0204 H   0  0  0  0  0  0  0  0  0  0  0  0
    8.5993   -2.5145   -1.1535 H   0  0  0  0  0  0  0  0  0  0  0  0
    5.3020   -3.3182    1.2457 H   0  0  0  0  0  0  0  0  0  0  0  0
    4.7958   -5.3587    1.7244 H   0  0  0  0  0  0  0  0  0  0  0  0
    6.5682   -5.0836    4.0209 H   0  0  0  0  0  0  0  0  0  0  0  0
    5.0966   -4.2741    3.7401 H   0  0  0  0  0  0  0  0  0  0  0  0
    5.7554   -6.1479    5.7099 H   0  0  0  0  0  0  0  0  0  0  0  0
    4.2438   -5.4874    5.5124 H   0  0  0  0  0  0  0  0  0  0  0  0
    4.7077   -8.1105    5.5775 H   0  0  0  0  0  0  0  0  0  0  0  0
    2.5943   -8.1229    5.4722 H   0  0  0  0  0  0  0  0  0  0  0  0
    1.0381   -6.6260    4.6043 H   0  0  0  0  0  0  0  0  0  0  0  0
    2.2757   -5.7750    5.2828 H   0  0  0  0  0  0  0  0  0  0  0  0
    1.4155   -4.9485    3.0294 H   0  0  0  0  0  0  0  0  0  0  0  0
    3.0982   -4.9403    3.2195 H   0  0  0  0  0  0  0  0  0  0  0  0
    2.6817   -5.7087    1.0676 H   0  0  0  0  0  0  0  0  0  0  0  0
    0.4353   -6.0878    1.0145 H   0  0  0  0  0  0  0  0  0  0  0  0
    1.1064   -7.5659    0.4790 H   0  0  0  0  0  0  0  0  0  0  0  0
   -0.3368   -6.9309    3.0410 H   0  0  0  0  0  0  0  0  0  0  0  0
   -0.6446   -8.8902    1.0849 H   0  0  0  0  0  0  0  0  0  0  0  0
    0.2497   -8.7799    4.2774 H   0  0  0  0  0  0  0  0  0  0  0  0
    0.4639   -9.7756    2.8932 H   0  0  0  0  0  0  0  0  0  0  0  0
    2.4427   -9.7913    3.9825 H   0  0  0  0  0  0  0  0  0  0  0  0
    3.6202   -9.7159    1.9655 H   0  0  0  0  0  0  0  0  0  0  0  0
    2.1654   -9.2275    1.3696 H   0  0  0  0  0  0  0  0  0  0  0  0
    3.6597   -7.6460    0.6384 H   0  0  0  0  0  0  0  0  0  0  0  0
    5.5539   -7.8884    1.4615 H   0  0  0  0  0  0  0  0  0  0  0  0
  2  1  1  6
  1 29  1  0
  1 30  1  0
  1 31  1  0
  2 16  1  0
  2 28  1  0
  2  3  1  0
  3  4  2  0
  3  5  1  0
  5  6  1  0
  5 32  1  0
  5 33  1  0
  6  7  2  0
  6 34  1  0
  7  8  1  0
  7 13  1  0
  8 12  1  0
  8  9  1  0
  9 10  2  0
  9 35  1  0
 10 11  1  0
 10 36  1  0
 11 12  2  0
 12 37  1  0
 13 28  1  0
 13 14  1  0
 13 38  1  6
 14 15  1  0
 14 39  1  0
 14 40  1  0
 15 16  1  0
 15 41  1  0
 15 42  1  0
 16 17  1  0
 16 43  1  1
 17 25  1  0
 17 18  1  0
 17 44  1  1
 18 19  1  0
 18 45  1  0
 18 46  1  0
 19 20  1  0
 19 47  1  0
 19 48  1  0
 20 27  1  0
 20 21  1  0
 20 49  1  6
 21 22  1  0
 21 50  1  0
 21 51  1  0
 22 23  1  0
 22 24  1  0
 22 52  1  1
 23 53  1  0
 24 25  1  0
 24 54  1  0
 24 55  1  0
 25 26  1  0
 25 56  1  1
 26 27  1  0
 26 57  1  0
 26 58  1  0
 27 28  1  0
 27 59  1  6
 28 60  1  6
M  END
>  <i_m_ct_stereo_status>  (327) 
1

>  <s_m_source_file>  (327) 
/var/tmp/pbs.5076255.sched01/tmpsouvlwkc/11751gt6aqu.sdf

>  <i_m_source_file_index>  (327) 
18

>  <i_lp_mmshare_version>  (327) 
48012

>  <i_f3d_flags>  (327) 
0

>  <s_epik_input>  (327) 
W0NIM11bQ0BAXTEyW0NAQEhdM1tDQEBIXTRbQ0BIXTVbQ0gyXVtDQEhdKFtPSF0pW0NIMl1bQ0BASF0oW0NIMl1bQ0gyXTQpW0NASF0oW0NIMl01KVtDQEhdMltDQEBIXShbQ0gyXVtDSDJdMylDKD1bQ0hdW0NIMl1DMT1PKW42W2NIXVtjSF1uW2NIXTY=

>  <s_epik_cmdline>  (327) 
J2VwaWtfcHl0aG9uJywgJy1waHQnLCAnMi4wJywgJy1waCcsICc3LjAnLCAnLXRuJywgJzgnLCAnLW1hJywgJzIwMCcsICctaW1hZScsICc8aW5maWxlLm1hZT4nLCAnLW9tYWUnLCAnPG91dGZpbGUubWFlPic=

>  <r_epik_Ionization_Penalty>  (327) 
0.339848

>  <r_epik_Ionization_Penalty_Charging>  (327) 
0.339845

>  <r_epik_Ionization_Penalty_Neutral>  (327) 
2.95306e-06

>  <r_epik_State_Penalty>  (327) 
0.335436

>  <r_epik_Charging_Adjusted_Penalty>  (327) 
0.675282

>  <i_epik_Tot_Q>  (327) 
0

>  <i_epik_Tot_abs_Q>  (327) 
0

>  <s_lp_Force_Field>  (327) 
OPLS3e

>  <r_lp_Energy>  (327) 
116.407

>  <b_lp_Chiralities_Consistent>  (327) 
1

>  <s_lp_Variant>  (327) 
101:0-1

>  <s_i_glide_gridfile>  (327) 
pfpi4k_grid

>  <i_i_glide_lignum>  (327) 
18

>  <i_i_glide_rotatable_bonds>  (327) 
2

>  <r_i_docking_score>  (327) 
-3.70331

>  <r_i_glide_ligand_efficiency>  (327) 
-0.132261

>  <r_i_glide_ligand_efficiency_sa>  (327) 
-0.401623

>  <r_i_glide_ligand_efficiency_ln>  (327) 
-0.854834

>  <r_i_glide_gscore>  (327) 
-3.70331

>  <r_i_glide_lipo>  (327) 
-0.375647

>  <r_i_glide_hbond>  (327) 
-0.32

>  <r_i_glide_metal>  (327) 
-0

>  <r_i_glide_rewards>  (327) 
-1.10522

>  <r_i_glide_evdw>  (327) 
-27.61

>  <r_i_glide_ecoul>  (327) 
-4.37291

>  <r_i_glide_erotb>  (327) 
0.13399

>  <r_i_glide_esite>  (327) 
0

>  <r_i_glide_emodel>  (327) 
-39.9493

>  <r_i_glide_energy>  (327) 
-31.9829

>  <r_i_glide_einternal>  (327) 
0.00773617

>  <r_i_glide_intrahb_reward>  (327) 
-0

>  <i_i_glide_confnum>  (327) 
1

>  <i_i_glide_posenum>  (327) 
21

>  <r_i_glide_eff_state_penalty>  (327) 
0

>  <ligand_id>  (327) 
101

>  <original_smiles>  (327) 
CC12C(=O)CC=C(n3ccnc3)C3CCC1C1CCC4CC(O)CC1CC4C32

>  <smiles>  (327) 
[H]OC1([H])C([H])([H])C2([H])C([H])([H])C3([H])C([H])(C([H])([H])C([H])([H])C2([H])C2([H])C([H])([H])C([H])([H])C4([H])C(n5c([H])nc([H])c5[H])=C([H])C([H])([H])C(=O)C2(C([H])([H])[H])C43[H])C1([H])[H]

$$$$
101:0:2
     RDKit          3D

 60 65  0  0  1  0  0  0  0  0999 V2000
    4.1570   -0.9802    3.1401 C   0  0  0  0  0  0  0  0  0  0  0  0
    4.0819   -2.5296    2.9320 C   0  0  2  0  0  0  0  0  0  0  0  0
    3.8595   -2.9496    4.4224 C   0  0  0  0  0  0  0  0  0  0  0  0
    4.7957   -3.1737    5.1894 O   0  0  0  0  0  0  0  0  0  0  0  0
    2.4269   -2.9720    4.9638 C   0  0  0  0  0  0  0  0  0  0  0  0
    1.6166   -4.1964    4.5469 C   0  0  0  0  0  0  0  0  0  0  0  0
    1.7318   -4.9508    3.4236 C   0  0  0  0  0  0  0  0  0  0  0  0
    0.8150   -6.0388    3.2952 N   0  0  0  0  0  0  0  0  0  0  0  0
    0.8522   -6.9396    2.2200 C   0  0  0  0  0  0  0  0  0  0  0  0
   -0.1646   -7.8440    2.4387 C   0  0  0  0  0  0  0  0  0  0  0  0
   -0.8465   -7.5177    3.6063 N   0  0  0  0  0  0  0  0  0  0  0  0
   -0.1921   -6.4702    4.0784 C   0  0  0  0  0  0  0  0  0  0  0  0
    2.7779   -4.6765    2.3298 C   0  0  2  0  0  0  0  0  0  0  0  0
    4.1004   -5.4281    2.7118 C   0  0  0  0  0  0  0  0  0  0  0  0
    5.4531   -4.6523    2.6411 C   0  0  0  0  0  0  0  0  0  0  0  0
    5.3840   -3.1185    2.2973 C   0  0  1  0  0  0  0  0  0  0  0  0
    5.7263   -2.7450    0.7714 C   0  0  1  0  0  0  0  0  0  0  0  0
    5.8472   -3.9563   -0.1807 C   0  0  0  0  0  0  0  0  0  0  0  0
    4.5213   -4.6536   -0.5038 C   0  0  0  0  0  0  0  0  0  0  0  0
    3.2740   -3.7525   -0.6637 C   0  0  2  0  0  0  0  0  0  0  0  0
    3.2587   -3.0580   -2.0586 C   0  0  0  0  0  0  0  0  0  0  0  0
    4.5524   -2.3209   -2.4963 C   0  0  1  0  0  0  0  0  0  0  0  0
    4.2435   -1.5924   -3.6693 O   0  0  0  0  0  0  0  0  0  0  0  0
    5.2798   -1.3705   -1.4870 C   0  0  0  0  0  0  0  0  0  0  0  0
    5.0145   -1.5213    0.0416 C   0  0  1  0  0  0  0  0  0  0  0  0
    3.4930   -1.3994    0.2317 C   0  0  0  0  0  0  0  0  0  0  0  0
    2.8888   -2.7668    0.5011 C   0  0  2  0  0  0  0  0  0  0  0  0
    2.9366   -3.1431    2.0391 C   0  0  2  0  0  0  0  0  0  0  0  0
    4.7350   -0.4465    2.3977 H   0  0  0  0  0  0  0  0  0  0  0  0
    4.6680   -0.6970    4.0640 H   0  0  0  0  0  0  0  0  0  0  0  0
    3.1646   -0.5291    3.1898 H   0  0  0  0  0  0  0  0  0  0  0  0
    2.4942   -2.9973    6.0528 H   0  0  0  0  0  0  0  0  0  0  0  0
    1.8933   -2.0581    4.7043 H   0  0  0  0  0  0  0  0  0  0  0  0
    0.8468   -4.4145    5.2676 H   0  0  0  0  0  0  0  0  0  0  0  0
    1.5573   -6.9327    1.4019 H   0  0  0  0  0  0  0  0  0  0  0  0
   -0.4540   -8.7039    1.8469 H   0  0  0  0  0  0  0  0  0  0  0  0
   -0.4958   -6.0060    4.9980 H   0  0  0  0  0  0  0  0  0  0  0  0
    2.4052   -5.0911    1.4053 H   0  0  0  0  0  0  0  0  0  0  0  0
    4.0171   -5.7487    3.7513 H   0  0  0  0  0  0  0  0  0  0  0  0
    4.1690   -6.3763    2.1794 H   0  0  0  0  0  0  0  0  0  0  0  0
    5.9142   -4.7437    3.6265 H   0  0  0  0  0  0  0  0  0  0  0  0
    6.1730   -5.2140    2.0583 H   0  0  0  0  0  0  0  0  0  0  0  0
    6.2011   -2.6660    2.8599 H   0  0  0  0  0  0  0  0  0  0  0  0
    6.7625   -2.4111    0.8352 H   0  0  0  0  0  0  0  0  0  0  0  0
    6.3407   -3.6536   -1.0969 H   0  0  0  0  0  0  0  0  0  0  0  0
    6.5699   -4.6864    0.1688 H   0  0  0  0  0  0  0  0  0  0  0  0
    4.6657   -5.2130   -1.4276 H   0  0  0  0  0  0  0  0  0  0  0  0
    4.3228   -5.4365    0.2150 H   0  0  0  0  0  0  0  0  0  0  0  0
    2.4428   -4.4549   -0.7185 H   0  0  0  0  0  0  0  0  0  0  0  0
    3.0779   -3.8282   -2.8089 H   0  0  0  0  0  0  0  0  0  0  0  0
    2.3865   -2.4078   -2.1399 H   0  0  0  0  0  0  0  0  0  0  0  0
    5.2635   -3.0753   -2.8308 H   0  0  0  0  0  0  0  0  0  0  0  0
    3.5506   -0.9819   -3.4575 H   0  0  0  0  0  0  0  0  0  0  0  0
    6.3497   -1.4559   -1.6628 H   0  0  0  0  0  0  0  0  0  0  0  0
    5.0330   -0.3381   -1.7459 H   0  0  0  0  0  0  0  0  0  0  0  0
    5.4595   -0.6165    0.4560 H   0  0  0  0  0  0  0  0  0  0  0  0
    3.1766   -0.6680    0.9630 H   0  0  0  0  0  0  0  0  0  0  0  0
    3.0352   -0.9513   -0.6495 H   0  0  0  0  0  0  0  0  0  0  0  0
    1.8223   -2.6347    0.3266 H   0  0  0  0  0  0  0  0  0  0  0  0
    2.0251   -2.6574    2.3877 H   0  0  0  0  0  0  0  0  0  0  0  0
  2  1  1  1
  1 29  1  0
  1 30  1  0
  1 31  1  0
  2 16  1  0
  2 28  1  0
  2  3  1  0
  3  4  2  0
  3  5  1  0
  5  6  1  0
  5 32  1  0
  5 33  1  0
  6  7  2  0
  6 34  1  0
  7  8  1  0
  7 13  1  0
  8 12  1  0
  8  9  1  0
  9 10  2  0
  9 35  1  0
 10 11  1  0
 10 36  1  0
 11 12  2  0
 12 37  1  0
 13 28  1  0
 13 14  1  0
 13 38  1  6
 14 15  1  0
 14 39  1  0
 14 40  1  0
 15 16  1  0
 15 41  1  0
 15 42  1  0
 16 17  1  0
 16 43  1  1
 17 25  1  0
 17 18  1  0
 17 44  1  1
 18 19  1  0
 18 45  1  0
 18 46  1  0
 19 20  1  0
 19 47  1  0
 19 48  1  0
 20 27  1  0
 20 21  1  0
 20 49  1  6
 21 22  1  0
 21 50  1  0
 21 51  1  0
 22 23  1  0
 22 24  1  0
 22 52  1  6
 23 53  1  0
 24 25  1  0
 24 54  1  0
 24 55  1  0
 25 26  1  0
 25 56  1  1
 26 27  1  0
 26 57  1  0
 26 58  1  0
 27 28  1  0
 27 59  1  6
 28 60  1  1
M  END
>  <i_m_ct_stereo_status>  (328) 
1

>  <s_m_source_file>  (328) 
/var/tmp/pbs.5076255.sched01/tmpsouvlwkc/11751gt6aqu.sdf

>  <i_m_source_file_index>  (328) 
18

>  <i_lp_mmshare_version>  (328) 
48012

>  <i_f3d_flags>  (328) 
0

>  <s_epik_input>  (328) 
W0NIM11bQ0BAXTEyW0NAQEhdM1tDQEBIXTRbQ0BIXTVbQ0gyXVtDQEhdKFtPSF0pW0NIMl1bQ0BASF0oW0NIMl1bQ0gyXTQpW0NASF0oW0NIMl01KVtDQEhdMltDQEBIXShbQ0gyXVtDSDJdMylDKD1bQ0hdW0NIMl1DMT1PKW42W2NIXVtjSF1uW2NIXTY=

>  <s_epik_cmdline>  (328) 
J2VwaWtfcHl0aG9uJywgJy1waHQnLCAnMi4wJywgJy1waCcsICc3LjAnLCAnLXRuJywgJzgnLCAnLW1hJywgJzIwMCcsICctaW1hZScsICc8aW5maWxlLm1hZT4nLCAnLW9tYWUnLCAnPG91dGZpbGUubWFlPic=

>  <r_epik_Ionization_Penalty>  (328) 
0.339848

>  <r_epik_Ionization_Penalty_Charging>  (328) 
0.339845

>  <r_epik_Ionization_Penalty_Neutral>  (328) 
2.95306e-06

>  <r_epik_State_Penalty>  (328) 
0.335436

>  <r_epik_Charging_Adjusted_Penalty>  (328) 
0.675282

>  <i_epik_Tot_Q>  (328) 
0

>  <i_epik_Tot_abs_Q>  (328) 
0

>  <s_lp_Force_Field>  (328) 
OPLS3e

>  <r_lp_Energy>  (328) 
116.407

>  <b_lp_Chiralities_Consistent>  (328) 
1

>  <s_lp_Variant>  (328) 
101:0-1

>  <s_i_glide_gridfile>  (328) 
pfpi4k_grid

>  <i_i_glide_lignum>  (328) 
18

>  <i_i_glide_rotatable_bonds>  (328) 
2

>  <r_i_docking_score>  (328) 
-3.19388

>  <r_i_glide_ligand_efficiency>  (328) 
-0.114067

>  <r_i_glide_ligand_efficiency_sa>  (328) 
-0.346376

>  <r_i_glide_ligand_efficiency_ln>  (328) 
-0.737242

>  <r_i_glide_gscore>  (328) 
-3.19388

>  <r_i_glide_lipo>  (328) 
-0.310475

>  <r_i_glide_hbond>  (328) 
0

>  <r_i_glide_metal>  (328) 
-0

>  <r_i_glide_rewards>  (328) 
-0.814615

>  <r_i_glide_evdw>  (328) 
-30.4268

>  <r_i_glide_ecoul>  (328) 
-3.9618

>  <r_i_glide_erotb>  (328) 
0.13399

>  <r_i_glide_esite>  (328) 
-0.0871715

>  <r_i_glide_emodel>  (328) 
-41.0563

>  <r_i_glide_energy>  (328) 
-34.3886

>  <r_i_glide_einternal>  (328) 
0.196115

>  <r_i_glide_intrahb_reward>  (328) 
-0

>  <i_i_glide_confnum>  (328) 
2

>  <i_i_glide_posenum>  (328) 
32

>  <r_i_glide_eff_state_penalty>  (328) 
0

>  <ligand_id>  (328) 
101

>  <original_smiles>  (328) 
CC12C(=O)CC=C(n3ccnc3)C3CCC1C1CCC4CC(O)CC1CC4C32

>  <smiles>  (328) 
[H]OC1([H])C([H])([H])C2([H])C([H])([H])C3([H])C([H])(C([H])([H])C([H])([H])C2([H])C2([H])C([H])([H])C([H])([H])C4([H])C(n5c([H])nc([H])c5[H])=C([H])C([H])([H])C(=O)C2(C([H])([H])[H])C43[H])C1([H])[H]

$$$$
101:1:0
     RDKit          3D

 61 66  0  0  1  0  0  0  0  0999 V2000
    4.6512   -9.0282    3.1184 C   0  0  0  0  0  0  0  0  0  0  0  0
    4.2977   -7.5035    3.0585 C   0  0  2  0  0  0  0  0  0  0  0  0
    5.7220   -6.9394    2.7492 C   0  0  0  0  0  0  0  0  0  0  0  0
    6.5232   -6.6444    3.6332 O   0  0  0  0  0  0  0  0  0  0  0  0
    6.1631   -6.8704    1.2888 C   0  0  0  0  0  0  0  0  0  0  0  0
    5.5864   -5.6962    0.5003 C   0  0  0  0  0  0  0  0  0  0  0  0
    4.4030   -5.0580    0.6751 C   0  0  0  0  0  0  0  0  0  0  0  0
    4.0902   -3.9931   -0.2343 N   0  0  0  0  0  0  0  0  0  0  0  0
    4.7476   -3.6013   -1.3828 C   0  0  0  0  0  0  0  0  0  0  0  0
    4.0699   -2.5151   -1.8798 C   0  0  0  0  0  0  0  0  0  0  0  0
    3.0236   -2.2814   -1.0232 N   0  0  0  0  0  0  0  0  0  0  0  0
    3.0442   -3.1680   -0.0222 C   0  0  0  0  0  0  0  0  0  0  0  0
    3.4114   -5.4307    1.7936 C   0  0  2  0  0  0  0  0  0  0  0  0
    3.8150   -4.6395    3.0911 C   0  0  0  0  0  0  0  0  0  0  0  0
    3.9057   -5.4112    4.4472 C   0  0  0  0  0  0  0  0  0  0  0  0
    3.7016   -6.9685    4.4009 C   0  0  1  0  0  0  0  0  0  0  0  0
    2.2432   -7.4792    4.8371 C   0  0  1  0  0  0  0  0  0  0  0  0
    1.1950   -6.3593    5.0213 C   0  0  0  0  0  0  0  0  0  0  0  0
    0.7310   -5.7074    3.7170 C   0  0  0  0  0  0  0  0  0  0  0  0
    0.5610   -6.6278    2.4828 C   0  0  2  0  0  0  0  0  0  0  0  0
   -0.7606   -7.4426    2.5748 C   0  0  0  0  0  0  0  0  0  0  0  0
   -1.0335   -8.2060    3.9025 C   0  0  1  0  0  0  0  0  0  0  0  0
   -2.1442   -9.0396    3.6575 O   0  0  0  0  0  0  0  0  0  0  0  0
    0.1042   -9.0617    4.5546 C   0  0  0  0  0  0  0  0  0  0  0  0
    1.5845   -8.7680    4.1755 C   0  0  1  0  0  0  0  0  0  0  0  0
    1.6770   -8.8903    2.6411 C   0  0  0  0  0  0  0  0  0  0  0  0
    1.7789   -7.5114    2.0094 C   0  0  2  0  0  0  0  0  0  0  0  0
    3.2762   -6.9870    1.9682 C   0  0  2  0  0  0  0  0  0  0  0  0
    4.0048   -9.6256    3.7494 H   0  0  0  0  0  0  0  0  0  0  0  0
    5.6309   -9.2252    3.5608 H   0  0  0  0  0  0  0  0  0  0  0  0
    4.6714   -9.4849    2.1268 H   0  0  0  0  0  0  0  0  0  0  0  0
    7.2464   -6.7595    1.2835 H   0  0  0  0  0  0  0  0  0  0  0  0
    5.9394   -7.8155    0.7993 H   0  0  0  0  0  0  0  0  0  0  0  0
    6.2351   -5.4156   -0.3122 H   0  0  0  0  0  0  0  0  0  0  0  0
    5.6285   -4.0945   -1.7810 H   0  0  0  0  0  0  0  0  0  0  0  0
    4.2633   -1.9165   -2.7576 H   0  0  0  0  0  0  0  0  0  0  0  0
    2.3265   -3.1545    0.7809 H   0  0  0  0  0  0  0  0  0  0  0  0
    2.4295   -5.0971    1.4783 H   0  0  0  0  0  0  0  0  0  0  0  0
    4.8164   -4.2301    2.9413 H   0  0  0  0  0  0  0  0  0  0  0  0
    3.2050   -3.7434    3.2007 H   0  0  0  0  0  0  0  0  0  0  0  0
    4.9050   -5.2261    4.8481 H   0  0  0  0  0  0  0  0  0  0  0  0
    3.3192   -4.9021    5.2005 H   0  0  0  0  0  0  0  0  0  0  0  0
    4.3549   -7.3591    5.1823 H   0  0  0  0  0  0  0  0  0  0  0  0
    2.3990   -7.8006    5.8682 H   0  0  0  0  0  0  0  0  0  0  0  0
    0.3466   -6.7434    5.5765 H   0  0  0  0  0  0  0  0  0  0  0  0
    1.5188   -5.5972    5.7219 H   0  0  0  0  0  0  0  0  0  0  0  0
   -0.2135   -5.2271    3.9435 H   0  0  0  0  0  0  0  0  0  0  0  0
    1.3582   -4.8646    3.4724 H   0  0  0  0  0  0  0  0  0  0  0  0
    0.3927   -5.9438    1.6539 H   0  0  0  0  0  0  0  0  0  0  0  0
   -1.5936   -6.7571    2.4424 H   0  0  0  0  0  0  0  0  0  0  0  0
   -0.8425   -8.1115    1.7165 H   0  0  0  0  0  0  0  0  0  0  0  0
   -1.3883   -7.4835    4.6353 H   0  0  0  0  0  0  0  0  0  0  0  0
   -2.1793   -9.7397    4.3223 H   0  0  0  0  0  0  0  0  0  0  0  0
   -0.0064   -9.0301    5.6388 H   0  0  0  0  0  0  0  0  0  0  0  0
   -0.0752  -10.1094    4.3056 H   0  0  0  0  0  0  0  0  0  0  0  0
    2.1058   -9.6262    4.5952 H   0  0  0  0  0  0  0  0  0  0  0  0
    2.4528   -9.5549    2.2838 H   0  0  0  0  0  0  0  0  0  0  0  0
    0.8124   -9.4283    2.2498 H   0  0  0  0  0  0  0  0  0  0  0  0
    1.5458   -7.6952    0.9591 H   0  0  0  0  0  0  0  0  0  0  0  0
    3.6206   -7.4405    1.0371 H   0  0  0  0  0  0  0  0  0  0  0  0
    2.3102   -1.5504   -1.1119 H   0  0  0  0  0  0  0  0  0  0  0  0
  2  1  1  1
  1 29  1  0
  1 30  1  0
  1 31  1  0
  2 16  1  0
  2 28  1  0
  2  3  1  0
  3  4  2  0
  3  5  1  0
  5  6  1  0
  5 32  1  0
  5 33  1  0
  6  7  2  0
  6 34  1  0
  7  8  1  0
  7 13  1  0
  8 12  1  0
  8  9  1  0
  9 10  2  0
  9 35  1  0
 10 11  1  0
 10 36  1  0
 11 12  2  0
 11 61  1  0
 12 37  1  0
 13 28  1  0
 13 14  1  0
 13 38  1  6
 14 15  1  0
 14 39  1  0
 14 40  1  0
 15 16  1  0
 15 41  1  0
 15 42  1  0
 16 17  1  0
 16 43  1  1
 17 25  1  0
 17 18  1  0
 17 44  1  1
 18 19  1  0
 18 45  1  0
 18 46  1  0
 19 20  1  0
 19 47  1  0
 19 48  1  0
 20 27  1  0
 20 21  1  0
 20 49  1  6
 21 22  1  0
 21 50  1  0
 21 51  1  0
 22 23  1  0
 22 24  1  0
 22 52  1  1
 23 53  1  0
 24 25  1  0
 24 54  1  0
 24 55  1  0
 25 26  1  0
 25 56  1  1
 26 27  1  0
 26 57  1  0
 26 58  1  0
 27 28  1  0
 27 59  1  6
 28 60  1  6
M  CHG  1  11   1
M  END
>  <i_m_ct_stereo_status>  (329) 
1

>  <s_m_source_file>  (329) 
/var/tmp/pbs.5076255.sched01/tmpsouvlwkc/11751gt6aqu.sdf

>  <i_m_source_file_index>  (329) 
19

>  <i_lp_mmshare_version>  (329) 
48012

>  <i_f3d_flags>  (329) 
0

>  <s_epik_input>  (329) 
W0NIM11bQ0BAXTEyW0NAQEhdM1tDQEBIXTRbQ0BIXTVbQ0gyXVtDQEhdKFtPSF0pW0NIMl1bQ0BASF0oW0NIMl1bQ0gyXTQpW0NASF0oW0NIMl01KVtDQEhdMltDQEBIXShbQ0gyXVtDSDJdMylDKD1bQ0hdW0NIMl1DMT1PKW42W2NIXVtjSF1uW2NIXTY=

>  <s_epik_cmdline>  (329) 
J2VwaWtfcHl0aG9uJywgJy1waHQnLCAnMi4wJywgJy1waCcsICc3LjAnLCAnLXRuJywgJzgnLCAnLW1hJywgJzIwMCcsICctaW1hZScsICc8aW5maWxlLm1hZT4nLCAnLW9tYWUnLCAnPG91dGZpbGUubWFlPic=

>  <r_epik_Ionization_Penalty>  (329) 
0.491151

>  <r_epik_Ionization_Penalty_Charging>  (329) 
0

>  <r_epik_Ionization_Penalty_Neutral>  (329) 
0.491151

>  <r_epik_State_Penalty>  (329) 
0.496888

>  <r_epik_Charging_Adjusted_Penalty>  (329) 
0.496888

>  <i_epik_Tot_Q>  (329) 
1

>  <i_epik_Tot_abs_Q>  (329) 
1

>  <s_lp_Force_Field>  (329) 
OPLS3e

>  <r_lp_Energy>  (329) 
122.03

>  <b_lp_Chiralities_Consistent>  (329) 
1

>  <s_lp_Variant>  (329) 
101:0-2

>  <s_i_glide_gridfile>  (329) 
pfpi4k_grid

>  <i_i_glide_lignum>  (329) 
19

>  <i_i_glide_rotatable_bonds>  (329) 
2

>  <r_i_docking_score>  (329) 
-4.14323

>  <r_i_glide_ligand_efficiency>  (329) 
-0.147973

>  <r_i_glide_ligand_efficiency_sa>  (329) 
-0.449332

>  <r_i_glide_ligand_efficiency_ln>  (329) 
-0.95638

>  <r_i_glide_gscore>  (329) 
-4.14323

>  <r_i_glide_lipo>  (329) 
-0.281082

>  <r_i_glide_hbond>  (329) 
-0.355282

>  <r_i_glide_metal>  (329) 
-0

>  <r_i_glide_rewards>  (329) 
-0.819327

>  <r_i_glide_evdw>  (329) 
-23.3785

>  <r_i_glide_ecoul>  (329) 
-10.3312

>  <r_i_glide_erotb>  (329) 
0.133356

>  <r_i_glide_esite>  (329) 
-0.102293

>  <r_i_glide_emodel>  (329) 
-43.4591

>  <r_i_glide_energy>  (329) 
-33.7097

>  <r_i_glide_einternal>  (329) 
0.889367

>  <r_i_glide_intrahb_reward>  (329) 
-0

>  <i_i_glide_confnum>  (329) 
4

>  <i_i_glide_posenum>  (329) 
2

>  <r_i_glide_eff_state_penalty>  (329) 
0

>  <ligand_id>  (329) 
101

>  <original_smiles>  (329) 
CC12C(=O)CC=C(n3ccnc3)C3CCC1C1CCC4CC(O)CC1CC4C32

>  <smiles>  (329) 
[H]OC1([H])C([H])([H])C2([H])C([H])([H])C3([H])C([H])(C([H])([H])C([H])([H])C2([H])C2([H])C([H])([H])C([H])([H])C4([H])C(n5c([H])c([H])[n+]([H])c5[H])=C([H])C([H])([H])C(=O)C2(C([H])([H])[H])C43[H])C1([H])[H]

$$$$
101:1:1
     RDKit          3D

 61 66  0  0  1  0  0  0  0  0999 V2000
    5.3881   -8.6692    2.6111 C   0  0  0  0  0  0  0  0  0  0  0  0
    4.8368   -7.2657    3.0304 C   0  0  2  0  0  0  0  0  0  0  0  0
    6.1845   -6.4961    3.1449 C   0  0  0  0  0  0  0  0  0  0  0  0
    6.8408   -6.4671    4.1841 O   0  0  0  0  0  0  0  0  0  0  0  0
    6.7765   -5.8582    1.8850 C   0  0  0  0  0  0  0  0  0  0  0  0
    6.1233   -4.5312    1.4761 C   0  0  0  0  0  0  0  0  0  0  0  0
    4.8398   -4.1361    1.6885 C   0  0  0  0  0  0  0  0  0  0  0  0
    4.4941   -2.8087    1.2031 N   0  0  0  0  0  0  0  0  0  0  0  0
    5.3229   -1.7460    0.9919 C   0  0  0  0  0  0  0  0  0  0  0  0
    4.5163   -0.7267    0.5540 C   0  0  0  0  0  0  0  0  0  0  0  0
    3.2535   -1.2311    0.5121 N   0  0  0  0  0  0  0  0  0  0  0  0
    3.2348   -2.4946    0.9102 C   0  0  0  0  0  0  0  0  0  0  0  0
    3.8033   -4.9770    2.4480 C   0  0  2  0  0  0  0  0  0  0  0  0
    3.9541   -4.6729    3.9799 C   0  0  0  0  0  0  0  0  0  0  0  0
    4.0047   -5.8749    4.9819 C   0  0  0  0  0  0  0  0  0  0  0  0
    4.0177   -7.3167    4.3590 C   0  0  1  0  0  0  0  0  0  0  0  0
    2.6063   -8.0818    4.3696 C   0  0  1  0  0  0  0  0  0  0  0  0
    1.3929   -7.2109    4.7712 C   0  0  0  0  0  0  0  0  0  0  0  0
    0.9764   -6.1689    3.7230 C   0  0  0  0  0  0  0  0  0  0  0  0
    1.0925   -6.5901    2.2431 C   0  0  2  0  0  0  0  0  0  0  0  0
   -0.1007   -7.4928    1.8371 C   0  0  0  0  0  0  0  0  0  0  0  0
   -0.4124   -8.7125    2.7539 C   0  0  1  0  0  0  0  0  0  0  0  0
   -1.3858   -9.4842    2.0823 O   0  0  0  0  0  0  0  0  0  0  0  0
    0.7506   -9.6512    3.2229 C   0  0  0  0  0  0  0  0  0  0  0  0
    2.2094   -9.1003    3.2121 C   0  0  1  0  0  0  0  0  0  0  0  0
    2.4967   -8.6419    1.7695 C   0  0  0  0  0  0  0  0  0  0  0  0
    2.4683   -7.1223    1.6887 C   0  0  2  0  0  0  0  0  0  0  0  0
    3.8736   -6.4867    2.0478 C   0  0  2  0  0  0  0  0  0  0  0  0
    4.7671   -9.5143    2.8871 H   0  0  0  0  0  0  0  0  0  0  0  0
    6.3317   -8.9210    3.1068 H   0  0  0  0  0  0  0  0  0  0  0  0
    5.5864   -8.7301    1.5396 H   0  0  0  0  0  0  0  0  0  0  0  0
    7.8241   -5.6489    2.0925 H   0  0  0  0  0  0  0  0  0  0  0  0
    6.7586   -6.5594    1.0556 H   0  0  0  0  0  0  0  0  0  0  0  0
    6.7948   -3.9023    0.9052 H   0  0  0  0  0  0  0  0  0  0  0  0
    6.3923   -1.7576    1.1749 H   0  0  0  0  0  0  0  0  0  0  0  0
    4.7625    0.2960    0.2781 H   0  0  0  0  0  0  0  0  0  0  0  0
    2.3303   -3.0820    0.9314 H   0  0  0  0  0  0  0  0  0  0  0  0
    2.8206   -4.6299    2.1688 H   0  0  0  0  0  0  0  0  0  0  0  0
    4.8965   -4.1432    4.1349 H   0  0  0  0  0  0  0  0  0  0  0  0
    3.2097   -3.9456    4.2992 H   0  0  0  0  0  0  0  0  0  0  0  0
    4.9123   -5.7564    5.5717 H   0  0  0  0  0  0  0  0  0  0  0  0
    3.2666   -5.7297    5.7635 H   0  0  0  0  0  0  0  0  0  0  0  0
    4.6309   -7.9032    5.0539 H   0  0  0  0  0  0  0  0  0  0  0  0
    2.6947   -8.7422    5.2351 H   0  0  0  0  0  0  0  0  0  0  0  0
    0.5565   -7.8520    5.0230 H   0  0  0  0  0  0  0  0  0  0  0  0
    1.5327   -6.7303    5.7357 H   0  0  0  0  0  0  0  0  0  0  0  0
   -0.0560   -5.8895    3.9310 H   0  0  0  0  0  0  0  0  0  0  0  0
    1.5085   -5.2445    3.8903 H   0  0  0  0  0  0  0  0  0  0  0  0
    0.9282   -5.6690    1.6878 H   0  0  0  0  0  0  0  0  0  0  0  0
   -1.0005   -6.8822    1.8275 H   0  0  0  0  0  0  0  0  0  0  0  0
    0.0085   -7.8076    0.8022 H   0  0  0  0  0  0  0  0  0  0  0  0
   -0.9451   -8.3506    3.6297 H   0  0  0  0  0  0  0  0  0  0  0  0
   -0.9895   -9.8194    1.2880 H   0  0  0  0  0  0  0  0  0  0  0  0
    0.5193  -10.0257    4.2233 H   0  0  0  0  0  0  0  0  0  0  0  0
    0.7492  -10.5499    2.6044 H   0  0  0  0  0  0  0  0  0  0  0  0
    2.8046   -9.9995    3.3810 H   0  0  0  0  0  0  0  0  0  0  0  0
    3.3951   -9.0577    1.3270 H   0  0  0  0  0  0  0  0  0  0  0  0
    1.7732   -9.0805    1.0858 H   0  0  0  0  0  0  0  0  0  0  0  0
    2.3821   -6.9166    0.6211 H   0  0  0  0  0  0  0  0  0  0  0  0
    4.3755   -6.5433    1.0806 H   0  0  0  0  0  0  0  0  0  0  0  0
    2.4135   -0.7172    0.1721 H   0  0  0  0  0  0  0  0  0  0  0  0
  2  1  1  6
  1 29  1  0
  1 30  1  0
  1 31  1  0
  2 16  1  0
  2 28  1  0
  2  3  1  0
  3  4  2  0
  3  5  1  0
  5  6  1  0
  5 32  1  0
  5 33  1  0
  6  7  2  0
  6 34  1  0
  7  8  1  0
  7 13  1  0
  8 12  1  0
  8  9  1  0
  9 10  2  0
  9 35  1  0
 10 11  1  0
 10 36  1  0
 11 12  2  0
 11 61  1  0
 12 37  1  0
 13 28  1  0
 13 14  1  0
 13 38  1  6
 14 15  1  0
 14 39  1  0
 14 40  1  0
 15 16  1  0
 15 41  1  0
 15 42  1  0
 16 17  1  0
 16 43  1  1
 17 25  1  0
 17 18  1  0
 17 44  1  1
 18 19  1  0
 18 45  1  0
 18 46  1  0
 19 20  1  0
 19 47  1  0
 19 48  1  0
 20 27  1  0
 20 21  1  0
 20 49  1  6
 21 22  1  0
 21 50  1  0
 21 51  1  0
 22 23  1  0
 22 24  1  0
 22 52  1  1
 23 53  1  0
 24 25  1  0
 24 54  1  0
 24 55  1  0
 25 26  1  0
 25 56  1  1
 26 27  1  0
 26 57  1  0
 26 58  1  0
 27 28  1  0
 27 59  1  6
 28 60  1  6
M  CHG  1  11   1
M  END
>  <i_m_ct_stereo_status>  (330) 
1

>  <s_m_source_file>  (330) 
/var/tmp/pbs.5076255.sched01/tmpsouvlwkc/11751gt6aqu.sdf

>  <i_m_source_file_index>  (330) 
19

>  <i_lp_mmshare_version>  (330) 
48012

>  <i_f3d_flags>  (330) 
0

>  <s_epik_input>  (330) 
W0NIM11bQ0BAXTEyW0NAQEhdM1tDQEBIXTRbQ0BIXTVbQ0gyXVtDQEhdKFtPSF0pW0NIMl1bQ0BASF0oW0NIMl1bQ0gyXTQpW0NASF0oW0NIMl01KVtDQEhdMltDQEBIXShbQ0gyXVtDSDJdMylDKD1bQ0hdW0NIMl1DMT1PKW42W2NIXVtjSF1uW2NIXTY=

>  <s_epik_cmdline>  (330) 
J2VwaWtfcHl0aG9uJywgJy1waHQnLCAnMi4wJywgJy1waCcsICc3LjAnLCAnLXRuJywgJzgnLCAnLW1hJywgJzIwMCcsICctaW1hZScsICc8aW5maWxlLm1hZT4nLCAnLW9tYWUnLCAnPG91dGZpbGUubWFlPic=

>  <r_epik_Ionization_Penalty>  (330) 
0.491151

>  <r_epik_Ionization_Penalty_Charging>  (330) 
0

>  <r_epik_Ionization_Penalty_Neutral>  (330) 
0.491151

>  <r_epik_State_Penalty>  (330) 
0.496888

>  <r_epik_Charging_Adjusted_Penalty>  (330) 
0.496888

>  <i_epik_Tot_Q>  (330) 
1

>  <i_epik_Tot_abs_Q>  (330) 
1

>  <s_lp_Force_Field>  (330) 
OPLS3e

>  <r_lp_Energy>  (330) 
122.03

>  <b_lp_Chiralities_Consistent>  (330) 
1

>  <s_lp_Variant>  (330) 
101:0-2

>  <s_i_glide_gridfile>  (330) 
pfpi4k_grid

>  <i_i_glide_lignum>  (330) 
19

>  <i_i_glide_rotatable_bonds>  (330) 
2

>  <r_i_docking_score>  (330) 
-4.13005

>  <r_i_glide_ligand_efficiency>  (330) 
-0.147502

>  <r_i_glide_ligand_efficiency_sa>  (330) 
-0.447902

>  <r_i_glide_ligand_efficiency_ln>  (330) 
-0.953337

>  <r_i_glide_gscore>  (330) 
-4.13005

>  <r_i_glide_lipo>  (330) 
-0.356017

>  <r_i_glide_hbond>  (330) 
-0.489348

>  <r_i_glide_metal>  (330) 
-0

>  <r_i_glide_rewards>  (330) 
-0.834266

>  <r_i_glide_evdw>  (330) 
-26.9817

>  <r_i_glide_ecoul>  (330) 
-7.54301

>  <r_i_glide_erotb>  (330) 
0.133356

>  <r_i_glide_esite>  (330) 
-0.103238

>  <r_i_glide_emodel>  (330) 
-44.1271

>  <r_i_glide_energy>  (330) 
-34.5247

>  <r_i_glide_einternal>  (330) 
1.45082

>  <r_i_glide_intrahb_reward>  (330) 
-0

>  <i_i_glide_confnum>  (330) 
2

>  <i_i_glide_posenum>  (330) 
26

>  <r_i_glide_eff_state_penalty>  (330) 
0

>  <ligand_id>  (330) 
101

>  <original_smiles>  (330) 
CC12C(=O)CC=C(n3ccnc3)C3CCC1C1CCC4CC(O)CC1CC4C32

>  <smiles>  (330) 
[H]OC1([H])C([H])([H])C2([H])C([H])([H])C3([H])C([H])(C([H])([H])C([H])([H])C2([H])C2([H])C([H])([H])C([H])([H])C4([H])C(n5c([H])c([H])[n+]([H])c5[H])=C([H])C([H])([H])C(=O)C2(C([H])([H])[H])C43[H])C1([H])[H]

$$$$
101:1:2
     RDKit          3D

 61 66  0  0  1  0  0  0  0  0999 V2000
    4.3825   -1.1809    3.0052 C   0  0  0  0  0  0  0  0  0  0  0  0
    4.4353   -2.7129    2.6823 C   0  0  2  0  0  0  0  0  0  0  0  0
    4.3849   -3.2612    4.1450 C   0  0  0  0  0  0  0  0  0  0  0  0
    5.3981   -3.4361    4.8204 O   0  0  0  0  0  0  0  0  0  0  0  0
    3.0143   -3.4706    4.7919 C   0  0  0  0  0  0  0  0  0  0  0  0
    2.2892   -4.7422    4.3508 C   0  0  0  0  0  0  0  0  0  0  0  0
    2.3715   -5.3955    3.1643 C   0  0  0  0  0  0  0  0  0  0  0  0
    1.5516   -6.5624    2.9958 N   0  0  0  0  0  0  0  0  0  0  0  0
    0.5695   -7.0610    3.8278 C   0  0  0  0  0  0  0  0  0  0  0  0
    0.0940   -8.2131    3.2477 C   0  0  0  0  0  0  0  0  0  0  0  0
    0.7898   -8.3705    2.0782 N   0  0  0  0  0  0  0  0  0  0  0  0
    1.6864   -7.3868    1.9312 C   0  0  0  0  0  0  0  0  0  0  0  0
    3.2922   -4.9342    2.0174 C   0  0  2  0  0  0  0  0  0  0  0  0
    4.7122   -5.5719    2.2372 C   0  0  0  0  0  0  0  0  0  0  0  0
    5.9724   -4.6579    2.1153 C   0  0  0  0  0  0  0  0  0  0  0  0
    5.7274   -3.1196    1.9028 C   0  0  1  0  0  0  0  0  0  0  0  0
    5.9043   -2.6023    0.3937 C   0  0  1  0  0  0  0  0  0  0  0  0
    6.0571   -3.7220   -0.6542 C   0  0  0  0  0  0  0  0  0  0  0  0
    4.7815   -4.5263   -0.9205 C   0  0  0  0  0  0  0  0  0  0  0  0
    3.4415   -3.7505   -0.9158 C   0  0  2  0  0  0  0  0  0  0  0  0
    3.2462   -2.9781   -2.2535 C   0  0  0  0  0  0  0  0  0  0  0  0
    4.4293   -2.0869   -2.7281 C   0  0  1  0  0  0  0  0  0  0  0  0
    3.9787   -1.3152   -3.8240 O   0  0  0  0  0  0  0  0  0  0  0  0
    5.1331   -1.1298   -1.7059 C   0  0  0  0  0  0  0  0  0  0  0  0
    5.0235   -1.4131   -0.1774 C   0  0  1  0  0  0  0  0  0  0  0  0
    3.5264   -1.4572    0.1424 C   0  0  0  0  0  0  0  0  0  0  0  0
    3.0586   -2.8880    0.3451 C   0  0  2  0  0  0  0  0  0  0  0  0
    3.2754   -3.3726    1.8384 C   0  0  2  0  0  0  0  0  0  0  0  0
    4.8470   -0.5396    2.2672 H   0  0  0  0  0  0  0  0  0  0  0  0
    4.9353   -0.9112    3.9080 H   0  0  0  0  0  0  0  0  0  0  0  0
    3.3602   -0.8336    3.1613 H   0  0  0  0  0  0  0  0  0  0  0  0
    3.1787   -3.5599    5.8649 H   0  0  0  0  0  0  0  0  0  0  0  0
    2.3777   -2.5991    4.6469 H   0  0  0  0  0  0  0  0  0  0  0  0
    1.6153   -5.0880    5.1179 H   0  0  0  0  0  0  0  0  0  0  0  0
    0.2699   -6.6063    4.7658 H   0  0  0  0  0  0  0  0  0  0  0  0
   -0.6602   -8.9083    3.5844 H   0  0  0  0  0  0  0  0  0  0  0  0
    2.3730   -7.3240    1.1025 H   0  0  0  0  0  0  0  0  0  0  0  0
    2.8853   -5.3249    1.0918 H   0  0  0  0  0  0  0  0  0  0  0  0
    4.7546   -5.9657    3.2551 H   0  0  0  0  0  0  0  0  0  0  0  0
    4.8327   -6.4681    1.6288 H   0  0  0  0  0  0  0  0  0  0  0  0
    6.5235   -4.7717    3.0495 H   0  0  0  0  0  0  0  0  0  0  0  0
    6.6915   -5.1040    1.4422 H   0  0  0  0  0  0  0  0  0  0  0  0
    6.5403   -2.6223    2.4295 H   0  0  0  0  0  0  0  0  0  0  0  0
    6.9059   -2.1717    0.3989 H   0  0  0  0  0  0  0  0  0  0  0  0
    6.4442   -3.3151   -1.5817 H   0  0  0  0  0  0  0  0  0  0  0  0
    6.8741   -4.3882   -0.4051 H   0  0  0  0  0  0  0  0  0  0  0  0
    4.9051   -5.0032   -1.8915 H   0  0  0  0  0  0  0  0  0  0  0  0
    4.7229   -5.3752   -0.2576 H   0  0  0  0  0  0  0  0  0  0  0  0
    2.6760   -4.5246   -0.9538 H   0  0  0  0  0  0  0  0  0  0  0  0
    3.0745   -3.7115   -3.0409 H   0  0  0  0  0  0  0  0  0  0  0  0
    2.3152   -2.4094   -2.2172 H   0  0  0  0  0  0  0  0  0  0  0  0
    5.1784   -2.7417   -3.1673 H   0  0  0  0  0  0  0  0  0  0  0  0
    3.2615   -0.7738   -3.5234 H   0  0  0  0  0  0  0  0  0  0  0  0
    6.1862   -1.0678   -1.9612 H   0  0  0  0  0  0  0  0  0  0  0  0
    4.7503   -0.1216   -1.8722 H   0  0  0  0  0  0  0  0  0  0  0  0
    5.4134   -0.4980    0.2639 H   0  0  0  0  0  0  0  0  0  0  0  0
    3.1967   -0.8067    0.9425 H   0  0  0  0  0  0  0  0  0  0  0  0
    2.9952   -0.9897   -0.6797 H   0  0  0  0  0  0  0  0  0  0  0  0
    1.9749   -2.8175    0.2611 H   0  0  0  0  0  0  0  0  0  0  0  0
    2.3579   -3.0097    2.3036 H   0  0  0  0  0  0  0  0  0  0  0  0
    0.6458   -9.1391    1.4242 H   0  0  0  0  0  0  0  0  0  0  0  0
  2  1  1  1
  1 29  1  0
  1 30  1  0
  1 31  1  0
  2 16  1  0
  2 28  1  0
  2  3  1  0
  3  4  2  0
  3  5  1  0
  5  6  1  0
  5 32  1  0
  5 33  1  0
  6  7  2  0
  6 34  1  0
  7  8  1  0
  7 13  1  0
  8 12  1  0
  8  9  1  0
  9 10  2  0
  9 35  1  0
 10 11  1  0
 10 36  1  0
 11 12  2  0
 11 61  1  0
 12 37  1  0
 13 28  1  0
 13 14  1  0
 13 38  1  6
 14 15  1  0
 14 39  1  0
 14 40  1  0
 15 16  1  0
 15 41  1  0
 15 42  1  0
 16 17  1  0
 16 43  1  1
 17 25  1  0
 17 18  1  0
 17 44  1  1
 18 19  1  0
 18 45  1  0
 18 46  1  0
 19 20  1  0
 19 47  1  0
 19 48  1  0
 20 27  1  0
 20 21  1  0
 20 49  1  6
 21 22  1  0
 21 50  1  0
 21 51  1  0
 22 23  1  0
 22 24  1  0
 22 52  1  6
 23 53  1  0
 24 25  1  0
 24 54  1  0
 24 55  1  0
 25 26  1  0
 25 56  1  1
 26 27  1  0
 26 57  1  0
 26 58  1  0
 27 28  1  0
 27 59  1  1
 28 60  1  1
M  CHG  1  11   1
M  END
>  <i_m_ct_stereo_status>  (331) 
1

>  <s_m_source_file>  (331) 
/var/tmp/pbs.5076255.sched01/tmpsouvlwkc/11751gt6aqu.sdf

>  <i_m_source_file_index>  (331) 
19

>  <i_lp_mmshare_version>  (331) 
48012

>  <i_f3d_flags>  (331) 
0

>  <s_epik_input>  (331) 
W0NIM11bQ0BAXTEyW0NAQEhdM1tDQEBIXTRbQ0BIXTVbQ0gyXVtDQEhdKFtPSF0pW0NIMl1bQ0BASF0oW0NIMl1bQ0gyXTQpW0NASF0oW0NIMl01KVtDQEhdMltDQEBIXShbQ0gyXVtDSDJdMylDKD1bQ0hdW0NIMl1DMT1PKW42W2NIXVtjSF1uW2NIXTY=

>  <s_epik_cmdline>  (331) 
J2VwaWtfcHl0aG9uJywgJy1waHQnLCAnMi4wJywgJy1waCcsICc3LjAnLCAnLXRuJywgJzgnLCAnLW1hJywgJzIwMCcsICctaW1hZScsICc8aW5maWxlLm1hZT4nLCAnLW9tYWUnLCAnPG91dGZpbGUubWFlPic=

>  <r_epik_Ionization_Penalty>  (331) 
0.491151

>  <r_epik_Ionization_Penalty_Charging>  (331) 
0

>  <r_epik_Ionization_Penalty_Neutral>  (331) 
0.491151

>  <r_epik_State_Penalty>  (331) 
0.496888

>  <r_epik_Charging_Adjusted_Penalty>  (331) 
0.496888

>  <i_epik_Tot_Q>  (331) 
1

>  <i_epik_Tot_abs_Q>  (331) 
1

>  <s_lp_Force_Field>  (331) 
OPLS3e

>  <r_lp_Energy>  (331) 
122.03

>  <b_lp_Chiralities_Consistent>  (331) 
1

>  <s_lp_Variant>  (331) 
101:0-2

>  <s_i_glide_gridfile>  (331) 
pfpi4k_grid

>  <i_i_glide_lignum>  (331) 
19

>  <i_i_glide_rotatable_bonds>  (331) 
2

>  <r_i_docking_score>  (331) 
-3.44957

>  <r_i_glide_ligand_efficiency>  (331) 
-0.123199

>  <r_i_glide_ligand_efficiency_sa>  (331) 
-0.374105

>  <r_i_glide_ligand_efficiency_ln>  (331) 
-0.796263

>  <r_i_glide_gscore>  (331) 
-3.44957

>  <r_i_glide_lipo>  (331) 
-0.3337

>  <r_i_glide_hbond>  (331) 
0

>  <r_i_glide_metal>  (331) 
-0

>  <r_i_glide_rewards>  (331) 
-0.823246

>  <r_i_glide_evdw>  (331) 
-27.2056

>  <r_i_glide_ecoul>  (331) 
-6.52128

>  <r_i_glide_erotb>  (331) 
0.133356

>  <r_i_glide_esite>  (331) 
-0.0875109

>  <r_i_glide_emodel>  (331) 
-42.1937

>  <r_i_glide_energy>  (331) 
-33.7269

>  <r_i_glide_einternal>  (331) 
0.0667372

>  <r_i_glide_intrahb_reward>  (331) 
-0

>  <i_i_glide_confnum>  (331) 
4

>  <i_i_glide_posenum>  (331) 
23

>  <r_i_glide_eff_state_penalty>  (331) 
0

>  <ligand_id>  (331) 
101

>  <original_smiles>  (331) 
CC12C(=O)CC=C(n3ccnc3)C3CCC1C1CCC4CC(O)CC1CC4C32

>  <smiles>  (331) 
[H]OC1([H])C([H])([H])C2([H])C([H])([H])C3([H])C([H])(C([H])([H])C([H])([H])C2([H])C2([H])C([H])([H])C([H])([H])C4([H])C(n5c([H])c([H])[n+]([H])c5[H])=C([H])C([H])([H])C(=O)C2(C([H])([H])[H])C43[H])C1([H])[H]

$$$$
102:0:0
     RDKit          3D

 25 27  0  0  1  0  0  0  0  0999 V2000
   -1.0226   -6.7911    2.3405 O   0  0  0  0  0  0  0  0  0  0  0  0
    0.4014   -6.6792    1.9920 S   0  0  0  0  0  0  0  0  0  0  0  0
    0.6777   -6.3496    0.5813 O   0  0  0  0  0  0  0  0  0  0  0  0
    1.1999   -5.7014    3.0237 N   0  0  0  0  0  0  0  0  0  0  0  0
    0.8421   -5.6150    4.3279 C   0  0  0  0  0  0  0  0  0  0  0  0
    1.2636   -4.6222    5.1126 N   0  0  0  0  0  0  0  0  0  0  0  0
    0.7536   -4.7562    6.3493 C   0  0  0  0  0  0  0  0  0  0  0  0
   -0.0769   -5.7826    6.6035 N   0  0  0  0  0  0  0  0  0  0  0  0
   -0.1852   -6.7203    5.2074 S   0  0  0  0  0  0  0  0  0  0  0  0
    1.2117   -8.2534    2.3926 C   0  0  0  0  0  0  0  0  0  0  0  0
    0.4622   -9.2953    2.9902 C   0  0  0  0  0  0  0  0  0  0  0  0
    1.0663  -10.5354    3.2839 C   0  0  0  0  0  0  0  0  0  0  0  0
    2.4286  -10.7374    2.9875 C   0  0  0  0  0  0  0  0  0  0  0  0
    3.1763   -9.6897    2.4119 C   0  0  0  0  0  0  0  0  0  0  0  0
    4.5395   -9.8579    2.0846 C   0  0  0  0  0  0  0  0  0  0  0  0
    5.2639   -8.8685    1.5206 N   0  0  0  0  0  0  0  0  0  0  0  0
    4.6254   -7.7294    1.2862 C   0  0  0  0  0  0  0  0  0  0  0  0
    3.3503   -7.4718    1.5525 N   0  0  0  0  0  0  0  0  0  0  0  0
    2.5893   -8.4365    2.1087 C   0  0  0  0  0  0  0  0  0  0  0  0
    0.9973   -4.0541    7.1423 H   0  0  0  0  0  0  0  0  0  0  0  0
   -0.5827   -9.1562    3.2196 H   0  0  0  0  0  0  0  0  0  0  0  0
    0.4897  -11.3412    3.7262 H   0  0  0  0  0  0  0  0  0  0  0  0
    2.8886  -11.6981    3.1914 H   0  0  0  0  0  0  0  0  0  0  0  0
    5.0549  -10.7910    2.2676 H   0  0  0  0  0  0  0  0  0  0  0  0
    5.1916   -6.9264    0.8406 H   0  0  0  0  0  0  0  0  0  0  0  0
  1  2  2  0
  2  3  2  0
  2  4  1  0
  2 10  1  0
  4  5  1  0
  5  9  1  0
  5  6  2  0
  6  7  1  0
  7  8  2  0
  7 20  1  0
  8  9  1  0
 10 19  1  0
 10 11  2  0
 11 12  1  0
 11 21  1  0
 12 13  2  0
 12 22  1  0
 13 14  1  0
 13 23  1  0
 14 19  2  0
 14 15  1  0
 15 16  2  0
 15 24  1  0
 16 17  1  0
 17 18  2  0
 17 25  1  0
 18 19  1  0
M  CHG  1   4  -1
M  END
>  <i_m_ct_stereo_status>  (332) 
1

>  <s_m_source_file>  (332) 
/var/tmp/pbs.5076255.sched01/tmpsouvlwkc/11751gt6aqu.sdf

>  <i_m_source_file_index>  (332) 
20

>  <i_lp_mmshare_version>  (332) 
48012

>  <i_f3d_flags>  (332) 
0

>  <s_epik_input>  (332) 
W2NIXTFuW2NIXW5jKGMxMiljKFtjSF1bY0hdW2NIXTIpUyg9TykoPU8pL049YzMvW25IXVtjSF1uczM=

>  <s_epik_cmdline>  (332) 
J2VwaWtfcHl0aG9uJywgJy1waHQnLCAnMi4wJywgJy1waCcsICc3LjAnLCAnLXRuJywgJzgnLCAnLW1hJywgJzIwMCcsICctaW1hZScsICc8aW5maWxlLm1hZT4nLCAnLW9tYWUnLCAnPG91dGZpbGUubWFlPic=

>  <r_lp_tautomer_probability>  (332) 
1

>  <r_epik_Ionization_Penalty>  (332) 
0.000177138

>  <r_epik_Ionization_Penalty_Charging>  (332) 
0.000116717

>  <r_epik_Ionization_Penalty_Neutral>  (332) 
6.04207e-05

>  <r_epik_State_Penalty>  (332) 
-0

>  <r_epik_Charging_Adjusted_Penalty>  (332) 
0.000116717

>  <i_epik_Tot_Q>  (332) 
-1

>  <i_epik_Tot_abs_Q>  (332) 
1

>  <s_epik_Chemistry_Notes>  (332) 
This compound contains an electron-poor aromatic ring that is susceptible to covalent hydrolysis at low pH, typically resulting in measured values for nitrogen ring protonation that are around two units higher than predicted values.

>  <s_lp_Force_Field>  (332) 
OPLS3e

>  <r_lp_Energy>  (332) 
29.1484

>  <b_lp_Chiralities_Consistent>  (332) 
1

>  <s_lp_Variant>  (332) 
102:0-1

>  <s_i_glide_gridfile>  (332) 
pfpi4k_grid

>  <i_i_glide_lignum>  (332) 
20

>  <i_i_glide_rotatable_bonds>  (332) 
3

>  <r_i_docking_score>  (332) 
-3.83046

>  <r_i_glide_ligand_efficiency>  (332) 
-0.201603

>  <r_i_glide_ligand_efficiency_sa>  (332) 
-0.537959

>  <r_i_glide_ligand_efficiency_ln>  (332) 
-0.971105

>  <r_i_glide_gscore>  (332) 
-3.83046

>  <r_i_glide_lipo>  (332) 
-0.154108

>  <r_i_glide_hbond>  (332) 
0

>  <r_i_glide_metal>  (332) 
-0

>  <r_i_glide_rewards>  (332) 
-1.49483

>  <r_i_glide_evdw>  (332) 
-21.8766

>  <r_i_glide_ecoul>  (332) 
-9.5415

>  <r_i_glide_erotb>  (332) 
0.640901

>  <r_i_glide_esite>  (332) 
-0.297374

>  <r_i_glide_emodel>  (332) 
-39.7605

>  <r_i_glide_energy>  (332) 
-31.4181

>  <r_i_glide_einternal>  (332) 
2.72085

>  <r_i_glide_intrahb_reward>  (332) 
-0

>  <i_i_glide_confnum>  (332) 
2

>  <i_i_glide_posenum>  (332) 
25

>  <r_i_glide_eff_state_penalty>  (332) 
0

>  <ligand_id>  (332) 
102

>  <original_smiles>  (332) 
O=S(=O)(N=c1[nH]cns1)c1cccc2cncnc12

>  <smiles>  (332) 
[H]c1nsc([N-]S(=O)(=O)c2c([H])c([H])c([H])c3c([H])nc([H])nc23)n1

$$$$
102:0:1
     RDKit          3D

 25 27  0  0  1  0  0  0  0  0999 V2000
    7.7174   -3.8487    0.1013 O   0  0  0  0  0  0  0  0  0  0  0  0
    6.7268   -2.9027   -0.4252 S   0  0  0  0  0  0  0  0  0  0  0  0
    7.0989   -1.4738   -0.3739 O   0  0  0  0  0  0  0  0  0  0  0  0
    6.1582   -3.3682   -1.8742 N   0  0  0  0  0  0  0  0  0  0  0  0
    5.2063   -2.6954   -2.5504 C   0  0  0  0  0  0  0  0  0  0  0  0
    4.7878   -1.4476   -2.3198 N   0  0  0  0  0  0  0  0  0  0  0  0
    3.7866   -1.1318   -3.1648 C   0  0  0  0  0  0  0  0  0  0  0  0
    3.4025   -2.0437   -4.0739 N   0  0  0  0  0  0  0  0  0  0  0  0
    4.3178   -3.4493   -3.8478 S   0  0  0  0  0  0  0  0  0  0  0  0
    5.2347   -3.1725    0.5892 C   0  0  0  0  0  0  0  0  0  0  0  0
    4.3476   -4.2355    0.2727 C   0  0  0  0  0  0  0  0  0  0  0  0
    3.2017   -4.4783    1.0600 C   0  0  0  0  0  0  0  0  0  0  0  0
    2.9303   -3.6552    2.1724 C   0  0  0  0  0  0  0  0  0  0  0  0
    3.8063   -2.6047    2.4869 C   0  0  0  0  0  0  0  0  0  0  0  0
    3.5730   -1.7579    3.5961 C   0  0  0  0  0  0  0  0  0  0  0  0
    4.4022   -0.7481    3.9180 N   0  0  0  0  0  0  0  0  0  0  0  0
    5.4681   -0.5963    3.1332 C   0  0  0  0  0  0  0  0  0  0  0  0
    5.7925   -1.3404    2.0854 N   0  0  0  0  0  0  0  0  0  0  0  0
    4.9722   -2.3452    1.7115 C   0  0  0  0  0  0  0  0  0  0  0  0
    3.2937   -0.1677   -3.1419 H   0  0  0  0  0  0  0  0  0  0  0  0
    4.5348   -4.8850   -0.5727 H   0  0  0  0  0  0  0  0  0  0  0  0
    2.5303   -5.2936    0.8184 H   0  0  0  0  0  0  0  0  0  0  0  0
    2.0585   -3.8329    2.7835 H   0  0  0  0  0  0  0  0  0  0  0  0
    2.7183   -1.8880    4.2409 H   0  0  0  0  0  0  0  0  0  0  0  0
    6.1514    0.2106    3.3585 H   0  0  0  0  0  0  0  0  0  0  0  0
  1  2  2  0
  2  3  2  0
  2  4  1  0
  2 10  1  0
  4  5  1  0
  5  9  1  0
  5  6  2  0
  6  7  1  0
  7  8  2  0
  7 20  1  0
  8  9  1  0
 10 19  1  0
 10 11  2  0
 11 12  1  0
 11 21  1  0
 12 13  2  0
 12 22  1  0
 13 14  1  0
 13 23  1  0
 14 19  2  0
 14 15  1  0
 15 16  2  0
 15 24  1  0
 16 17  1  0
 17 18  2  0
 17 25  1  0
 18 19  1  0
M  CHG  1   4  -1
M  END
>  <i_m_ct_stereo_status>  (333) 
1

>  <s_m_source_file>  (333) 
/var/tmp/pbs.5076255.sched01/tmpsouvlwkc/11751gt6aqu.sdf

>  <i_m_source_file_index>  (333) 
20

>  <i_lp_mmshare_version>  (333) 
48012

>  <i_f3d_flags>  (333) 
0

>  <s_epik_input>  (333) 
W2NIXTFuW2NIXW5jKGMxMiljKFtjSF1bY0hdW2NIXTIpUyg9TykoPU8pL049YzMvW25IXVtjSF1uczM=

>  <s_epik_cmdline>  (333) 
J2VwaWtfcHl0aG9uJywgJy1waHQnLCAnMi4wJywgJy1waCcsICc3LjAnLCAnLXRuJywgJzgnLCAnLW1hJywgJzIwMCcsICctaW1hZScsICc8aW5maWxlLm1hZT4nLCAnLW9tYWUnLCAnPG91dGZpbGUubWFlPic=

>  <r_lp_tautomer_probability>  (333) 
1

>  <r_epik_Ionization_Penalty>  (333) 
0.000177138

>  <r_epik_Ionization_Penalty_Charging>  (333) 
0.000116717

>  <r_epik_Ionization_Penalty_Neutral>  (333) 
6.04207e-05

>  <r_epik_State_Penalty>  (333) 
-0

>  <r_epik_Charging_Adjusted_Penalty>  (333) 
0.000116717

>  <i_epik_Tot_Q>  (333) 
-1

>  <i_epik_Tot_abs_Q>  (333) 
1

>  <s_epik_Chemistry_Notes>  (333) 
This compound contains an electron-poor aromatic ring that is susceptible to covalent hydrolysis at low pH, typically resulting in measured values for nitrogen ring protonation that are around two units higher than predicted values.

>  <s_lp_Force_Field>  (333) 
OPLS3e

>  <r_lp_Energy>  (333) 
29.1484

>  <b_lp_Chiralities_Consistent>  (333) 
1

>  <s_lp_Variant>  (333) 
102:0-1

>  <s_i_glide_gridfile>  (333) 
pfpi4k_grid

>  <i_i_glide_lignum>  (333) 
20

>  <i_i_glide_rotatable_bonds>  (333) 
3

>  <r_i_docking_score>  (333) 
-3.77535

>  <r_i_glide_ligand_efficiency>  (333) 
-0.198703

>  <r_i_glide_ligand_efficiency_sa>  (333) 
-0.530219

>  <r_i_glide_ligand_efficiency_ln>  (333) 
-0.957133

>  <r_i_glide_gscore>  (333) 
-3.77535

>  <r_i_glide_lipo>  (333) 
-0.370346

>  <r_i_glide_hbond>  (333) 
-0.150848

>  <r_i_glide_metal>  (333) 
-0

>  <r_i_glide_rewards>  (333) 
-1.74255

>  <r_i_glide_evdw>  (333) 
-25.1451

>  <r_i_glide_ecoul>  (333) 
-5.30168

>  <r_i_glide_erotb>  (333) 
0.640901

>  <r_i_glide_esite>  (333) 
-0.1

>  <r_i_glide_emodel>  (333) 
-38.5138

>  <r_i_glide_energy>  (333) 
-30.4468

>  <r_i_glide_einternal>  (333) 
2.6597

>  <r_i_glide_intrahb_reward>  (333) 
-0

>  <i_i_glide_confnum>  (333) 
6

>  <i_i_glide_posenum>  (333) 
11

>  <r_i_glide_eff_state_penalty>  (333) 
0

>  <ligand_id>  (333) 
102

>  <original_smiles>  (333) 
O=S(=O)(N=c1[nH]cns1)c1cccc2cncnc12

>  <smiles>  (333) 
[H]c1nsc([N-]S(=O)(=O)c2c([H])c([H])c([H])c3c([H])nc([H])nc23)n1

$$$$
102:0:2
     RDKit          3D

 25 27  0  0  1  0  0  0  0  0999 V2000
    0.9551   -5.9608    3.9287 O   0  0  0  0  0  0  0  0  0  0  0  0
    1.5110   -5.8480    2.5708 S   0  0  0  0  0  0  0  0  0  0  0  0
    0.5456   -5.8966    1.4605 O   0  0  0  0  0  0  0  0  0  0  0  0
    2.5585   -4.5977    2.5147 N   0  0  0  0  0  0  0  0  0  0  0  0
    2.9706   -4.0265    1.3627 C   0  0  0  0  0  0  0  0  0  0  0  0
    2.6204   -4.3898    0.1302 N   0  0  0  0  0  0  0  0  0  0  0  0
    3.2520   -3.6197   -0.7735 C   0  0  0  0  0  0  0  0  0  0  0  0
    4.1070   -2.6781   -0.3390 N   0  0  0  0  0  0  0  0  0  0  0  0
    4.1098   -2.7095    1.3495 S   0  0  0  0  0  0  0  0  0  0  0  0
    2.6212   -7.2642    2.3142 C   0  0  0  0  0  0  0  0  0  0  0  0
    3.9050   -7.1025    1.7279 C   0  0  0  0  0  0  0  0  0  0  0  0
    4.7515   -8.2034    1.5200 C   0  0  0  0  0  0  0  0  0  0  0  0
    4.3266   -9.4847    1.9050 C   0  0  0  0  0  0  0  0  0  0  0  0
    3.0561   -9.6543    2.4879 C   0  0  0  0  0  0  0  0  0  0  0  0
    2.5982  -10.9310    2.8812 C   0  0  0  0  0  0  0  0  0  0  0  0
    1.3838  -11.1081    3.4332 N   0  0  0  0  0  0  0  0  0  0  0  0
    0.6315  -10.0242    3.5835 C   0  0  0  0  0  0  0  0  0  0  0  0
    0.9593   -8.7842    3.2381 N   0  0  0  0  0  0  0  0  0  0  0  0
    2.1765   -8.5575    2.6953 C   0  0  0  0  0  0  0  0  0  0  0  0
    3.0927   -3.7675   -1.8343 H   0  0  0  0  0  0  0  0  0  0  0  0
    4.2786   -6.1441    1.4121 H   0  0  0  0  0  0  0  0  0  0  0  0
    5.7226   -8.0644    1.0668 H   0  0  0  0  0  0  0  0  0  0  0  0
    4.9660  -10.3377    1.7342 H   0  0  0  0  0  0  0  0  0  0  0  0
    3.1994  -11.8175    2.7430 H   0  0  0  0  0  0  0  0  0  0  0  0
   -0.3408  -10.1526    4.0388 H   0  0  0  0  0  0  0  0  0  0  0  0
  1  2  2  0
  2  3  2  0
  2  4  1  0
  2 10  1  0
  4  5  1  0
  5  9  1  0
  5  6  2  0
  6  7  1  0
  7  8  2  0
  7 20  1  0
  8  9  1  0
 10 19  1  0
 10 11  2  0
 11 12  1  0
 11 21  1  0
 12 13  2  0
 12 22  1  0
 13 14  1  0
 13 23  1  0
 14 19  2  0
 14 15  1  0
 15 16  2  0
 15 24  1  0
 16 17  1  0
 17 18  2  0
 17 25  1  0
 18 19  1  0
M  CHG  1   4  -1
M  END
>  <i_m_ct_stereo_status>  (334) 
1

>  <s_m_source_file>  (334) 
/var/tmp/pbs.5076255.sched01/tmpsouvlwkc/11751gt6aqu.sdf

>  <i_m_source_file_index>  (334) 
20

>  <i_lp_mmshare_version>  (334) 
48012

>  <i_f3d_flags>  (334) 
0

>  <s_epik_input>  (334) 
W2NIXTFuW2NIXW5jKGMxMiljKFtjSF1bY0hdW2NIXTIpUyg9TykoPU8pL049YzMvW25IXVtjSF1uczM=

>  <s_epik_cmdline>  (334) 
J2VwaWtfcHl0aG9uJywgJy1waHQnLCAnMi4wJywgJy1waCcsICc3LjAnLCAnLXRuJywgJzgnLCAnLW1hJywgJzIwMCcsICctaW1hZScsICc8aW5maWxlLm1hZT4nLCAnLW9tYWUnLCAnPG91dGZpbGUubWFlPic=

>  <r_lp_tautomer_probability>  (334) 
1

>  <r_epik_Ionization_Penalty>  (334) 
0.000177138

>  <r_epik_Ionization_Penalty_Charging>  (334) 
0.000116717

>  <r_epik_Ionization_Penalty_Neutral>  (334) 
6.04207e-05

>  <r_epik_State_Penalty>  (334) 
-0

>  <r_epik_Charging_Adjusted_Penalty>  (334) 
0.000116717

>  <i_epik_Tot_Q>  (334) 
-1

>  <i_epik_Tot_abs_Q>  (334) 
1

>  <s_epik_Chemistry_Notes>  (334) 
This compound contains an electron-poor aromatic ring that is susceptible to covalent hydrolysis at low pH, typically resulting in measured values for nitrogen ring protonation that are around two units higher than predicted values.

>  <s_lp_Force_Field>  (334) 
OPLS3e

>  <r_lp_Energy>  (334) 
29.1484

>  <b_lp_Chiralities_Consistent>  (334) 
1

>  <s_lp_Variant>  (334) 
102:0-1

>  <s_i_glide_gridfile>  (334) 
pfpi4k_grid

>  <i_i_glide_lignum>  (334) 
20

>  <i_i_glide_rotatable_bonds>  (334) 
3

>  <r_i_docking_score>  (334) 
-3.23478

>  <r_i_glide_ligand_efficiency>  (334) 
-0.170252

>  <r_i_glide_ligand_efficiency_sa>  (334) 
-0.4543

>  <r_i_glide_ligand_efficiency_ln>  (334) 
-0.820087

>  <r_i_glide_gscore>  (334) 
-3.23478

>  <r_i_glide_lipo>  (334) 
-0.0816227

>  <r_i_glide_hbond>  (334) 
0

>  <r_i_glide_metal>  (334) 
-0

>  <r_i_glide_rewards>  (334) 
-1.44496

>  <r_i_glide_evdw>  (334) 
-17.8889

>  <r_i_glide_ecoul>  (334) 
-8.5922

>  <r_i_glide_erotb>  (334) 
0.640901

>  <r_i_glide_esite>  (334) 
-0.165824

>  <r_i_glide_emodel>  (334) 
-34.292

>  <r_i_glide_energy>  (334) 
-26.4811

>  <r_i_glide_einternal>  (334) 
0.491393

>  <r_i_glide_intrahb_reward>  (334) 
-0

>  <i_i_glide_confnum>  (334) 
6

>  <i_i_glide_posenum>  (334) 
3

>  <r_i_glide_eff_state_penalty>  (334) 
0

>  <ligand_id>  (334) 
102

>  <original_smiles>  (334) 
O=S(=O)(N=c1[nH]cns1)c1cccc2cncnc12

>  <smiles>  (334) 
[H]c1nsc([N-]S(=O)(=O)c2c([H])c([H])c([H])c3c([H])nc([H])nc23)n1

$$$$
103:0:0
     RDKit          3D

 16 18  0  0  1  0  0  0  0  0999 V2000
    3.1629   -1.6061   -3.7329 C   0  0  0  0  0  0  0  0  0  0  0  0
    4.1427   -0.8262   -3.1224 C   0  0  0  0  0  0  0  0  0  0  0  0
    4.5033   -1.4708   -1.8805 C   0  0  0  0  0  0  0  0  0  0  0  0
    5.4252   -1.0451   -1.0034 N   0  0  0  0  0  0  0  0  0  0  0  0
    5.5975   -1.7911    0.1244 C   0  0  0  0  0  0  0  0  0  0  0  0
    4.8833   -2.9874    0.3979 C   0  0  0  0  0  0  0  0  0  0  0  0
    4.9453   -3.8349    1.4347 N   0  0  0  0  0  0  0  0  0  0  0  0
    4.0039   -4.8581    1.1677 N   0  0  0  0  0  0  0  0  0  0  0  0
    3.4401   -4.5544   -0.0088 C   0  0  0  0  0  0  0  0  0  0  0  0
    3.9739   -3.4377   -0.4605 N   0  0  0  0  0  0  0  0  0  0  0  0
    3.7948   -2.6587   -1.5980 C   0  0  0  0  0  0  0  0  0  0  0  0
    2.6721   -3.0553   -2.8250 S   0  0  0  0  0  0  0  0  0  0  0  0
    2.6711   -1.3846   -4.6715 H   0  0  0  0  0  0  0  0  0  0  0  0
    4.5669    0.0999   -3.4843 H   0  0  0  0  0  0  0  0  0  0  0  0
    6.3289   -1.4342    0.8356 H   0  0  0  0  0  0  0  0  0  0  0  0
    2.6790   -5.1396   -0.4954 H   0  0  0  0  0  0  0  0  0  0  0  0
  1 12  1  0
  1  2  2  0
  1 13  1  0
  2  3  1  0
  2 14  1  0
  3 11  2  0
  3  4  1  0
  4  5  2  0
  5  6  1  0
  5 15  1  0
  6 10  1  0
  6  7  2  0
  7  8  1  0
  8  9  2  0
  9 10  1  0
  9 16  1  0
 10 11  1  0
 11 12  1  0
M  END
>  <i_m_ct_stereo_status>  (335) 
1

>  <s_m_source_file>  (335) 
/var/tmp/pbs.5076255.sched01/tmpsouvlwkc/11751gt6aqu.sdf

>  <i_m_source_file_index>  (335) 
21

>  <i_lp_mmshare_version>  (335) 
48012

>  <i_f3d_flags>  (335) 
0

>  <s_epik_input>  (335) 
W2NIXTFbY0hdc2MoYzEyKW4zYyhbY0hdbjIpbm5bY0hdMw==

>  <s_epik_cmdline>  (335) 
J2VwaWtfcHl0aG9uJywgJy1waHQnLCAnMi4wJywgJy1waCcsICc3LjAnLCAnLXRuJywgJzgnLCAnLW1hJywgJzIwMCcsICctaW1hZScsICc8aW5maWxlLm1hZT4nLCAnLW9tYWUnLCAnPG91dGZpbGUubWFlPic=

>  <r_lp_tautomer_probability>  (335) 
1

>  <r_epik_Ionization_Penalty>  (335) 
3.1064e-07

>  <r_epik_Ionization_Penalty_Charging>  (335) 
0

>  <r_epik_Ionization_Penalty_Neutral>  (335) 
3.1064e-07

>  <r_epik_State_Penalty>  (335) 
-0

>  <r_epik_Charging_Adjusted_Penalty>  (335) 
0

>  <i_epik_Tot_Q>  (335) 
0

>  <i_epik_Tot_abs_Q>  (335) 
0

>  <s_lp_Force_Field>  (335) 
OPLS3e

>  <r_lp_Energy>  (335) 
13.6713

>  <b_lp_Chiralities_Consistent>  (335) 
1

>  <s_lp_Variant>  (335) 
103:0-1

>  <s_i_glide_gridfile>  (335) 
pfpi4k_grid

>  <i_i_glide_lignum>  (335) 
21

>  <i_i_glide_rotatable_bonds>  (335) 
0

>  <r_i_docking_score>  (335) 
-3.96691

>  <r_i_glide_ligand_efficiency>  (335) 
-0.330576

>  <r_i_glide_ligand_efficiency_sa>  (335) 
-0.75683

>  <r_i_glide_ligand_efficiency_ln>  (335) 
-1.13831

>  <r_i_glide_gscore>  (335) 
-3.96691

>  <r_i_glide_lipo>  (335) 
-0.396897

>  <r_i_glide_hbond>  (335) 
0

>  <r_i_glide_metal>  (335) 
-0

>  <r_i_glide_rewards>  (335) 
-2.28988

>  <r_i_glide_evdw>  (335) 
-19.7339

>  <r_i_glide_ecoul>  (335) 
-1.79857

>  <r_i_glide_erotb>  (335) 
0

>  <r_i_glide_esite>  (335) 
-0.0236569

>  <r_i_glide_emodel>  (335) 
-27.0359

>  <r_i_glide_energy>  (335) 
-21.5324

>  <r_i_glide_einternal>  (335) 
0

>  <r_i_glide_intrahb_reward>  (335) 
-0

>  <i_i_glide_confnum>  (335) 
1

>  <i_i_glide_posenum>  (335) 
1

>  <r_i_glide_eff_state_penalty>  (335) 
0

>  <ligand_id>  (335) 
103

>  <original_smiles>  (335) 
c1cc2ncc3nncn3c2s1

>  <smiles>  (335) 
[H]c1sc2c(nc([H])c3nnc([H])n32)c1[H]

$$$$
103:0:1
     RDKit          3D

 16 18  0  0  1  0  0  0  0  0999 V2000
    3.3526   -1.3343   -3.9957 C   0  0  0  0  0  0  0  0  0  0  0  0
    4.1173   -0.5526   -3.1375 C   0  0  0  0  0  0  0  0  0  0  0  0
    4.1370   -1.1996   -1.8478 C   0  0  0  0  0  0  0  0  0  0  0  0
    4.7712   -0.7638   -0.7485 N   0  0  0  0  0  0  0  0  0  0  0  0
    4.6299   -1.5083    0.3834 C   0  0  0  0  0  0  0  0  0  0  0  0
    3.8730   -2.7120    0.4495 C   0  0  0  0  0  0  0  0  0  0  0  0
    3.6416   -3.5612    1.4619 N   0  0  0  0  0  0  0  0  0  0  0  0
    2.8181   -4.5829    0.9416 N   0  0  0  0  0  0  0  0  0  0  0  0
    2.6085   -4.2812   -0.3428 C   0  0  0  0  0  0  0  0  0  0  0  0
    3.2512   -3.1646   -0.6354 N   0  0  0  0  0  0  0  0  0  0  0  0
    3.3958   -2.3990   -1.7818 C   0  0  0  0  0  0  0  0  0  0  0  0
    2.6498   -2.7960   -3.2728 S   0  0  0  0  0  0  0  0  0  0  0  0
    3.1247   -1.1027   -5.0249 H   0  0  0  0  0  0  0  0  0  0  0  0
    4.5933    0.3862   -3.3634 H   0  0  0  0  0  0  0  0  0  0  0  0
    5.1340   -1.1503    1.2670 H   0  0  0  0  0  0  0  0  0  0  0  0
    2.0072   -4.8561   -1.0200 H   0  0  0  0  0  0  0  0  0  0  0  0
  1 12  1  0
  1  2  2  0
  1 13  1  0
  2  3  1  0
  2 14  1  0
  3 11  2  0
  3  4  1  0
  4  5  2  0
  5  6  1  0
  5 15  1  0
  6 10  1  0
  6  7  2  0
  7  8  1  0
  8  9  2  0
  9 10  1  0
  9 16  1  0
 10 11  1  0
 11 12  1  0
M  END
>  <i_m_ct_stereo_status>  (336) 
1

>  <s_m_source_file>  (336) 
/var/tmp/pbs.5076255.sched01/tmpsouvlwkc/11751gt6aqu.sdf

>  <i_m_source_file_index>  (336) 
21

>  <i_lp_mmshare_version>  (336) 
48012

>  <i_f3d_flags>  (336) 
0

>  <s_epik_input>  (336) 
W2NIXTFbY0hdc2MoYzEyKW4zYyhbY0hdbjIpbm5bY0hdMw==

>  <s_epik_cmdline>  (336) 
J2VwaWtfcHl0aG9uJywgJy1waHQnLCAnMi4wJywgJy1waCcsICc3LjAnLCAnLXRuJywgJzgnLCAnLW1hJywgJzIwMCcsICctaW1hZScsICc8aW5maWxlLm1hZT4nLCAnLW9tYWUnLCAnPG91dGZpbGUubWFlPic=

>  <r_lp_tautomer_probability>  (336) 
1

>  <r_epik_Ionization_Penalty>  (336) 
3.1064e-07

>  <r_epik_Ionization_Penalty_Charging>  (336) 
0

>  <r_epik_Ionization_Penalty_Neutral>  (336) 
3.1064e-07

>  <r_epik_State_Penalty>  (336) 
-0

>  <r_epik_Charging_Adjusted_Penalty>  (336) 
0

>  <i_epik_Tot_Q>  (336) 
0

>  <i_epik_Tot_abs_Q>  (336) 
0

>  <s_lp_Force_Field>  (336) 
OPLS3e

>  <r_lp_Energy>  (336) 
13.6713

>  <b_lp_Chiralities_Consistent>  (336) 
1

>  <s_lp_Variant>  (336) 
103:0-1

>  <s_i_glide_gridfile>  (336) 
pfpi4k_grid

>  <i_i_glide_lignum>  (336) 
21

>  <i_i_glide_rotatable_bonds>  (336) 
0

>  <r_i_docking_score>  (336) 
-3.85498

>  <r_i_glide_ligand_efficiency>  (336) 
-0.321248

>  <r_i_glide_ligand_efficiency_sa>  (336) 
-0.735475

>  <r_i_glide_ligand_efficiency_ln>  (336) 
-1.10619

>  <r_i_glide_gscore>  (336) 
-3.85498

>  <r_i_glide_lipo>  (336) 
-0.427989

>  <r_i_glide_hbond>  (336) 
0

>  <r_i_glide_metal>  (336) 
-0

>  <r_i_glide_rewards>  (336) 
-2.2301

>  <r_i_glide_evdw>  (336) 
-19.8221

>  <r_i_glide_ecoul>  (336) 
-0.820819

>  <r_i_glide_erotb>  (336) 
0

>  <r_i_glide_esite>  (336) 
-0.082658

>  <r_i_glide_emodel>  (336) 
-25.9834

>  <r_i_glide_energy>  (336) 
-20.6429

>  <r_i_glide_einternal>  (336) 
0

>  <r_i_glide_intrahb_reward>  (336) 
-0

>  <i_i_glide_confnum>  (336) 
1

>  <i_i_glide_posenum>  (336) 
4

>  <r_i_glide_eff_state_penalty>  (336) 
0

>  <ligand_id>  (336) 
103

>  <original_smiles>  (336) 
c1cc2ncc3nncn3c2s1

>  <smiles>  (336) 
[H]c1sc2c(nc([H])c3nnc([H])n32)c1[H]

$$$$
103:0:2
     RDKit          3D

 16 18  0  0  1  0  0  0  0  0999 V2000
    2.4646    0.3779    1.7589 C   0  0  0  0  0  0  0  0  0  0  0  0
    2.8289   -0.8800    2.2271 C   0  0  0  0  0  0  0  0  0  0  0  0
    1.8213   -1.3170    3.1599 C   0  0  0  0  0  0  0  0  0  0  0  0
    1.8083   -2.4813    3.8303 N   0  0  0  0  0  0  0  0  0  0  0  0
    0.7646   -2.6979    4.6769 C   0  0  0  0  0  0  0  0  0  0  0  0
   -0.2988   -1.7697    4.8792 C   0  0  0  0  0  0  0  0  0  0  0  0
   -1.3890   -1.8204    5.6620 N   0  0  0  0  0  0  0  0  0  0  0  0
   -2.0943   -0.6192    5.4337 N   0  0  0  0  0  0  0  0  0  0  0  0
   -1.3814    0.0856    4.5435 C   0  0  0  0  0  0  0  0  0  0  0  0
   -0.3027   -0.6120    4.2156 N   0  0  0  0  0  0  0  0  0  0  0  0
    0.7676   -0.3953    3.3553 C   0  0  0  0  0  0  0  0  0  0  0  0
    0.9447    1.0253    2.4078 S   0  0  0  0  0  0  0  0  0  0  0  0
    3.0163    0.9622    1.0417 H   0  0  0  0  0  0  0  0  0  0  0  0
    3.7051   -1.4464    1.9487 H   0  0  0  0  0  0  0  0  0  0  0  0
    0.7626   -3.6330    5.2106 H   0  0  0  0  0  0  0  0  0  0  0  0
   -1.6523    1.0571    4.1618 H   0  0  0  0  0  0  0  0  0  0  0  0
  1 12  1  0
  1  2  2  0
  1 13  1  0
  2  3  1  0
  2 14  1  0
  3 11  2  0
  3  4  1  0
  4  5  2  0
  5  6  1  0
  5 15  1  0
  6 10  1  0
  6  7  2  0
  7  8  1  0
  8  9  2  0
  9 10  1  0
  9 16  1  0
 10 11  1  0
 11 12  1  0
M  END
>  <i_m_ct_stereo_status>  (337) 
1

>  <s_m_source_file>  (337) 
/var/tmp/pbs.5076255.sched01/tmpsouvlwkc/11751gt6aqu.sdf

>  <i_m_source_file_index>  (337) 
21

>  <i_lp_mmshare_version>  (337) 
48012

>  <i_f3d_flags>  (337) 
0

>  <s_epik_input>  (337) 
W2NIXTFbY0hdc2MoYzEyKW4zYyhbY0hdbjIpbm5bY0hdMw==

>  <s_epik_cmdline>  (337) 
J2VwaWtfcHl0aG9uJywgJy1waHQnLCAnMi4wJywgJy1waCcsICc3LjAnLCAnLXRuJywgJzgnLCAnLW1hJywgJzIwMCcsICctaW1hZScsICc8aW5maWxlLm1hZT4nLCAnLW9tYWUnLCAnPG91dGZpbGUubWFlPic=

>  <r_lp_tautomer_probability>  (337) 
1

>  <r_epik_Ionization_Penalty>  (337) 
3.1064e-07

>  <r_epik_Ionization_Penalty_Charging>  (337) 
0

>  <r_epik_Ionization_Penalty_Neutral>  (337) 
3.1064e-07

>  <r_epik_State_Penalty>  (337) 
-0

>  <r_epik_Charging_Adjusted_Penalty>  (337) 
0

>  <i_epik_Tot_Q>  (337) 
0

>  <i_epik_Tot_abs_Q>  (337) 
0

>  <s_lp_Force_Field>  (337) 
OPLS3e

>  <r_lp_Energy>  (337) 
13.6713

>  <b_lp_Chiralities_Consistent>  (337) 
1

>  <s_lp_Variant>  (337) 
103:0-1

>  <s_i_glide_gridfile>  (337) 
pfpi4k_grid

>  <i_i_glide_lignum>  (337) 
21

>  <i_i_glide_rotatable_bonds>  (337) 
0

>  <r_i_docking_score>  (337) 
-3.73374

>  <r_i_glide_ligand_efficiency>  (337) 
-0.311145

>  <r_i_glide_ligand_efficiency_sa>  (337) 
-0.712343

>  <r_i_glide_ligand_efficiency_ln>  (337) 
-1.0714

>  <r_i_glide_gscore>  (337) 
-3.73374

>  <r_i_glide_lipo>  (337) 
-0.0171662

>  <r_i_glide_hbond>  (337) 
0

>  <r_i_glide_metal>  (337) 
-0

>  <r_i_glide_rewards>  (337) 
-2.20773

>  <r_i_glide_evdw>  (337) 
-16.0306

>  <r_i_glide_ecoul>  (337) 
-3.50816

>  <r_i_glide_erotb>  (337) 
0

>  <r_i_glide_esite>  (337) 
-0.181085

>  <r_i_glide_emodel>  (337) 
-24.723

>  <r_i_glide_energy>  (337) 
-19.5388

>  <r_i_glide_einternal>  (337) 
0

>  <r_i_glide_intrahb_reward>  (337) 
-0

>  <i_i_glide_confnum>  (337) 
2

>  <i_i_glide_posenum>  (337) 
3

>  <r_i_glide_eff_state_penalty>  (337) 
0

>  <ligand_id>  (337) 
103

>  <original_smiles>  (337) 
c1cc2ncc3nncn3c2s1

>  <smiles>  (337) 
[H]c1sc2c(nc([H])c3nnc([H])n32)c1[H]

$$$$
104:0:0
     RDKit          3D

 88 96  0  0  1  0  0  0  0  0999 V2000
    3.8606    0.6142    4.4871 C   0  0  0  0  0  0  0  0  0  0  0  0
    3.9444   -0.4461    3.6585 C   0  0  0  0  0  0  0  0  0  0  0  0
    3.4934   -0.3518    2.2168 C   0  0  0  0  0  0  0  0  0  0  0  0
    2.9265   -1.6820    1.6867 C   0  0  0  0  0  0  0  0  0  0  0  0
    3.8788   -2.8547    2.0329 C   0  0  1  0  0  0  0  0  0  0  0  0
    3.9924   -2.8895    3.4332 O   0  0  0  0  0  0  0  0  0  0  0  0
    4.5456   -1.7659    4.1089 C   0  0  0  0  0  0  0  0  0  0  0  0
    3.2426   -4.0354    1.5913 O   0  0  0  0  0  0  0  0  0  0  0  0
    3.8800   -5.2848    1.9397 C   0  0  1  0  0  0  0  0  0  0  0  0
    3.0266   -6.5237    1.5599 C   0  0  0  0  0  0  0  0  0  0  0  0
    3.5217   -7.8868    2.1247 C   0  0  1  0  0  0  0  0  0  0  0  0
    4.8704   -8.4677    1.5355 C   0  0  2  0  0  0  0  0  0  0  0  0
    5.7807   -9.1217    2.5547 C   0  0  0  0  0  0  0  0  0  0  0  0
    5.8669   -8.1589    3.7221 C   0  0  1  0  0  0  0  0  0  0  0  0
    6.3895   -6.7559    3.2081 C   0  0  1  0  0  0  0  0  0  0  0  0
    7.7994   -6.5079    3.8067 C   0  0  0  0  0  0  0  0  0  0  0  0
    6.2256   -6.4375    1.6465 C   0  0  2  0  0  0  0  0  0  0  0  0
    7.5380   -5.8782    1.0161 C   0  0  0  0  0  0  0  0  0  0  0  0
    7.4588   -4.3379    1.1150 C   0  0  0  0  0  0  0  0  0  0  0  0
    6.0391   -4.0698    1.6401 C   0  0  1  0  0  0  0  0  0  0  0  0
    5.3326   -2.7308    1.3728 C   0  0  1  0  0  0  0  0  0  0  0  0
    5.3130   -2.1891   -0.0823 C   0  0  0  0  0  0  0  0  0  0  0  0
    5.2417   -5.3005    1.2281 C   0  0  2  0  0  0  0  0  0  0  0  0
    4.9802   -5.2882   -0.3131 C   0  0  0  0  0  0  0  0  0  0  0  0
    5.7722   -7.5661    0.9103 O   0  0  0  0  0  0  0  0  0  0  0  0
    4.5467   -8.1936    4.5871 C   0  0  2  0  0  0  0  0  0  0  0  0
    4.6803   -6.9983    5.6046 C   0  0  0  0  0  0  0  0  0  0  0  0
    4.5349   -9.5272    5.4356 C   0  0  0  0  0  0  0  0  0  0  0  0
    3.1748   -9.9476    6.0886 C   0  0  1  0  0  0  0  0  0  0  0  0
    2.4631   -8.7603    6.3862 N   0  0  0  0  0  0  0  0  0  0  0  0
    1.2765   -8.7723    5.3745 C   0  0  2  0  0  0  0  0  0  0  0  0
    0.9043  -10.0600    5.6716 O   0  0  0  0  0  0  0  0  0  0  0  0
    2.0913  -10.7621    5.2803 C   0  0  1  0  0  0  0  0  0  0  0  0
    1.9961  -10.4338    3.7992 C   0  0  0  0  0  0  0  0  0  0  0  0
    3.0522  -11.1677    2.9499 C   0  0  0  0  0  0  0  0  0  0  0  0
    0.6522  -10.9043    3.1797 C   0  0  0  0  0  0  0  0  0  0  0  0
    1.9672   -8.8923    3.9389 C   0  0  2  0  0  0  0  0  0  0  0  0
    3.2527   -8.0127    3.6778 C   0  0  2  0  0  0  0  0  0  0  0  0
    4.2215    0.5637    5.4961 H   0  0  0  0  0  0  0  0  0  0  0  0
    3.4654    1.5505    4.1330 H   0  0  0  0  0  0  0  0  0  0  0  0
    2.7398    0.4331    2.0973 H   0  0  0  0  0  0  0  0  0  0  0  0
    4.3551   -0.0272    1.6409 H   0  0  0  0  0  0  0  0  0  0  0  0
    1.9530   -1.8901    2.1340 H   0  0  0  0  0  0  0  0  0  0  0  0
    2.7456   -1.6523    0.6071 H   0  0  0  0  0  0  0  0  0  0  0  0
    5.6270   -1.7532    3.9764 H   0  0  0  0  0  0  0  0  0  0  0  0
    4.3822   -1.8942    5.1808 H   0  0  0  0  0  0  0  0  0  0  0  0
    3.9853   -5.2862    3.0197 H   0  0  0  0  0  0  0  0  0  0  0  0
    2.0118   -6.3615    1.9303 H   0  0  0  0  0  0  0  0  0  0  0  0
    2.9004   -6.6028    0.4837 H   0  0  0  0  0  0  0  0  0  0  0  0
    2.7972   -8.5644    1.6759 H   0  0  0  0  0  0  0  0  0  0  0  0
    4.6298   -9.2001    0.7590 H   0  0  0  0  0  0  0  0  0  0  0  0
    5.4454  -10.1062    2.8330 H   0  0  0  0  0  0  0  0  0  0  0  0
    6.7672   -9.2862    2.1199 H   0  0  0  0  0  0  0  0  0  0  0  0
    6.6465   -8.5672    4.3712 H   0  0  0  0  0  0  0  0  0  0  0  0
    5.8366   -5.9778    3.7043 H   0  0  0  0  0  0  0  0  0  0  0  0
    8.5439   -7.2104    3.4313 H   0  0  0  0  0  0  0  0  0  0  0  0
    7.7797   -6.6146    4.8925 H   0  0  0  0  0  0  0  0  0  0  0  0
    8.1526   -5.4954    3.6174 H   0  0  0  0  0  0  0  0  0  0  0  0
    8.4666   -6.2908    1.4061 H   0  0  0  0  0  0  0  0  0  0  0  0
    7.5654   -6.1529   -0.0308 H   0  0  0  0  0  0  0  0  0  0  0  0
    8.2170   -3.9397    1.7826 H   0  0  0  0  0  0  0  0  0  0  0  0
    7.6334   -3.8852    0.1423 H   0  0  0  0  0  0  0  0  0  0  0  0
    6.1292   -4.1030    2.7255 H   0  0  0  0  0  0  0  0  0  0  0  0
    5.9078   -1.9766    1.8882 H   0  0  0  0  0  0  0  0  0  0  0  0
    4.6187   -2.6824   -0.7590 H   0  0  0  0  0  0  0  0  0  0  0  0
    6.3049   -2.2268   -0.5271 H   0  0  0  0  0  0  0  0  0  0  0  0
    5.0349   -1.1376   -0.0953 H   0  0  0  0  0  0  0  0  0  0  0  0
    5.8092   -4.8682   -0.8796 H   0  0  0  0  0  0  0  0  0  0  0  0
    4.1050   -4.6987   -0.5742 H   0  0  0  0  0  0  0  0  0  0  0  0
    4.7759   -6.2669   -0.7397 H   0  0  0  0  0  0  0  0  0  0  0  0
    4.1361   -7.0779    6.5373 H   0  0  0  0  0  0  0  0  0  0  0  0
    4.3560   -6.0471    5.1745 H   0  0  0  0  0  0  0  0  0  0  0  0
    5.7164   -6.8692    5.9184 H   0  0  0  0  0  0  0  0  0  0  0  0
    4.9681  -10.3712    4.9229 H   0  0  0  0  0  0  0  0  0  0  0  0
    5.2369   -9.3771    6.2529 H   0  0  0  0  0  0  0  0  0  0  0  0
    3.3826  -10.4940    7.0179 H   0  0  0  0  0  0  0  0  0  0  0  0
    2.0780   -8.8441    7.3419 H   0  0  0  0  0  0  0  0  0  0  0  0
    0.5243   -8.0128    5.5003 H   0  0  0  0  0  0  0  0  0  0  0  0
    2.0734  -11.8246    5.4945 H   0  0  0  0  0  0  0  0  0  0  0  0
    3.2827  -10.6542    2.0227 H   0  0  0  0  0  0  0  0  0  0  0  0
    2.6868  -12.1478    2.6432 H   0  0  0  0  0  0  0  0  0  0  0  0
    3.9578  -11.4112    3.4829 H   0  0  0  0  0  0  0  0  0  0  0  0
    0.6162  -10.6939    2.1057 H   0  0  0  0  0  0  0  0  0  0  0  0
   -0.2241  -10.4132    3.6165 H   0  0  0  0  0  0  0  0  0  0  0  0
    0.5137  -11.9793    3.3216 H   0  0  0  0  0  0  0  0  0  0  0  0
    1.2019   -8.5148    3.2452 H   0  0  0  0  0  0  0  0  0  0  0  0
    2.8740   -7.0312    3.9561 H   0  0  0  0  0  0  0  0  0  0  0  0
    3.0325   -7.9388    6.2933 H   0  0  0  0  0  0  0  0  0  0  0  0
  1  2  2  0
  1 39  1  0
  1 40  1  0
  2  7  1  0
  2  3  1  0
  3  4  1  0
  3 41  1  0
  3 42  1  0
  4  5  1  0
  4 43  1  0
  4 44  1  0
  5 21  1  0
  5  6  1  1
  5  8  1  0
  6  7  1  0
  7 45  1  0
  7 46  1  0
  8  9  1  0
  9 23  1  0
  9 10  1  0
  9 47  1  1
 10 11  1  0
 10 48  1  0
 10 49  1  0
 11 38  1  0
 11 12  1  0
 11 50  1  6
 12 25  1  0
 12 13  1  0
 12 51  1  6
 13 14  1  0
 13 52  1  0
 13 53  1  0
 14 15  1  0
 14 26  1  0
 14 54  1  1
 15 16  1  0
 15 17  1  0
 15 55  1  1
 16 56  1  0
 16 57  1  0
 16 58  1  0
 17 23  1  0
 17 18  1  6
 17 25  1  0
 18 19  1  0
 18 59  1  0
 18 60  1  0
 19 20  1  0
 19 61  1  0
 19 62  1  0
 20 21  1  0
 20 23  1  0
 20 63  1  1
 21 22  1  0
 21 64  1  1
 22 65  1  0
 22 66  1  0
 22 67  1  0
 23 24  1  6
 24 68  1  0
 24 69  1  0
 24 70  1  0
 26 38  1  0
 26 27  1  1
 26 28  1  0
 27 71  1  0
 27 72  1  0
 27 73  1  0
 28 29  1  0
 28 74  1  0
 28 75  1  0
 29 33  1  0
 29 30  1  0
 29 76  1  1
 30 31  1  0
 30 77  1  0
 30 88  1  0
 31 37  1  0
 31 32  1  0
 31 78  1  6
 32 33  1  0
 33 34  1  0
 33 79  1  6
 34 35  1  0
 34 36  1  0
 34 37  1  0
 35 80  1  0
 35 81  1  0
 35 82  1  0
 36 83  1  0
 36 84  1  0
 36 85  1  0
 37 38  1  0
 37 86  1  6
 38 87  1  1
M  CHG  1  30   1
M  END
>  <i_m_ct_stereo_status>  (338) 
1

>  <s_m_source_file>  (338) 
/var/tmp/pbs.5076255.sched01/tmpsouvlwkc/11751gt6aqu.sdf

>  <i_m_source_file_index>  (338) 
22

>  <i_lp_mmshare_version>  (338) 
48012

>  <i_f3d_flags>  (338) 
0

>  <s_epik_input>  (338) 
TzFbQ0gyXUMoPVtDSDJdKVtDSDJdW0NIMl1bQ0BdMTJPW0NAQEhdM1tDQF00KFtDSDNdKVtDQEBdNShbQ0gyXVtDSDJdW0NASF00W0NASF0yW0NIM10pW0NASF0oW0NIM10pW0NASF02W0NAQF03KFtDSDNdKVtDQEBIXShbQ0BASF0oW0NIMl0zKVtDQEBIXShPNSlbQ0gyXTYpW0NAQEhdOFtDQEBIXTlbTkhdW0NASF0oW0NIMl03KVtDQEBIXShPOSlDOChbQ0gzXSlbQ0gzXQ==

>  <s_epik_cmdline>  (338) 
J2VwaWtfcHl0aG9uJywgJy1waHQnLCAnMi4wJywgJy1waCcsICc3LjAnLCAnLXRuJywgJzgnLCAnLW1hJywgJzIwMCcsICctaW1hZScsICc8aW5maWxlLm1hZT4nLCAnLW9tYWUnLCAnPG91dGZpbGUubWFlPic=

>  <r_epik_Ionization_Penalty>  (338) 
0.0251947

>  <r_epik_Ionization_Penalty_Charging>  (338) 
0.0251947

>  <r_epik_Ionization_Penalty_Neutral>  (338) 
4.19767e-11

>  <r_epik_State_Penalty>  (338) 
0.0204962

>  <r_epik_Charging_Adjusted_Penalty>  (338) 
0.0456909

>  <i_epik_Tot_Q>  (338) 
1

>  <i_epik_Tot_abs_Q>  (338) 
1

>  <s_epik_Chemistry_Notes>  (338) 
This compound contains an acetal/aminal-like group ( X-CH(R)-Y where X, Y are N, S, or O) that may be acid/base labile, releasing an aldehyde.

>  <s_lp_Force_Field>  (338) 
OPLS3e

>  <r_lp_Energy>  (338) 
152.646

>  <b_lp_Chiralities_Consistent>  (338) 
1

>  <s_lp_Variant>  (338) 
104:0-1

>  <s_i_glide_gridfile>  (338) 
pfpi4k_grid

>  <i_i_glide_lignum>  (338) 
22

>  <i_i_glide_rotatable_bonds>  (338) 
0

>  <r_i_docking_score>  (338) 
-2.69721

>  <r_i_glide_ligand_efficiency>  (338) 
-0.0709793

>  <r_i_glide_ligand_efficiency_sa>  (338) 
-0.238631

>  <r_i_glide_ligand_efficiency_ln>  (338) 
-0.581599

>  <r_i_glide_gscore>  (338) 
-2.69721

>  <r_i_glide_lipo>  (338) 
-0.638361

>  <r_i_glide_hbond>  (338) 
0

>  <r_i_glide_metal>  (338) 
-0

>  <r_i_glide_rewards>  (338) 
0

>  <r_i_glide_evdw>  (338) 
-31.3939

>  <r_i_glide_ecoul>  (338) 
-2.93585

>  <r_i_glide_erotb>  (338) 
0

>  <r_i_glide_esite>  (338) 
-0.0487801

>  <r_i_glide_emodel>  (338) 
-40.7921

>  <r_i_glide_energy>  (338) 
-34.3298

>  <r_i_glide_einternal>  (338) 
0

>  <r_i_glide_intrahb_reward>  (338) 
-0

>  <i_i_glide_confnum>  (338) 
1

>  <i_i_glide_posenum>  (338) 
8

>  <r_i_glide_eff_state_penalty>  (338) 
0

>  <ligand_id>  (338) 
104

>  <original_smiles>  (338) 
C=C1CCC2(OC1)OC1CC3C4CC(C(C)C5(CCC(C2C)C15C)O4)C1(C)CC2NC4OC2C(C)(C)C4C31

>  <smiles>  (338) 
[H]C([H])=C1C([H])([H])OC2(OC3([H])C([H])([H])C4([H])C5([H])OC6(C([H])([H])C([H])([H])C([H])(C2([H])C([H])([H])[H])C36C([H])([H])[H])C([H])(C([H])([H])[H])C([H])(C5([H])[H])C2(C([H])([H])[H])C([H])([H])C3([H])C5([H])OC([H])(C([H])(C42[H])C5(C([H])([H])[H])C([H])([H])[H])[N+]3([H])[H])C([H])([H])C1([H])[H]

$$$$
104:0:1
     RDKit          3D

 88 96  0  0  1  0  0  0  0  0999 V2000
   -1.5874   -9.1101    2.2396 C   0  0  0  0  0  0  0  0  0  0  0  0
   -0.5362   -8.5235    2.8270 C   0  0  0  0  0  0  0  0  0  0  0  0
   -0.0843   -8.9725    4.1867 C   0  0  0  0  0  0  0  0  0  0  0  0
    0.4947   -7.8267    5.0209 C   0  0  0  0  0  0  0  0  0  0  0  0
    1.5174   -7.0311    4.1828 C   0  0  1  0  0  0  0  0  0  0  0  0
    0.8154   -6.5107    3.0637 O   0  0  0  0  0  0  0  0  0  0  0  0
    0.2673   -7.4434    2.1356 C   0  0  0  0  0  0  0  0  0  0  0  0
    1.9170   -5.9397    5.0060 O   0  0  0  0  0  0  0  0  0  0  0  0
    2.7729   -4.9566    4.3928 C   0  0  1  0  0  0  0  0  0  0  0  0
    3.0104   -3.7363    5.3113 C   0  0  0  0  0  0  0  0  0  0  0  0
    3.6958   -2.5149    4.6337 C   0  0  1  0  0  0  0  0  0  0  0  0
    5.1959   -2.6936    4.1975 C   0  0  2  0  0  0  0  0  0  0  0  0
    5.5700   -2.0544    2.8681 C   0  0  0  0  0  0  0  0  0  0  0  0
    4.5301   -2.4926    1.8969 C   0  0  1  0  0  0  0  0  0  0  0  0
    4.4772   -4.0859    1.8644 C   0  0  1  0  0  0  0  0  0  0  0  0
    4.9518   -4.5567    0.4687 C   0  0  0  0  0  0  0  0  0  0  0  0
    5.0672   -4.8731    3.1240 C   0  0  2  0  0  0  0  0  0  0  0  0
    6.0170   -6.0376    2.7046 C   0  0  0  0  0  0  0  0  0  0  0  0
    5.1322   -7.2996    2.5702 C   0  0  0  0  0  0  0  0  0  0  0  0
    3.7747   -6.8503    3.1197 C   0  0  1  0  0  0  0  0  0  0  0  0
    2.7798   -7.8606    3.7243 C   0  0  1  0  0  0  0  0  0  0  0  0
    3.3160   -8.8575    4.7869 C   0  0  0  0  0  0  0  0  0  0  0  0
    4.0814   -5.6683    4.0268 C   0  0  2  0  0  0  0  0  0  0  0  0
    4.7669   -6.1550    5.3571 C   0  0  0  0  0  0  0  0  0  0  0  0
    5.7082   -4.0113    4.0463 O   0  0  0  0  0  0  0  0  0  0  0  0
    3.2234   -1.6785    2.1534 C   0  0  2  0  0  0  0  0  0  0  0  0
    2.2146   -2.4258    1.2598 C   0  0  0  0  0  0  0  0  0  0  0  0
    3.3735   -0.2191    1.5796 C   0  0  0  0  0  0  0  0  0  0  0  0
    2.3135    0.8438    2.0043 C   0  0  1  0  0  0  0  0  0  0  0  0
    1.0548    0.1556    2.1836 N   0  0  0  0  0  0  0  0  0  0  0  0
    0.8433    0.1965    3.7168 C   0  0  2  0  0  0  0  0  0  0  0  0
    1.0575    1.5676    3.8261 O   0  0  0  0  0  0  0  0  0  0  0  0
    2.4125    1.6241    3.3609 C   0  0  1  0  0  0  0  0  0  0  0  0
    3.0214    0.8354    4.5249 C   0  0  0  0  0  0  0  0  0  0  0  0
    4.5677    0.7894    4.5168 C   0  0  0  0  0  0  0  0  0  0  0  0
    2.7007    1.4749    5.9091 C   0  0  0  0  0  0  0  0  0  0  0  0
    2.1555   -0.4356    4.3573 C   0  0  2  0  0  0  0  0  0  0  0  0
    2.7317   -1.7386    3.6616 C   0  0  2  0  0  0  0  0  0  0  0  0
   -1.8489   -8.8401    1.2498 H   0  0  0  0  0  0  0  0  0  0  0  0
   -2.1198   -9.8989    2.7259 H   0  0  0  0  0  0  0  0  0  0  0  0
   -0.9151   -9.4073    4.7326 H   0  0  0  0  0  0  0  0  0  0  0  0
    0.6220   -9.7875    4.0266 H   0  0  0  0  0  0  0  0  0  0  0  0
   -0.3096   -7.1562    5.3453 H   0  0  0  0  0  0  0  0  0  0  0  0
    0.9623   -8.1899    5.9431 H   0  0  0  0  0  0  0  0  0  0  0  0
    1.0437   -7.8712    1.5069 H   0  0  0  0  0  0  0  0  0  0  0  0
   -0.3743   -6.9019    1.4431 H   0  0  0  0  0  0  0  0  0  0  0  0
    2.2413   -4.5989    3.5121 H   0  0  0  0  0  0  0  0  0  0  0  0
    2.0517   -3.4001    5.6995 H   0  0  0  0  0  0  0  0  0  0  0  0
    3.5717   -4.0125    6.2073 H   0  0  0  0  0  0  0  0  0  0  0  0
    3.8023   -1.8481    5.4800 H   0  0  0  0  0  0  0  0  0  0  0  0
    5.8047   -2.2619    4.9920 H   0  0  0  0  0  0  0  0  0  0  0  0
    5.6809   -0.9835    2.9381 H   0  0  0  0  0  0  0  0  0  0  0  0
    6.5235   -2.4057    2.4806 H   0  0  0  0  0  0  0  0  0  0  0  0
    4.8838   -2.1720    0.9215 H   0  0  0  0  0  0  0  0  0  0  0  0
    3.4582   -4.4157    1.8189 H   0  0  0  0  0  0  0  0  0  0  0  0
    6.0050   -4.3381    0.2880 H   0  0  0  0  0  0  0  0  0  0  0  0
    4.3881   -4.0639   -0.3206 H   0  0  0  0  0  0  0  0  0  0  0  0
    4.7842   -5.6238    0.3178 H   0  0  0  0  0  0  0  0  0  0  0  0
    6.6325   -5.8491    1.8279 H   0  0  0  0  0  0  0  0  0  0  0  0
    6.7368   -6.2125    3.5015 H   0  0  0  0  0  0  0  0  0  0  0  0
    5.0354   -7.6400    1.5391 H   0  0  0  0  0  0  0  0  0  0  0  0
    5.5591   -8.1159    3.1464 H   0  0  0  0  0  0  0  0  0  0  0  0
    3.2427   -6.4621    2.2554 H   0  0  0  0  0  0  0  0  0  0  0  0
    2.5181   -8.5434    2.9122 H   0  0  0  0  0  0  0  0  0  0  0  0
    3.4671   -8.4445    5.7804 H   0  0  0  0  0  0  0  0  0  0  0  0
    4.2371   -9.3364    4.4589 H   0  0  0  0  0  0  0  0  0  0  0  0
    2.6257   -9.6855    4.9268 H   0  0  0  0  0  0  0  0  0  0  0  0
    5.4365   -7.0011    5.2064 H   0  0  0  0  0  0  0  0  0  0  0  0
    4.0324   -6.4655    6.0945 H   0  0  0  0  0  0  0  0  0  0  0  0
    5.3492   -5.3930    5.8695 H   0  0  0  0  0  0  0  0  0  0  0  0
    1.3689   -1.8596    0.9837 H   0  0  0  0  0  0  0  0  0  0  0  0
    1.8030   -3.2860    1.7518 H   0  0  0  0  0  0  0  0  0  0  0  0
    2.6455   -2.7452    0.3058 H   0  0  0  0  0  0  0  0  0  0  0  0
    4.3572    0.1920    1.7048 H   0  0  0  0  0  0  0  0  0  0  0  0
    3.2995   -0.3042    0.4930 H   0  0  0  0  0  0  0  0  0  0  0  0
    2.1939    1.5771    1.2184 H   0  0  0  0  0  0  0  0  0  0  0  0
    0.3467    0.7051    1.6962 H   0  0  0  0  0  0  0  0  0  0  0  0
   -0.1183   -0.1556    4.0872 H   0  0  0  0  0  0  0  0  0  0  0  0
    2.8021    2.6336    3.2629 H   0  0  0  0  0  0  0  0  0  0  0  0
    4.9794   -0.0733    5.0316 H   0  0  0  0  0  0  0  0  0  0  0  0
    4.9794    1.6530    5.0376 H   0  0  0  0  0  0  0  0  0  0  0  0
    4.9929    0.8755    3.5340 H   0  0  0  0  0  0  0  0  0  0  0  0
    3.1799    0.9162    6.7198 H   0  0  0  0  0  0  0  0  0  0  0  0
    1.6321    1.4947    6.1405 H   0  0  0  0  0  0  0  0  0  0  0  0
    3.0546    2.5060    5.9634 H   0  0  0  0  0  0  0  0  0  0  0  0
    1.8501   -0.7572    5.3524 H   0  0  0  0  0  0  0  0  0  0  0  0
    1.8380   -2.3548    3.6468 H   0  0  0  0  0  0  0  0  0  0  0  0
    1.1101   -0.7759    1.8038 H   0  0  0  0  0  0  0  0  0  0  0  0
  1  2  2  0
  1 39  1  0
  1 40  1  0
  2  7  1  0
  2  3  1  0
  3  4  1  0
  3 41  1  0
  3 42  1  0
  4  5  1  0
  4 43  1  0
  4 44  1  0
  5 21  1  0
  5  6  1  6
  5  8  1  0
  6  7  1  0
  7 45  1  0
  7 46  1  0
  8  9  1  0
  9 23  1  0
  9 10  1  0
  9 47  1  6
 10 11  1  0
 10 48  1  0
 10 49  1  0
 11 38  1  0
 11 12  1  0
 11 50  1  1
 12 25  1  0
 12 13  1  0
 12 51  1  1
 13 14  1  0
 13 52  1  0
 13 53  1  0
 14 15  1  0
 14 26  1  0
 14 54  1  6
 15 16  1  0
 15 17  1  0
 15 55  1  6
 16 56  1  0
 16 57  1  0
 16 58  1  0
 17 23  1  0
 17 18  1  6
 17 25  1  0
 18 19  1  0
 18 59  1  0
 18 60  1  0
 19 20  1  0
 19 61  1  0
 19 62  1  0
 20 21  1  0
 20 23  1  0
 20 63  1  6
 21 22  1  0
 21 64  1  6
 22 65  1  0
 22 66  1  0
 22 67  1  0
 23 24  1  1
 24 68  1  0
 24 69  1  0
 24 70  1  0
 26 38  1  0
 26 27  1  6
 26 28  1  0
 27 71  1  0
 27 72  1  0
 27 73  1  0
 28 29  1  0
 28 74  1  0
 28 75  1  0
 29 33  1  0
 29 30  1  0
 29 76  1  6
 30 31  1  0
 30 77  1  0
 30 88  1  0
 31 37  1  0
 31 32  1  0
 31 78  1  6
 32 33  1  0
 33 34  1  0
 33 79  1  6
 34 35  1  0
 34 36  1  0
 34 37  1  0
 35 80  1  0
 35 81  1  0
 35 82  1  0
 36 83  1  0
 36 84  1  0
 36 85  1  0
 37 38  1  0
 37 86  1  1
 38 87  1  6
M  CHG  1  30   1
M  END
>  <i_m_ct_stereo_status>  (339) 
1

>  <s_m_source_file>  (339) 
/var/tmp/pbs.5076255.sched01/tmpsouvlwkc/11751gt6aqu.sdf

>  <i_m_source_file_index>  (339) 
22

>  <i_lp_mmshare_version>  (339) 
48012

>  <i_f3d_flags>  (339) 
0

>  <s_epik_input>  (339) 
TzFbQ0gyXUMoPVtDSDJdKVtDSDJdW0NIMl1bQ0BdMTJPW0NAQEhdM1tDQF00KFtDSDNdKVtDQEBdNShbQ0gyXVtDSDJdW0NASF00W0NASF0yW0NIM10pW0NASF0oW0NIM10pW0NASF02W0NAQF03KFtDSDNdKVtDQEBIXShbQ0BASF0oW0NIMl0zKVtDQEBIXShPNSlbQ0gyXTYpW0NAQEhdOFtDQEBIXTlbTkhdW0NASF0oW0NIMl03KVtDQEBIXShPOSlDOChbQ0gzXSlbQ0gzXQ==

>  <s_epik_cmdline>  (339) 
J2VwaWtfcHl0aG9uJywgJy1waHQnLCAnMi4wJywgJy1waCcsICc3LjAnLCAnLXRuJywgJzgnLCAnLW1hJywgJzIwMCcsICctaW1hZScsICc8aW5maWxlLm1hZT4nLCAnLW9tYWUnLCAnPG91dGZpbGUubWFlPic=

>  <r_epik_Ionization_Penalty>  (339) 
0.0251947

>  <r_epik_Ionization_Penalty_Charging>  (339) 
0.0251947

>  <r_epik_Ionization_Penalty_Neutral>  (339) 
4.19767e-11

>  <r_epik_State_Penalty>  (339) 
0.0204962

>  <r_epik_Charging_Adjusted_Penalty>  (339) 
0.0456909

>  <i_epik_Tot_Q>  (339) 
1

>  <i_epik_Tot_abs_Q>  (339) 
1

>  <s_epik_Chemistry_Notes>  (339) 
This compound contains an acetal/aminal-like group ( X-CH(R)-Y where X, Y are N, S, or O) that may be acid/base labile, releasing an aldehyde.

>  <s_lp_Force_Field>  (339) 
OPLS3e

>  <r_lp_Energy>  (339) 
152.646

>  <b_lp_Chiralities_Consistent>  (339) 
1

>  <s_lp_Variant>  (339) 
104:0-1

>  <s_i_glide_gridfile>  (339) 
pfpi4k_grid

>  <i_i_glide_lignum>  (339) 
22

>  <i_i_glide_rotatable_bonds>  (339) 
0

>  <r_i_docking_score>  (339) 
-2.44972

>  <r_i_glide_ligand_efficiency>  (339) 
-0.0644662

>  <r_i_glide_ligand_efficiency_sa>  (339) 
-0.216734

>  <r_i_glide_ligand_efficiency_ln>  (339) 
-0.528231

>  <r_i_glide_gscore>  (339) 
-2.44972

>  <r_i_glide_lipo>  (339) 
-0.478232

>  <r_i_glide_hbond>  (339) 
0

>  <r_i_glide_metal>  (339) 
-0

>  <r_i_glide_rewards>  (339) 
0

>  <r_i_glide_evdw>  (339) 
-23.384

>  <r_i_glide_ecoul>  (339) 
-4.83627

>  <r_i_glide_erotb>  (339) 
0

>  <r_i_glide_esite>  (339) 
-0.0768456

>  <r_i_glide_emodel>  (339) 
-33.4731

>  <r_i_glide_energy>  (339) 
-28.2202

>  <r_i_glide_einternal>  (339) 
0

>  <r_i_glide_intrahb_reward>  (339) 
-0

>  <i_i_glide_confnum>  (339) 
1

>  <i_i_glide_posenum>  (339) 
24

>  <r_i_glide_eff_state_penalty>  (339) 
0

>  <ligand_id>  (339) 
104

>  <original_smiles>  (339) 
C=C1CCC2(OC1)OC1CC3C4CC(C(C)C5(CCC(C2C)C15C)O4)C1(C)CC2NC4OC2C(C)(C)C4C31

>  <smiles>  (339) 
[H]C([H])=C1C([H])([H])OC2(OC3([H])C([H])([H])C4([H])C5([H])OC6(C([H])([H])C([H])([H])C([H])(C2([H])C([H])([H])[H])C36C([H])([H])[H])C([H])(C([H])([H])[H])C([H])(C5([H])[H])C2(C([H])([H])[H])C([H])([H])C3([H])C5([H])OC([H])(C([H])(C42[H])C5(C([H])([H])[H])C([H])([H])[H])[N+]3([H])[H])C([H])([H])C1([H])[H]

$$$$
104:0:2
     RDKit          3D

 88 96  0  0  1  0  0  0  0  0999 V2000
   -0.5983   -8.6039    2.4717 C   0  0  0  0  0  0  0  0  0  0  0  0
   -0.0642   -7.7557    3.3544 C   0  0  0  0  0  0  0  0  0  0  0  0
   -0.2220   -7.9797    4.8461 C   0  0  0  0  0  0  0  0  0  0  0  0
   -0.2863   -6.6533    5.6268 C   0  0  0  0  0  0  0  0  0  0  0  0
    0.8435   -5.6996    5.1875 C   0  0  1  0  0  0  0  0  0  0  0  0
    0.6692   -5.4579    3.8112 O   0  0  0  0  0  0  0  0  0  0  0  0
    0.7832   -6.5670    2.9250 C   0  0  0  0  0  0  0  0  0  0  0  0
    0.6417   -4.4892    5.9023 O   0  0  0  0  0  0  0  0  0  0  0  0
    1.5154   -3.3942    5.5656 C   0  0  1  0  0  0  0  0  0  0  0  0
    1.1132   -2.0688    6.2624 C   0  0  0  0  0  0  0  0  0  0  0  0
    1.8408   -0.7898    5.7521 C   0  0  1  0  0  0  0  0  0  0  0  0
    3.3889   -0.6591    6.0739 C   0  0  2  0  0  0  0  0  0  0  0  0
    4.2210   -0.0764    4.9462 C   0  0  0  0  0  0  0  0  0  0  0  0
    3.8127   -0.8245    3.6923 C   0  0  1  0  0  0  0  0  0  0  0  0
    4.0284   -2.3768    3.9170 C   0  0  1  0  0  0  0  0  0  0  0  0
    5.1553   -2.8530    2.9662 C   0  0  0  0  0  0  0  0  0  0  0  0
    4.0987   -2.9027    5.4341 C   0  0  2  0  0  0  0  0  0  0  0  0
    5.3016   -3.8662    5.6803 C   0  0  0  0  0  0  0  0  0  0  0  0
    4.7858   -5.2986    5.3958 C   0  0  0  0  0  0  0  0  0  0  0  0
    3.2759   -5.1230    5.2059 C   0  0  1  0  0  0  0  0  0  0  0  0
    2.2973   -6.2768    5.4727 C   0  0  1  0  0  0  0  0  0  0  0  0
    2.4198   -7.0441    6.8195 C   0  0  0  0  0  0  0  0  0  0  0  0
    2.9410   -3.8253    5.9395 C   0  0  2  0  0  0  0  0  0  0  0  0
    3.0018   -4.0330    7.4950 C   0  0  0  0  0  0  0  0  0  0  0  0
    4.1326   -1.8363    6.3750 O   0  0  0  0  0  0  0  0  0  0  0  0
    2.4055   -0.3326    3.1704 C   0  0  2  0  0  0  0  0  0  0  0  0
    2.0096   -1.3475    2.0444 C   0  0  0  0  0  0  0  0  0  0  0  0
    2.5786    1.0875    2.4958 C   0  0  0  0  0  0  0  0  0  0  0  0
    1.2969    1.9320    2.2135 C   0  0  1  0  0  0  0  0  0  0  0  0
    0.2214    1.0014    1.9337 N   0  0  0  0  0  0  0  0  0  0  0  0
   -0.6660    1.1328    3.2086 C   0  0  2  0  0  0  0  0  0  0  0  0
   -0.7483    2.5049    3.1589 O   0  0  0  0  0  0  0  0  0  0  0  0
    0.6361    2.8278    3.3314 C   0  0  1  0  0  0  0  0  0  0  0  0
    0.7511    2.2952    4.7665 C   0  0  0  0  0  0  0  0  0  0  0  0
    2.1130    2.6020    5.4286 C   0  0  0  0  0  0  0  0  0  0  0  0
   -0.2765    2.9647    5.7337 C   0  0  0  0  0  0  0  0  0  0  0  0
    0.2802    0.8466    4.4595 C   0  0  2  0  0  0  0  0  0  0  0  0
    1.3179   -0.3440    4.3269 C   0  0  2  0  0  0  0  0  0  0  0  0
   -0.4499   -8.4694    1.4127 H   0  0  0  0  0  0  0  0  0  0  0  0
   -1.1563   -9.4744    2.7901 H   0  0  0  0  0  0  0  0  0  0  0  0
   -1.1242   -8.5707    5.0446 H   0  0  0  0  0  0  0  0  0  0  0  0
    0.6220   -8.5844    5.1652 H   0  0  0  0  0  0  0  0  0  0  0  0
   -1.2391   -6.1563    5.4521 H   0  0  0  0  0  0  0  0  0  0  0  0
   -0.2196   -6.8153    6.7052 H   0  0  0  0  0  0  0  0  0  0  0  0
    1.8283   -6.8596    2.8404 H   0  0  0  0  0  0  0  0  0  0  0  0
    0.4685   -6.2410    1.9289 H   0  0  0  0  0  0  0  0  0  0  0  0
    1.4046   -3.2379    4.4970 H   0  0  0  0  0  0  0  0  0  0  0  0
    0.0420   -1.9250    6.1176 H   0  0  0  0  0  0  0  0  0  0  0  0
    1.2229   -2.1452    7.3419 H   0  0  0  0  0  0  0  0  0  0  0  0
    1.4266   -0.0453    6.4297 H   0  0  0  0  0  0  0  0  0  0  0  0
    3.5089   -0.0287    6.9592 H   0  0  0  0  0  0  0  0  0  0  0  0
    4.1086    0.9926    4.8604 H   0  0  0  0  0  0  0  0  0  0  0  0
    5.2836   -0.2203    5.1515 H   0  0  0  0  0  0  0  0  0  0  0  0
    4.5283   -0.5084    2.9299 H   0  0  0  0  0  0  0  0  0  0  0  0
    3.1971   -2.9073    3.4893 H   0  0  0  0  0  0  0  0  0  0  0  0
    6.1169   -2.4101    3.2212 H   0  0  0  0  0  0  0  0  0  0  0  0
    4.9422   -2.5635    1.9359 H   0  0  0  0  0  0  0  0  0  0  0  0
    5.2562   -3.9390    2.9588 H   0  0  0  0  0  0  0  0  0  0  0  0
    6.2119   -3.6192    5.1388 H   0  0  0  0  0  0  0  0  0  0  0  0
    5.5942   -3.8084    6.7298 H   0  0  0  0  0  0  0  0  0  0  0  0
    5.2392   -5.7342    4.5067 H   0  0  0  0  0  0  0  0  0  0  0  0
    5.0249   -5.9514    6.2334 H   0  0  0  0  0  0  0  0  0  0  0  0
    3.1549   -4.9261    4.1401 H   0  0  0  0  0  0  0  0  0  0  0  0
    2.5269   -7.0377    4.7374 H   0  0  0  0  0  0  0  0  0  0  0  0
    2.0349   -6.5194    7.6922 H   0  0  0  0  0  0  0  0  0  0  0  0
    3.4512   -7.3239    7.0213 H   0  0  0  0  0  0  0  0  0  0  0  0
    1.8704   -7.9806    6.7690 H   0  0  0  0  0  0  0  0  0  0  0  0
    3.7906   -4.7192    7.8045 H   0  0  0  0  0  0  0  0  0  0  0  0
    2.0687   -4.4367    7.8826 H   0  0  0  0  0  0  0  0  0  0  0  0
    3.1533   -3.1157    8.0638 H   0  0  0  0  0  0  0  0  0  0  0  0
    1.3318   -0.9774    1.2860 H   0  0  0  0  0  0  0  0  0  0  0  0
    1.5308   -2.2477    2.4270 H   0  0  0  0  0  0  0  0  0  0  0  0
    2.8823   -1.6587    1.4691 H   0  0  0  0  0  0  0  0  0  0  0  0
    3.3195    1.7098    2.9820 H   0  0  0  0  0  0  0  0  0  0  0  0
    3.0481    0.9075    1.5266 H   0  0  0  0  0  0  0  0  0  0  0  0
    1.4545    2.5455    1.3292 H   0  0  0  0  0  0  0  0  0  0  0  0
   -0.2771    1.3191    1.1075 H   0  0  0  0  0  0  0  0  0  0  0  0
   -1.6165    0.6026    3.1759 H   0  0  0  0  0  0  0  0  0  0  0  0
    0.8556    3.8952    3.2330 H   0  0  0  0  0  0  0  0  0  0  0  0
    2.3731    1.8982    6.2122 H   0  0  0  0  0  0  0  0  0  0  0  0
    2.0942    3.5733    5.9221 H   0  0  0  0  0  0  0  0  0  0  0  0
    2.9288    2.7038    4.7285 H   0  0  0  0  0  0  0  0  0  0  0  0
   -0.1415    2.6001    6.7526 H   0  0  0  0  0  0  0  0  0  0  0  0
   -1.3165    2.7637    5.4674 H   0  0  0  0  0  0  0  0  0  0  0  0
   -0.1574    4.0525    5.7500 H   0  0  0  0  0  0  0  0  0  0  0  0
   -0.4046    0.5527    5.2636 H   0  0  0  0  0  0  0  0  0  0  0  0
    0.6376   -1.1440    4.0403 H   0  0  0  0  0  0  0  0  0  0  0  0
    0.5808    0.0725    1.8049 H   0  0  0  0  0  0  0  0  0  0  0  0
  1  2  2  0
  1 39  1  0
  1 40  1  0
  2  7  1  0
  2  3  1  0
  3  4  1  0
  3 41  1  0
  3 42  1  0
  4  5  1  0
  4 43  1  0
  4 44  1  0
  5 21  1  0
  5  6  1  6
  5  8  1  0
  6  7  1  0
  7 45  1  0
  7 46  1  0
  8  9  1  0
  9 23  1  0
  9 10  1  0
  9 47  1  6
 10 11  1  0
 10 48  1  0
 10 49  1  0
 11 38  1  0
 11 12  1  0
 11 50  1  1
 12 25  1  0
 12 13  1  0
 12 51  1  1
 13 14  1  0
 13 52  1  0
 13 53  1  0
 14 15  1  0
 14 26  1  0
 14 54  1  6
 15 16  1  0
 15 17  1  0
 15 55  1  6
 16 56  1  0
 16 57  1  0
 16 58  1  0
 17 23  1  0
 17 18  1  6
 17 25  1  0
 18 19  1  0
 18 59  1  0
 18 60  1  0
 19 20  1  0
 19 61  1  0
 19 62  1  0
 20 21  1  0
 20 23  1  0
 20 63  1  6
 21 22  1  0
 21 64  1  6
 22 65  1  0
 22 66  1  0
 22 67  1  0
 23 24  1  1
 24 68  1  0
 24 69  1  0
 24 70  1  0
 26 38  1  0
 26 27  1  6
 26 28  1  0
 27 71  1  0
 27 72  1  0
 27 73  1  0
 28 29  1  0
 28 74  1  0
 28 75  1  0
 29 33  1  0
 29 30  1  0
 29 76  1  6
 30 31  1  0
 30 77  1  0
 30 88  1  0
 31 37  1  0
 31 32  1  0
 31 78  1  6
 32 33  1  0
 33 34  1  0
 33 79  1  1
 34 35  1  0
 34 36  1  0
 34 37  1  0
 35 80  1  0
 35 81  1  0
 35 82  1  0
 36 83  1  0
 36 84  1  0
 36 85  1  0
 37 38  1  0
 37 86  1  1
 38 87  1  6
M  CHG  1  30   1
M  END
>  <i_m_ct_stereo_status>  (340) 
1

>  <s_m_source_file>  (340) 
/var/tmp/pbs.5076255.sched01/tmpsouvlwkc/11751gt6aqu.sdf

>  <i_m_source_file_index>  (340) 
22

>  <i_lp_mmshare_version>  (340) 
48012

>  <i_f3d_flags>  (340) 
0

>  <s_epik_input>  (340) 
TzFbQ0gyXUMoPVtDSDJdKVtDSDJdW0NIMl1bQ0BdMTJPW0NAQEhdM1tDQF00KFtDSDNdKVtDQEBdNShbQ0gyXVtDSDJdW0NASF00W0NASF0yW0NIM10pW0NASF0oW0NIM10pW0NASF02W0NAQF03KFtDSDNdKVtDQEBIXShbQ0BASF0oW0NIMl0zKVtDQEBIXShPNSlbQ0gyXTYpW0NAQEhdOFtDQEBIXTlbTkhdW0NASF0oW0NIMl03KVtDQEBIXShPOSlDOChbQ0gzXSlbQ0gzXQ==

>  <s_epik_cmdline>  (340) 
J2VwaWtfcHl0aG9uJywgJy1waHQnLCAnMi4wJywgJy1waCcsICc3LjAnLCAnLXRuJywgJzgnLCAnLW1hJywgJzIwMCcsICctaW1hZScsICc8aW5maWxlLm1hZT4nLCAnLW9tYWUnLCAnPG91dGZpbGUubWFlPic=

>  <r_epik_Ionization_Penalty>  (340) 
0.0251947

>  <r_epik_Ionization_Penalty_Charging>  (340) 
0.0251947

>  <r_epik_Ionization_Penalty_Neutral>  (340) 
4.19767e-11

>  <r_epik_State_Penalty>  (340) 
0.0204962

>  <r_epik_Charging_Adjusted_Penalty>  (340) 
0.0456909

>  <i_epik_Tot_Q>  (340) 
1

>  <i_epik_Tot_abs_Q>  (340) 
1

>  <s_epik_Chemistry_Notes>  (340) 
This compound contains an acetal/aminal-like group ( X-CH(R)-Y where X, Y are N, S, or O) that may be acid/base labile, releasing an aldehyde.

>  <s_lp_Force_Field>  (340) 
OPLS3e

>  <r_lp_Energy>  (340) 
152.646

>  <b_lp_Chiralities_Consistent>  (340) 
1

>  <s_lp_Variant>  (340) 
104:0-1

>  <s_i_glide_gridfile>  (340) 
pfpi4k_grid

>  <i_i_glide_lignum>  (340) 
22

>  <i_i_glide_rotatable_bonds>  (340) 
0

>  <r_i_docking_score>  (340) 
-2.34255

>  <r_i_glide_ligand_efficiency>  (340) 
-0.061646

>  <r_i_glide_ligand_efficiency_sa>  (340) 
-0.207252

>  <r_i_glide_ligand_efficiency_ln>  (340) 
-0.505123

>  <r_i_glide_gscore>  (340) 
-2.34255

>  <r_i_glide_lipo>  (340) 
-0.0876467

>  <r_i_glide_hbond>  (340) 
-0.0494685

>  <r_i_glide_metal>  (340) 
-0

>  <r_i_glide_rewards>  (340) 
0

>  <r_i_glide_evdw>  (340) 
-26.6847

>  <r_i_glide_ecoul>  (340) 
-5.0104

>  <r_i_glide_erotb>  (340) 
0

>  <r_i_glide_esite>  (340) 
-0.11964

>  <r_i_glide_emodel>  (340) 
-37.2754

>  <r_i_glide_energy>  (340) 
-31.6951

>  <r_i_glide_einternal>  (340) 
0

>  <r_i_glide_intrahb_reward>  (340) 
-0

>  <i_i_glide_confnum>  (340) 
2

>  <i_i_glide_posenum>  (340) 
10

>  <r_i_glide_eff_state_penalty>  (340) 
0

>  <ligand_id>  (340) 
104

>  <original_smiles>  (340) 
C=C1CCC2(OC1)OC1CC3C4CC(C(C)C5(CCC(C2C)C15C)O4)C1(C)CC2NC4OC2C(C)(C)C4C31

>  <smiles>  (340) 
[H]C([H])=C1C([H])([H])OC2(OC3([H])C([H])([H])C4([H])C5([H])OC6(C([H])([H])C([H])([H])C([H])(C2([H])C([H])([H])[H])C36C([H])([H])[H])C([H])(C([H])([H])[H])C([H])(C5([H])[H])C2(C([H])([H])[H])C([H])([H])C3([H])C5([H])OC([H])(C([H])(C42[H])C5(C([H])([H])[H])C([H])([H])[H])[N+]3([H])[H])C([H])([H])C1([H])[H]

$$$$
104:1:0
     RDKit          3D

 87 95  0  0  1  0  0  0  0  0999 V2000
    3.9649    0.7826    4.3579 C   0  0  0  0  0  0  0  0  0  0  0  0
    4.0316   -0.2808    3.5384 C   0  0  0  0  0  0  0  0  0  0  0  0
    3.6172   -0.1882    2.0828 C   0  0  0  0  0  0  0  0  0  0  0  0
    3.0255   -1.5051    1.5520 C   0  0  0  0  0  0  0  0  0  0  0  0
    3.9273   -2.7000    1.9372 C   0  0  1  0  0  0  0  0  0  0  0  0
    3.9948   -2.7292    3.3393 O   0  0  0  0  0  0  0  0  0  0  0  0
    4.5796   -1.6185    4.0083 C   0  0  0  0  0  0  0  0  0  0  0  0
    3.2596   -3.8684    1.5010 O   0  0  0  0  0  0  0  0  0  0  0  0
    3.8492   -5.1303    1.8849 C   0  0  1  0  0  0  0  0  0  0  0  0
    2.9533   -6.3457    1.5317 C   0  0  0  0  0  0  0  0  0  0  0  0
    3.4031   -7.7182    2.1172 C   0  0  1  0  0  0  0  0  0  0  0  0
    4.7307   -8.3506    1.5403 C   0  0  2  0  0  0  0  0  0  0  0  0
    5.6179   -9.0176    2.5753 C   0  0  0  0  0  0  0  0  0  0  0  0
    5.7394   -8.0386    3.7278 C   0  0  1  0  0  0  0  0  0  0  0  0
    6.3156   -6.6672    3.1862 C   0  0  1  0  0  0  0  0  0  0  0  0
    7.7348   -6.4649    3.7782 C   0  0  0  0  0  0  0  0  0  0  0  0
    6.1556   -6.3683    1.6168 C   0  0  2  0  0  0  0  0  0  0  0  0
    7.4864   -5.8655    0.9810 C   0  0  0  0  0  0  0  0  0  0  0  0
    7.4638   -4.3174    1.0626 C   0  0  0  0  0  0  0  0  0  0  0  0
    6.0538   -3.9913    1.5904 C   0  0  1  0  0  0  0  0  0  0  0  0
    5.3925   -2.6272    1.3184 C   0  0  1  0  0  0  0  0  0  0  0  0
    5.4451   -2.0754   -0.1314 C   0  0  0  0  0  0  0  0  0  0  0  0
    5.2152   -5.1971    1.1846 C   0  0  2  0  0  0  0  0  0  0  0  0
    4.9582   -5.1930   -0.3583 C   0  0  0  0  0  0  0  0  0  0  0  0
    5.6615   -7.4942    0.8973 O   0  0  0  0  0  0  0  0  0  0  0  0
    4.4185   -8.0064    4.5907 C   0  0  2  0  0  0  0  0  0  0  0  0
    4.5856   -6.7991    5.5783 C   0  0  0  0  0  0  0  0  0  0  0  0
    4.3481   -9.3225    5.4734 C   0  0  0  0  0  0  0  0  0  0  0  0
    2.9869   -9.6993    6.1400 C   0  0  1  0  0  0  0  0  0  0  0  0
    2.2533   -8.4703    6.3906 N   0  0  0  0  0  0  0  0  0  0  0  0
    1.2005   -8.4957    5.3996 C   0  0  2  0  0  0  0  0  0  0  0  0
    0.7336   -9.7558    5.7007 O   0  0  0  0  0  0  0  0  0  0  0  0
    1.8962  -10.4987    5.3350 C   0  0  1  0  0  0  0  0  0  0  0  0
    1.7973  -10.1872    3.8312 C   0  0  0  0  0  0  0  0  0  0  0  0
    2.8365  -10.9667    3.0025 C   0  0  0  0  0  0  0  0  0  0  0  0
    0.4429  -10.6272    3.2151 C   0  0  0  0  0  0  0  0  0  0  0  0
    1.7997   -8.6349    3.9429 C   0  0  2  0  0  0  0  0  0  0  0  0
    3.1328   -7.8102    3.6684 C   0  0  2  0  0  0  0  0  0  0  0  0
    4.2941    0.7278    5.3821 H   0  0  0  0  0  0  0  0  0  0  0  0
    3.6159    1.7325    3.9898 H   0  0  0  0  0  0  0  0  0  0  0  0
    2.8995    0.6222    1.9430 H   0  0  0  0  0  0  0  0  0  0  0  0
    4.5112    0.0899    1.5216 H   0  0  0  0  0  0  0  0  0  0  0  0
    2.0296   -1.6711    1.9639 H   0  0  0  0  0  0  0  0  0  0  0  0
    2.8831   -1.4774    0.4684 H   0  0  0  0  0  0  0  0  0  0  0  0
    5.6596   -1.6512    3.8660 H   0  0  0  0  0  0  0  0  0  0  0  0
    4.3944   -1.7303    5.0793 H   0  0  0  0  0  0  0  0  0  0  0  0
    3.9487   -5.1128    2.9660 H   0  0  0  0  0  0  0  0  0  0  0  0
    1.9481   -6.1409    1.9047 H   0  0  0  0  0  0  0  0  0  0  0  0
    2.8206   -6.4368    0.4577 H   0  0  0  0  0  0  0  0  0  0  0  0
    2.6552   -8.3774    1.6798 H   0  0  0  0  0  0  0  0  0  0  0  0
    4.4662   -9.0926    0.7839 H   0  0  0  0  0  0  0  0  0  0  0  0
    5.2476   -9.9829    2.8773 H   0  0  0  0  0  0  0  0  0  0  0  0
    6.6006   -9.2290    2.1475 H   0  0  0  0  0  0  0  0  0  0  0  0
    6.5003   -8.4628    4.3870 H   0  0  0  0  0  0  0  0  0  0  0  0
    5.7904   -5.8601    3.6691 H   0  0  0  0  0  0  0  0  0  0  0  0
    8.4515   -7.2012    3.4109 H   0  0  0  0  0  0  0  0  0  0  0  0
    7.7146   -6.5543    4.8636 H   0  0  0  0  0  0  0  0  0  0  0  0
    8.1281   -5.4708    3.5714 H   0  0  0  0  0  0  0  0  0  0  0  0
    8.4010   -6.3045    1.3760 H   0  0  0  0  0  0  0  0  0  0  0  0
    7.5074   -6.1551   -0.0629 H   0  0  0  0  0  0  0  0  0  0  0  0
    8.2392   -3.9339    1.7217 H   0  0  0  0  0  0  0  0  0  0  0  0
    7.6495   -3.8873    0.0824 H   0  0  0  0  0  0  0  0  0  0  0  0
    6.1409   -4.0201    2.6740 H   0  0  0  0  0  0  0  0  0  0  0  0
    5.9761   -1.9063    1.8832 H   0  0  0  0  0  0  0  0  0  0  0  0
    4.8006   -2.5756   -0.8511 H   0  0  0  0  0  0  0  0  0  0  0  0
    6.4594   -2.1110   -0.5240 H   0  0  0  0  0  0  0  0  0  0  0  0
    5.1606   -1.0255   -0.1507 H   0  0  0  0  0  0  0  0  0  0  0  0
    5.8137   -4.8370   -0.9299 H   0  0  0  0  0  0  0  0  0  0  0  0
    4.1214   -4.5559   -0.6333 H   0  0  0  0  0  0  0  0  0  0  0  0
    4.6935   -6.1675   -0.7666 H   0  0  0  0  0  0  0  0  0  0  0  0
    4.0039   -6.8537    6.4919 H   0  0  0  0  0  0  0  0  0  0  0  0
    4.3078   -5.8462    5.1338 H   0  0  0  0  0  0  0  0  0  0  0  0
    5.6162   -6.7080    5.9203 H   0  0  0  0  0  0  0  0  0  0  0  0
    4.7777  -10.1893    4.9762 H   0  0  0  0  0  0  0  0  0  0  0  0
    5.0610   -9.1740    6.2886 H   0  0  0  0  0  0  0  0  0  0  0  0
    3.1648  -10.2115    7.0833 H   0  0  0  0  0  0  0  0  0  0  0  0
    1.9529   -8.3068    7.3320 H   0  0  0  0  0  0  0  0  0  0  0  0
    0.5449   -7.6620    5.6229 H   0  0  0  0  0  0  0  0  0  0  0  0
    1.8467  -11.5635    5.5618 H   0  0  0  0  0  0  0  0  0  0  0  0
    3.0936  -10.4913    2.0634 H   0  0  0  0  0  0  0  0  0  0  0  0
    2.4473  -11.9441    2.7264 H   0  0  0  0  0  0  0  0  0  0  0  0
    3.7274  -11.2249    3.5516 H   0  0  0  0  0  0  0  0  0  0  0  0
    0.4254  -10.4532    2.1373 H   0  0  0  0  0  0  0  0  0  0  0  0
   -0.4101  -10.0889    3.6313 H   0  0  0  0  0  0  0  0  0  0  0  0
    0.2628  -11.6866    3.3924 H   0  0  0  0  0  0  0  0  0  0  0  0
    1.0355   -8.2384    3.2601 H   0  0  0  0  0  0  0  0  0  0  0  0
    2.7831   -6.8167    3.9398 H   0  0  0  0  0  0  0  0  0  0  0  0
  1  2  2  0
  1 39  1  0
  1 40  1  0
  2  7  1  0
  2  3  1  0
  3  4  1  0
  3 41  1  0
  3 42  1  0
  4  5  1  0
  4 43  1  0
  4 44  1  0
  5 21  1  0
  5  6  1  1
  5  8  1  0
  6  7  1  0
  7 45  1  0
  7 46  1  0
  8  9  1  0
  9 23  1  0
  9 10  1  0
  9 47  1  1
 10 11  1  0
 10 48  1  0
 10 49  1  0
 11 38  1  0
 11 12  1  0
 11 50  1  6
 12 25  1  0
 12 13  1  0
 12 51  1  6
 13 14  1  0
 13 52  1  0
 13 53  1  0
 14 15  1  0
 14 26  1  0
 14 54  1  1
 15 16  1  0
 15 17  1  0
 15 55  1  1
 16 56  1  0
 16 57  1  0
 16 58  1  0
 17 23  1  0
 17 18  1  6
 17 25  1  0
 18 19  1  0
 18 59  1  0
 18 60  1  0
 19 20  1  0
 19 61  1  0
 19 62  1  0
 20 21  1  0
 20 23  1  0
 20 63  1  1
 21 22  1  0
 21 64  1  1
 22 65  1  0
 22 66  1  0
 22 67  1  0
 23 24  1  6
 24 68  1  0
 24 69  1  0
 24 70  1  0
 26 38  1  0
 26 27  1  1
 26 28  1  0
 27 71  1  0
 27 72  1  0
 27 73  1  0
 28 29  1  0
 28 74  1  0
 28 75  1  0
 29 33  1  0
 29 30  1  0
 29 76  1  1
 30 31  1  0
 30 77  1  0
 31 37  1  0
 31 32  1  0
 31 78  1  6
 32 33  1  0
 33 34  1  0
 33 79  1  6
 34 35  1  0
 34 36  1  0
 34 37  1  0
 35 80  1  0
 35 81  1  0
 35 82  1  0
 36 83  1  0
 36 84  1  0
 36 85  1  0
 37 38  1  0
 37 86  1  6
 38 87  1  1
M  END
>  <i_m_ct_stereo_status>  (341) 
1

>  <s_m_source_file>  (341) 
/var/tmp/pbs.5076255.sched01/tmpsouvlwkc/11751gt6aqu.sdf

>  <i_m_source_file_index>  (341) 
23

>  <i_lp_mmshare_version>  (341) 
48012

>  <i_f3d_flags>  (341) 
0

>  <s_epik_input>  (341) 
TzFbQ0gyXUMoPVtDSDJdKVtDSDJdW0NIMl1bQ0BdMTJPW0NAQEhdM1tDQF00KFtDSDNdKVtDQEBdNShbQ0gyXVtDSDJdW0NASF00W0NASF0yW0NIM10pW0NASF0oW0NIM10pW0NASF02W0NAQF03KFtDSDNdKVtDQEBIXShbQ0BASF0oW0NIMl0zKVtDQEBIXShPNSlbQ0gyXTYpW0NAQEhdOFtDQEBIXTlbTkhdW0NASF0oW0NIMl03KVtDQEBIXShPOSlDOChbQ0gzXSlbQ0gzXQ==

>  <s_epik_cmdline>  (341) 
J2VwaWtfcHl0aG9uJywgJy1waHQnLCAnMi4wJywgJy1waCcsICc3LjAnLCAnLXRuJywgJzgnLCAnLW1hJywgJzIwMCcsICctaW1hZScsICc8aW5maWxlLm1hZT4nLCAnLW9tYWUnLCAnPG91dGZpbGUubWFlPic=

>  <r_epik_Ionization_Penalty>  (341) 
1.88344

>  <r_epik_Ionization_Penalty_Charging>  (341) 
0

>  <r_epik_Ionization_Penalty_Neutral>  (341) 
1.88344

>  <r_epik_State_Penalty>  (341) 
2.00339

>  <r_epik_Charging_Adjusted_Penalty>  (341) 
2.00339

>  <i_epik_Tot_Q>  (341) 
0

>  <i_epik_Tot_abs_Q>  (341) 
0

>  <s_epik_Chemistry_Notes>  (341) 
This compound contains an acetal/aminal-like group ( X-CH(R)-Y where X, Y are N, S, or O) that may be acid/base labile, releasing an aldehyde.

>  <s_lp_Force_Field>  (341) 
OPLS3e

>  <r_lp_Energy>  (341) 
155.156

>  <b_lp_Chiralities_Consistent>  (341) 
1

>  <s_lp_Variant>  (341) 
104:0-2

>  <s_i_glide_gridfile>  (341) 
pfpi4k_grid

>  <i_i_glide_lignum>  (341) 
23

>  <i_i_glide_rotatable_bonds>  (341) 
0

>  <r_i_docking_score>  (341) 
-2.2923

>  <r_i_glide_ligand_efficiency>  (341) 
-0.0603238

>  <r_i_glide_ligand_efficiency_sa>  (341) 
-0.202807

>  <r_i_glide_ligand_efficiency_ln>  (341) 
-0.494288

>  <r_i_glide_gscore>  (341) 
-2.2923

>  <r_i_glide_lipo>  (341) 
-0.598269

>  <r_i_glide_hbond>  (341) 
0

>  <r_i_glide_metal>  (341) 
-0

>  <r_i_glide_rewards>  (341) 
0

>  <r_i_glide_evdw>  (341) 
-32.3064

>  <r_i_glide_ecoul>  (341) 
-0.387442

>  <r_i_glide_erotb>  (341) 
0

>  <r_i_glide_esite>  (341) 
-0.0205985

>  <r_i_glide_emodel>  (341) 
-36.8865

>  <r_i_glide_energy>  (341) 
-32.6938

>  <r_i_glide_einternal>  (341) 
0

>  <r_i_glide_intrahb_reward>  (341) 
-0

>  <i_i_glide_confnum>  (341) 
1

>  <i_i_glide_posenum>  (341) 
1

>  <r_i_glide_eff_state_penalty>  (341) 
0

>  <ligand_id>  (341) 
104

>  <original_smiles>  (341) 
C=C1CCC2(OC1)OC1CC3C4CC(C(C)C5(CCC(C2C)C15C)O4)C1(C)CC2NC4OC2C(C)(C)C4C31

>  <smiles>  (341) 
[H]C([H])=C1C([H])([H])OC2(OC3([H])C([H])([H])C4([H])C5([H])OC6(C([H])([H])C([H])([H])C([H])(C2([H])C([H])([H])[H])C36C([H])([H])[H])C([H])(C([H])([H])[H])C([H])(C5([H])[H])C2(C([H])([H])[H])C([H])([H])C3([H])N([H])C5([H])OC3([H])C(C([H])([H])[H])(C([H])([H])[H])C5([H])C42[H])C([H])([H])C1([H])[H]

$$$$
104:1:1
     RDKit          3D

 87 95  0  0  1  0  0  0  0  0999 V2000
   -1.7900    0.5477    4.4989 C   0  0  0  0  0  0  0  0  0  0  0  0
   -0.6496   -0.1146    4.3529 C   0  0  0  0  0  0  0  0  0  0  0  0
    0.3817    0.3231    3.3321 C   0  0  0  0  0  0  0  0  0  0  0  0
    1.1990   -0.8524    2.7699 C   0  0  0  0  0  0  0  0  0  0  0  0
    1.6751   -1.7638    3.9188 C   0  0  1  0  0  0  0  0  0  0  0  0
    0.5200   -2.2549    4.5679 O   0  0  0  0  0  0  0  0  0  0  0  0
   -0.3056   -1.3082    5.2302 C   0  0  0  0  0  0  0  0  0  0  0  0
    2.3221   -2.8734    3.3047 O   0  0  0  0  0  0  0  0  0  0  0  0
    2.7388   -3.9383    4.1822 C   0  0  1  0  0  0  0  0  0  0  0  0
    3.2604   -5.1742    3.4090 C   0  0  0  0  0  0  0  0  0  0  0  0
    3.5091   -6.4521    4.2662 C   0  0  1  0  0  0  0  0  0  0  0  0
    4.7055   -6.4113    5.2985 C   0  0  2  0  0  0  0  0  0  0  0  0
    4.4160   -7.0851    6.6264 C   0  0  0  0  0  0  0  0  0  0  0  0
    3.0671   -6.5664    7.0808 C   0  0  1  0  0  0  0  0  0  0  0  0
    3.1267   -4.9821    7.1627 C   0  0  1  0  0  0  0  0  0  0  0  0
    3.0015   -4.5684    8.6522 C   0  0  0  0  0  0  0  0  0  0  0  0
    4.2629   -4.2388    6.3068 C   0  0  2  0  0  0  0  0  0  0  0  0
    5.0209   -3.1582    7.1398 C   0  0  0  0  0  0  0  0  0  0  0  0
    4.2468   -1.8293    6.9449 C   0  0  0  0  0  0  0  0  0  0  0  0
    3.2164   -2.1526    5.8592 C   0  0  1  0  0  0  0  0  0  0  0  0
    2.6375   -1.0551    4.9447 C   0  0  1  0  0  0  0  0  0  0  0  0
    3.6341   -0.0496    4.3047 C   0  0  0  0  0  0  0  0  0  0  0  0
    3.8040   -3.3440    5.1093 C   0  0  2  0  0  0  0  0  0  0  0  0
    5.0150   -2.8949    4.2192 C   0  0  0  0  0  0  0  0  0  0  0  0
    5.1968   -5.1480    5.7350 O   0  0  0  0  0  0  0  0  0  0  0  0
    1.8909   -7.2323    6.2643 C   0  0  2  0  0  0  0  0  0  0  0  0
    0.6030   -6.4319    6.6552 C   0  0  0  0  0  0  0  0  0  0  0  0
    1.6897   -8.7197    6.7712 C   0  0  0  0  0  0  0  0  0  0  0  0
    0.8376   -9.7028    5.8974 C   0  0  1  0  0  0  0  0  0  0  0  0
   -0.1551   -8.9304    5.1609 N   0  0  0  0  0  0  0  0  0  0  0  0
    0.3544   -8.9391    3.8163 C   0  0  2  0  0  0  0  0  0  0  0  0
    0.4975  -10.3023    3.6995 O   0  0  0  0  0  0  0  0  0  0  0  0
    1.5027  -10.4845    4.7025 C   0  0  1  0  0  0  0  0  0  0  0  0
    2.5972   -9.7279    3.9224 C   0  0  0  0  0  0  0  0  0  0  0  0
    3.9800   -9.8210    4.6045 C   0  0  0  0  0  0  0  0  0  0  0  0
    2.8598  -10.3175    2.5028 C   0  0  0  0  0  0  0  0  0  0  0  0
    1.8381   -8.3810    3.7438 C   0  0  2  0  0  0  0  0  0  0  0  0
    2.1539   -7.1447    4.6986 C   0  0  2  0  0  0  0  0  0  0  0  0
   -2.5274    0.2392    5.2159 H   0  0  0  0  0  0  0  0  0  0  0  0
   -2.0269    1.3923    3.8752 H   0  0  0  0  0  0  0  0  0  0  0  0
   -0.1007    0.8699    2.5189 H   0  0  0  0  0  0  0  0  0  0  0  0
    1.0109    1.0484    3.8506 H   0  0  0  0  0  0  0  0  0  0  0  0
    0.6144   -1.4409    2.0680 H   0  0  0  0  0  0  0  0  0  0  0  0
    2.0538   -0.4987    2.1885 H   0  0  0  0  0  0  0  0  0  0  0  0
    0.1796   -0.9662    6.1430 H   0  0  0  0  0  0  0  0  0  0  0  0
   -1.2261   -1.8103    5.5378 H   0  0  0  0  0  0  0  0  0  0  0  0
    1.8545   -4.2575    4.7313 H   0  0  0  0  0  0  0  0  0  0  0  0
    2.5292   -5.4260    2.6423 H   0  0  0  0  0  0  0  0  0  0  0  0
    4.1606   -4.9366    2.8405 H   0  0  0  0  0  0  0  0  0  0  0  0
    3.9111   -7.1191    3.5102 H   0  0  0  0  0  0  0  0  0  0  0  0
    5.5729   -6.8984    4.8482 H   0  0  0  0  0  0  0  0  0  0  0  0
    4.4509   -8.1615    6.5632 H   0  0  0  0  0  0  0  0  0  0  0  0
    5.1887   -6.8321    7.3541 H   0  0  0  0  0  0  0  0  0  0  0  0
    2.9482   -6.9295    8.1001 H   0  0  0  0  0  0  0  0  0  0  0  0
    2.2009   -4.5891    6.7810 H   0  0  0  0  0  0  0  0  0  0  0  0
    3.8612   -4.8794    9.2485 H   0  0  0  0  0  0  0  0  0  0  0  0
    2.1225   -5.0213    9.1064 H   0  0  0  0  0  0  0  0  0  0  0  0
    2.8699   -3.4921    8.7698 H   0  0  0  0  0  0  0  0  0  0  0  0
    5.1879   -3.4062    8.1858 H   0  0  0  0  0  0  0  0  0  0  0  0
    6.0245   -3.0324    6.7354 H   0  0  0  0  0  0  0  0  0  0  0  0
    3.7534   -1.4971    7.8586 H   0  0  0  0  0  0  0  0  0  0  0  0
    4.9350   -1.0430    6.6431 H   0  0  0  0  0  0  0  0  0  0  0  0
    2.3445   -2.5150    6.3989 H   0  0  0  0  0  0  0  0  0  0  0  0
    2.0449   -0.4141    5.6067 H   0  0  0  0  0  0  0  0  0  0  0  0
    4.2379   -0.4447    3.4896 H   0  0  0  0  0  0  0  0  0  0  0  0
    4.3017    0.3730    5.0496 H   0  0  0  0  0  0  0  0  0  0  0  0
    3.1049    0.8061    3.8890 H   0  0  0  0  0  0  0  0  0  0  0  0
    5.6274   -2.1294    4.6929 H   0  0  0  0  0  0  0  0  0  0  0  0
    4.6925   -2.4843    3.2658 H   0  0  0  0  0  0  0  0  0  0  0  0
    5.6896   -3.7057    3.9511 H   0  0  0  0  0  0  0  0  0  0  0  0
   -0.3282   -6.9675    6.5213 H   0  0  0  0  0  0  0  0  0  0  0  0
    0.4745   -5.5187    6.0800 H   0  0  0  0  0  0  0  0  0  0  0  0
    0.6105   -6.1499    7.7093 H   0  0  0  0  0  0  0  0  0  0  0  0
    2.6168   -9.1983    7.0618 H   0  0  0  0  0  0  0  0  0  0  0  0
    1.1783   -8.6478    7.7344 H   0  0  0  0  0  0  0  0  0  0  0  0
    0.3226  -10.4154    6.5357 H   0  0  0  0  0  0  0  0  0  0  0  0
   -1.1031   -9.2796    5.2572 H   0  0  0  0  0  0  0  0  0  0  0  0
   -0.4114   -8.4754    3.1774 H   0  0  0  0  0  0  0  0  0  0  0  0
    1.7398  -11.5301    4.9105 H   0  0  0  0  0  0  0  0  0  0  0  0
    4.6415   -8.9954    4.3669 H   0  0  0  0  0  0  0  0  0  0  0  0
    4.5086  -10.7134    4.2734 H   0  0  0  0  0  0  0  0  0  0  0  0
    3.9234   -9.9641    5.6715 H   0  0  0  0  0  0  0  0  0  0  0  0
    3.6858   -9.8063    2.0059 H   0  0  0  0  0  0  0  0  0  0  0  0
    1.9985  -10.2431    1.8393 H   0  0  0  0  0  0  0  0  0  0  0  0
    3.1130  -11.3773    2.5584 H   0  0  0  0  0  0  0  0  0  0  0  0
    1.9858   -8.0329    2.7223 H   0  0  0  0  0  0  0  0  0  0  0  0
    1.3876   -6.4576    4.3542 H   0  0  0  0  0  0  0  0  0  0  0  0
  1  2  2  0
  1 39  1  0
  1 40  1  0
  2  7  1  0
  2  3  1  0
  3  4  1  0
  3 41  1  0
  3 42  1  0
  4  5  1  0
  4 43  1  0
  4 44  1  0
  5 21  1  0
  5  6  1  1
  5  8  1  0
  6  7  1  0
  7 45  1  0
  7 46  1  0
  8  9  1  0
  9 23  1  0
  9 10  1  0
  9 47  1  1
 10 11  1  0
 10 48  1  0
 10 49  1  0
 11 38  1  0
 11 12  1  0
 11 50  1  6
 12 25  1  0
 12 13  1  0
 12 51  1  6
 13 14  1  0
 13 52  1  0
 13 53  1  0
 14 15  1  0
 14 26  1  0
 14 54  1  1
 15 16  1  0
 15 17  1  0
 15 55  1  6
 16 56  1  0
 16 57  1  0
 16 58  1  0
 17 23  1  0
 17 18  1  1
 17 25  1  0
 18 19  1  0
 18 59  1  0
 18 60  1  0
 19 20  1  0
 19 61  1  0
 19 62  1  0
 20 21  1  0
 20 23  1  0
 20 63  1  1
 21 22  1  0
 21 64  1  1
 22 65  1  0
 22 66  1  0
 22 67  1  0
 23 24  1  6
 24 68  1  0
 24 69  1  0
 24 70  1  0
 26 38  1  0
 26 27  1  6
 26 28  1  0
 27 71  1  0
 27 72  1  0
 27 73  1  0
 28 29  1  0
 28 74  1  0
 28 75  1  0
 29 33  1  0
 29 30  1  0
 29 76  1  1
 30 31  1  0
 30 77  1  0
 31 37  1  0
 31 32  1  0
 31 78  1  6
 32 33  1  0
 33 34  1  0
 33 79  1  1
 34 35  1  0
 34 36  1  0
 34 37  1  0
 35 80  1  0
 35 81  1  0
 35 82  1  0
 36 83  1  0
 36 84  1  0
 36 85  1  0
 37 38  1  0
 37 86  1  6
 38 87  1  6
M  END
>  <i_m_ct_stereo_status>  (342) 
1

>  <s_m_source_file>  (342) 
/var/tmp/pbs.5076255.sched01/tmpsouvlwkc/11751gt6aqu.sdf

>  <i_m_source_file_index>  (342) 
23

>  <i_lp_mmshare_version>  (342) 
48012

>  <i_f3d_flags>  (342) 
0

>  <s_epik_input>  (342) 
TzFbQ0gyXUMoPVtDSDJdKVtDSDJdW0NIMl1bQ0BdMTJPW0NAQEhdM1tDQF00KFtDSDNdKVtDQEBdNShbQ0gyXVtDSDJdW0NASF00W0NASF0yW0NIM10pW0NASF0oW0NIM10pW0NASF02W0NAQF03KFtDSDNdKVtDQEBIXShbQ0BASF0oW0NIMl0zKVtDQEBIXShPNSlbQ0gyXTYpW0NAQEhdOFtDQEBIXTlbTkhdW0NASF0oW0NIMl03KVtDQEBIXShPOSlDOChbQ0gzXSlbQ0gzXQ==

>  <s_epik_cmdline>  (342) 
J2VwaWtfcHl0aG9uJywgJy1waHQnLCAnMi4wJywgJy1waCcsICc3LjAnLCAnLXRuJywgJzgnLCAnLW1hJywgJzIwMCcsICctaW1hZScsICc8aW5maWxlLm1hZT4nLCAnLW9tYWUnLCAnPG91dGZpbGUubWFlPic=

>  <r_epik_Ionization_Penalty>  (342) 
1.88344

>  <r_epik_Ionization_Penalty_Charging>  (342) 
0

>  <r_epik_Ionization_Penalty_Neutral>  (342) 
1.88344

>  <r_epik_State_Penalty>  (342) 
2.00339

>  <r_epik_Charging_Adjusted_Penalty>  (342) 
2.00339

>  <i_epik_Tot_Q>  (342) 
0

>  <i_epik_Tot_abs_Q>  (342) 
0

>  <s_epik_Chemistry_Notes>  (342) 
This compound contains an acetal/aminal-like group ( X-CH(R)-Y where X, Y are N, S, or O) that may be acid/base labile, releasing an aldehyde.

>  <s_lp_Force_Field>  (342) 
OPLS3e

>  <r_lp_Energy>  (342) 
155.156

>  <b_lp_Chiralities_Consistent>  (342) 
1

>  <s_lp_Variant>  (342) 
104:0-2

>  <s_i_glide_gridfile>  (342) 
pfpi4k_grid

>  <i_i_glide_lignum>  (342) 
23

>  <i_i_glide_rotatable_bonds>  (342) 
0

>  <r_i_docking_score>  (342) 
-1.53215

>  <r_i_glide_ligand_efficiency>  (342) 
-0.0403198

>  <r_i_glide_ligand_efficiency_sa>  (342) 
-0.135554

>  <r_i_glide_ligand_efficiency_ln>  (342) 
-0.330377

>  <r_i_glide_gscore>  (342) 
-1.53215

>  <r_i_glide_lipo>  (342) 
-0.0415951

>  <r_i_glide_hbond>  (342) 
-0.115982

>  <r_i_glide_metal>  (342) 
-0

>  <r_i_glide_rewards>  (342) 
-0.00366382

>  <r_i_glide_evdw>  (342) 
-25.4595

>  <r_i_glide_ecoul>  (342) 
-0.422858

>  <r_i_glide_erotb>  (342) 
0

>  <r_i_glide_esite>  (342) 
-0.0345083

>  <r_i_glide_emodel>  (342) 
-28.2549

>  <r_i_glide_energy>  (342) 
-25.8824

>  <r_i_glide_einternal>  (342) 
0

>  <r_i_glide_intrahb_reward>  (342) 
-0

>  <i_i_glide_confnum>  (342) 
1

>  <i_i_glide_posenum>  (342) 
18

>  <r_i_glide_eff_state_penalty>  (342) 
0

>  <ligand_id>  (342) 
104

>  <original_smiles>  (342) 
C=C1CCC2(OC1)OC1CC3C4CC(C(C)C5(CCC(C2C)C15C)O4)C1(C)CC2NC4OC2C(C)(C)C4C31

>  <smiles>  (342) 
[H]C([H])=C1C([H])([H])OC2(OC3([H])C([H])([H])C4([H])C5([H])OC6(C([H])([H])C([H])([H])C([H])(C2([H])C([H])([H])[H])C36C([H])([H])[H])C([H])(C([H])([H])[H])C([H])(C5([H])[H])C2(C([H])([H])[H])C([H])([H])C3([H])N([H])C5([H])OC3([H])C(C([H])([H])[H])(C([H])([H])[H])C5([H])C42[H])C([H])([H])C1([H])[H]

$$$$
104:1:2
     RDKit          3D

 87 95  0  0  1  0  0  0  0  0999 V2000
   -1.4119    1.7560    3.1631 C   0  0  0  0  0  0  0  0  0  0  0  0
   -0.3221    0.9838    3.2621 C   0  0  0  0  0  0  0  0  0  0  0  0
    0.9372    1.3018    2.4878 C   0  0  0  0  0  0  0  0  0  0  0  0
    1.7189    0.0344    2.0995 C   0  0  0  0  0  0  0  0  0  0  0  0
    1.8772   -0.9010    3.3164 C   0  0  1  0  0  0  0  0  0  0  0  0
    0.5806   -1.2555    3.7326 O   0  0  0  0  0  0  0  0  0  0  0  0
   -0.2710   -0.2154    4.1996 C   0  0  0  0  0  0  0  0  0  0  0  0
    2.5209   -2.0744    2.8389 O   0  0  0  0  0  0  0  0  0  0  0  0
    2.6483   -3.1669    3.7727 C   0  0  1  0  0  0  0  0  0  0  0  0
    3.1791   -4.4635    3.1132 C   0  0  0  0  0  0  0  0  0  0  0  0
    3.1239   -5.7455    3.9985 C   0  0  1  0  0  0  0  0  0  0  0  0
    4.0920   -5.8063    5.2475 C   0  0  2  0  0  0  0  0  0  0  0  0
    3.4797   -6.4229    6.4913 C   0  0  0  0  0  0  0  0  0  0  0  0
    2.1276   -5.7618    6.6735 C   0  0  1  0  0  0  0  0  0  0  0  0
    2.3305   -4.1916    6.7670 C   0  0  1  0  0  0  0  0  0  0  0  0
    1.9596   -3.7402    8.2032 C   0  0  0  0  0  0  0  0  0  0  0  0
    3.6851   -3.5816    6.1539 C   0  0  2  0  0  0  0  0  0  0  0  0
    4.3703   -2.5698    7.1222 C   0  0  0  0  0  0  0  0  0  0  0  0
    3.7908   -1.1719    6.7842 C   0  0  0  0  0  0  0  0  0  0  0  0
    2.9645   -1.4104    5.5125 C   0  0  1  0  0  0  0  0  0  0  0  0
    2.6896   -0.2716    4.5120 C   0  0  1  0  0  0  0  0  0  0  0  0
    3.8878    0.6114    4.0774 C   0  0  0  0  0  0  0  0  0  0  0  0
    3.5699   -2.6664    4.8934 C   0  0  2  0  0  0  0  0  0  0  0  0
    4.9757   -2.3612    4.2619 C   0  0  0  0  0  0  0  0  0  0  0  0
    4.6128   -4.5930    5.7758 O   0  0  0  0  0  0  0  0  0  0  0  0
    1.0753   -6.3225    5.6402 C   0  0  2  0  0  0  0  0  0  0  0  0
   -0.1846   -5.3985    5.7741 C   0  0  0  0  0  0  0  0  0  0  0  0
    0.6316   -7.7741    6.0943 C   0  0  0  0  0  0  0  0  0  0  0  0
   -0.1283   -8.6752    5.0689 C   0  0  1  0  0  0  0  0  0  0  0  0
   -0.8649   -7.8128    4.1554 N   0  0  0  0  0  0  0  0  0  0  0  0
   -0.1146   -7.9123    2.9310 C   0  0  2  0  0  0  0  0  0  0  0  0
   -0.1006   -9.2859    2.8550 O   0  0  0  0  0  0  0  0  0  0  0  0
    0.6684   -9.5477    4.0281 C   0  0  1  0  0  0  0  0  0  0  0  0
    1.9687   -8.9244    3.4746 C   0  0  0  0  0  0  0  0  0  0  0  0
    3.1720   -9.1390    4.4172 C   0  0  0  0  0  0  0  0  0  0  0  0
    2.4417   -9.5696    2.1388 C   0  0  0  0  0  0  0  0  0  0  0  0
    1.4007   -7.5094    3.1528 C   0  0  2  0  0  0  0  0  0  0  0  0
    1.6472   -6.2898    4.1536 C   0  0  2  0  0  0  0  0  0  0  0  0
   -2.3004    1.5506    3.7383 H   0  0  0  0  0  0  0  0  0  0  0  0
   -1.4205    2.6174    2.5144 H   0  0  0  0  0  0  0  0  0  0  0  0
    0.6887    1.8702    1.5903 H   0  0  0  0  0  0  0  0  0  0  0  0
    1.5307    1.9634    3.1199 H   0  0  0  0  0  0  0  0  0  0  0  0
    1.1902   -0.5104    1.3190 H   0  0  0  0  0  0  0  0  0  0  0  0
    2.7008    0.2794    1.6837 H   0  0  0  0  0  0  0  0  0  0  0  0
    0.0679    0.0975    5.1850 H   0  0  0  0  0  0  0  0  0  0  0  0
   -1.2744   -0.6268    4.3233 H   0  0  0  0  0  0  0  0  0  0  0  0
    1.6463   -3.3847    4.1342 H   0  0  0  0  0  0  0  0  0  0  0  0
    2.5896   -4.6533    2.2150 H   0  0  0  0  0  0  0  0  0  0  0  0
    4.1920   -4.3289    2.7360 H   0  0  0  0  0  0  0  0  0  0  0  0
    3.5968   -6.4640    3.3346 H   0  0  0  0  0  0  0  0  0  0  0  0
    4.9753   -6.3869    4.9757 H   0  0  0  0  0  0  0  0  0  0  0  0
    3.4173   -7.4975    6.4342 H   0  0  0  0  0  0  0  0  0  0  0  0
    4.1161   -6.2356    7.3585 H   0  0  0  0  0  0  0  0  0  0  0  0
    1.7746   -6.0948    7.6503 H   0  0  0  0  0  0  0  0  0  0  0  0
    1.5416   -3.7159    6.2088 H   0  0  0  0  0  0  0  0  0  0  0  0
    2.6514   -4.1257    8.9541 H   0  0  0  0  0  0  0  0  0  0  0  0
    0.9672   -4.0954    8.4759 H   0  0  0  0  0  0  0  0  0  0  0  0
    1.9203   -2.6551    8.2947 H   0  0  0  0  0  0  0  0  0  0  0  0
    4.3032   -2.8131    8.1800 H   0  0  0  0  0  0  0  0  0  0  0  0
    5.4413   -2.5516    6.9242 H   0  0  0  0  0  0  0  0  0  0  0  0
    3.1613   -0.7745    7.5801 H   0  0  0  0  0  0  0  0  0  0  0  0
    4.6005   -0.4653    6.6232 H   0  0  0  0  0  0  0  0  0  0  0  0
    1.9716   -1.6740    5.8696 H   0  0  0  0  0  0  0  0  0  0  0  0
    2.0421    0.4296    5.0411 H   0  0  0  0  0  0  0  0  0  0  0  0
    4.5963    0.1416    3.3998 H   0  0  0  0  0  0  0  0  0  0  0  0
    4.4448    0.9762    4.9375 H   0  0  0  0  0  0  0  0  0  0  0  0
    3.5362    1.5047    3.5654 H   0  0  0  0  0  0  0  0  0  0  0  0
    5.5574   -1.6504    4.8477 H   0  0  0  0  0  0  0  0  0  0  0  0
    4.8888   -1.9390    3.2645 H   0  0  0  0  0  0  0  0  0  0  0  0
    5.6022   -3.2414    4.1301 H   0  0  0  0  0  0  0  0  0  0  0  0
   -1.1233   -5.8512    5.4800 H   0  0  0  0  0  0  0  0  0  0  0  0
   -0.1100   -4.4903    5.1810 H   0  0  0  0  0  0  0  0  0  0  0  0
   -0.3471   -5.0957    6.8084 H   0  0  0  0  0  0  0  0  0  0  0  0
    1.4330   -8.3372    6.5631 H   0  0  0  0  0  0  0  0  0  0  0  0
   -0.0462   -7.6318    6.9397 H   0  0  0  0  0  0  0  0  0  0  0  0
   -0.8262   -9.3171    5.6006 H   0  0  0  0  0  0  0  0  0  0  0  0
   -1.8469   -8.0144    4.0723 H   0  0  0  0  0  0  0  0  0  0  0  0
   -0.6867   -7.3951    2.1593 H   0  0  0  0  0  0  0  0  0  0  0  0
    0.7510  -10.6067    4.2780 H   0  0  0  0  0  0  0  0  0  0  0  0
    3.9468   -8.3881    4.3151 H   0  0  0  0  0  0  0  0  0  0  0  0
    3.6622  -10.0851    4.1974 H   0  0  0  0  0  0  0  0  0  0  0  0
    2.8937   -9.2554    5.4520 H   0  0  0  0  0  0  0  0  0  0  0  0
    3.3952   -9.1466    1.8161 H   0  0  0  0  0  0  0  0  0  0  0  0
    1.7440   -9.4125    1.3152 H   0  0  0  0  0  0  0  0  0  0  0  0
    2.5756  -10.6468    2.2414 H   0  0  0  0  0  0  0  0  0  0  0  0
    1.7813   -7.1955    2.1766 H   0  0  0  0  0  0  0  0  0  0  0  0
    1.0351   -5.5354    3.6673 H   0  0  0  0  0  0  0  0  0  0  0  0
  1  2  2  0
  1 39  1  0
  1 40  1  0
  2  7  1  0
  2  3  1  0
  3  4  1  0
  3 41  1  0
  3 42  1  0
  4  5  1  0
  4 43  1  0
  4 44  1  0
  5 21  1  0
  5  6  1  1
  5  8  1  0
  6  7  1  0
  7 45  1  0
  7 46  1  0
  8  9  1  0
  9 23  1  0
  9 10  1  0
  9 47  1  1
 10 11  1  0
 10 48  1  0
 10 49  1  0
 11 38  1  0
 11 12  1  0
 11 50  1  6
 12 25  1  0
 12 13  1  0
 12 51  1  6
 13 14  1  0
 13 52  1  0
 13 53  1  0
 14 15  1  0
 14 26  1  0
 14 54  1  1
 15 16  1  0
 15 17  1  0
 15 55  1  6
 16 56  1  0
 16 57  1  0
 16 58  1  0
 17 23  1  0
 17 18  1  1
 17 25  1  0
 18 19  1  0
 18 59  1  0
 18 60  1  0
 19 20  1  0
 19 61  1  0
 19 62  1  0
 20 21  1  0
 20 23  1  0
 20 63  1  1
 21 22  1  0
 21 64  1  1
 22 65  1  0
 22 66  1  0
 22 67  1  0
 23 24  1  6
 24 68  1  0
 24 69  1  0
 24 70  1  0
 26 38  1  0
 26 27  1  6
 26 28  1  0
 27 71  1  0
 27 72  1  0
 27 73  1  0
 28 29  1  0
 28 74  1  0
 28 75  1  0
 29 33  1  0
 29 30  1  0
 29 76  1  1
 30 31  1  0
 30 77  1  0
 31 37  1  0
 31 32  1  0
 31 78  1  6
 32 33  1  0
 33 34  1  0
 33 79  1  1
 34 35  1  0
 34 36  1  0
 34 37  1  0
 35 80  1  0
 35 81  1  0
 35 82  1  0
 36 83  1  0
 36 84  1  0
 36 85  1  0
 37 38  1  0
 37 86  1  6
 38 87  1  6
M  END
>  <i_m_ct_stereo_status>  (343) 
1

>  <s_m_source_file>  (343) 
/var/tmp/pbs.5076255.sched01/tmpsouvlwkc/11751gt6aqu.sdf

>  <i_m_source_file_index>  (343) 
23

>  <i_lp_mmshare_version>  (343) 
48012

>  <i_f3d_flags>  (343) 
0

>  <s_epik_input>  (343) 
TzFbQ0gyXUMoPVtDSDJdKVtDSDJdW0NIMl1bQ0BdMTJPW0NAQEhdM1tDQF00KFtDSDNdKVtDQEBdNShbQ0gyXVtDSDJdW0NASF00W0NASF0yW0NIM10pW0NASF0oW0NIM10pW0NASF02W0NAQF03KFtDSDNdKVtDQEBIXShbQ0BASF0oW0NIMl0zKVtDQEBIXShPNSlbQ0gyXTYpW0NAQEhdOFtDQEBIXTlbTkhdW0NASF0oW0NIMl03KVtDQEBIXShPOSlDOChbQ0gzXSlbQ0gzXQ==

>  <s_epik_cmdline>  (343) 
J2VwaWtfcHl0aG9uJywgJy1waHQnLCAnMi4wJywgJy1waCcsICc3LjAnLCAnLXRuJywgJzgnLCAnLW1hJywgJzIwMCcsICctaW1hZScsICc8aW5maWxlLm1hZT4nLCAnLW9tYWUnLCAnPG91dGZpbGUubWFlPic=

>  <r_epik_Ionization_Penalty>  (343) 
1.88344

>  <r_epik_Ionization_Penalty_Charging>  (343) 
0

>  <r_epik_Ionization_Penalty_Neutral>  (343) 
1.88344

>  <r_epik_State_Penalty>  (343) 
2.00339

>  <r_epik_Charging_Adjusted_Penalty>  (343) 
2.00339

>  <i_epik_Tot_Q>  (343) 
0

>  <i_epik_Tot_abs_Q>  (343) 
0

>  <s_epik_Chemistry_Notes>  (343) 
This compound contains an acetal/aminal-like group ( X-CH(R)-Y where X, Y are N, S, or O) that may be acid/base labile, releasing an aldehyde.

>  <s_lp_Force_Field>  (343) 
OPLS3e

>  <r_lp_Energy>  (343) 
155.156

>  <b_lp_Chiralities_Consistent>  (343) 
1

>  <s_lp_Variant>  (343) 
104:0-2

>  <s_i_glide_gridfile>  (343) 
pfpi4k_grid

>  <i_i_glide_lignum>  (343) 
23

>  <i_i_glide_rotatable_bonds>  (343) 
0

>  <r_i_docking_score>  (343) 
-1.42167

>  <r_i_glide_ligand_efficiency>  (343) 
-0.0374123

>  <r_i_glide_ligand_efficiency_sa>  (343) 
-0.125779

>  <r_i_glide_ligand_efficiency_ln>  (343) 
-0.306553

>  <r_i_glide_gscore>  (343) 
-1.42167

>  <r_i_glide_lipo>  (343) 
-0.0505799

>  <r_i_glide_hbond>  (343) 
0

>  <r_i_glide_metal>  (343) 
-0

>  <r_i_glide_rewards>  (343) 
0

>  <r_i_glide_evdw>  (343) 
-30.9923

>  <r_i_glide_ecoul>  (343) 
1.53913

>  <r_i_glide_erotb>  (343) 
0

>  <r_i_glide_esite>  (343) 
-0.0523385

>  <r_i_glide_emodel>  (343) 
-31.8527

>  <r_i_glide_energy>  (343) 
-29.4532

>  <r_i_glide_einternal>  (343) 
0

>  <r_i_glide_intrahb_reward>  (343) 
-0

>  <i_i_glide_confnum>  (343) 
1

>  <i_i_glide_posenum>  (343) 
22

>  <r_i_glide_eff_state_penalty>  (343) 
0

>  <ligand_id>  (343) 
104

>  <original_smiles>  (343) 
C=C1CCC2(OC1)OC1CC3C4CC(C(C)C5(CCC(C2C)C15C)O4)C1(C)CC2NC4OC2C(C)(C)C4C31

>  <smiles>  (343) 
[H]C([H])=C1C([H])([H])OC2(OC3([H])C([H])([H])C4([H])C5([H])OC6(C([H])([H])C([H])([H])C([H])(C2([H])C([H])([H])[H])C36C([H])([H])[H])C([H])(C([H])([H])[H])C([H])(C5([H])[H])C2(C([H])([H])[H])C([H])([H])C3([H])N([H])C5([H])OC3([H])C(C([H])([H])[H])(C([H])([H])[H])C5([H])C42[H])C([H])([H])C1([H])[H]

$$$$
106:0:0
     RDKit          3D

 32 34  0  0  1  0  0  0  0  0999 V2000
    8.1600   -3.0339   -1.4320 C   0  0  0  0  0  0  0  0  0  0  0  0
    7.2675   -3.5189   -0.4554 O   0  0  0  0  0  0  0  0  0  0  0  0
    6.7179   -2.6780    0.4324 C   0  0  0  0  0  0  0  0  0  0  0  0
    6.9079   -1.4594    0.4510 O   0  0  0  0  0  0  0  0  0  0  0  0
    5.7915   -3.4418    1.4009 C   0  0  2  0  0  0  0  0  0  0  0  0
    6.4055   -4.7760    1.9140 C   0  0  0  0  0  0  0  0  0  0  0  0
    5.6836   -6.1391    0.9232 S   0  0  0  0  0  0  0  0  0  0  0  0
    4.4668   -5.1245    0.0125 C   0  0  1  0  0  0  0  0  0  0  0  0
    2.9550   -5.0597    0.2761 C   0  0  1  0  0  0  0  0  0  0  0  0
    2.5282   -6.0968    1.2007 N   0  0  0  0  0  0  0  0  0  0  0  0
    1.3009   -6.6151    1.2762 C   0  0  0  0  0  0  0  0  0  0  0  0
    0.3744   -6.2643    0.5400 O   0  0  0  0  0  0  0  0  0  0  0  0
    1.1217   -7.6303    2.3300 C   0  0  0  0  0  0  0  0  0  0  0  0
    2.0443   -8.2881    3.0977 C   0  0  0  0  0  0  0  0  0  0  0  0
    1.4575   -9.2086    4.0172 C   0  0  0  0  0  0  0  0  0  0  0  0
    0.0950   -9.2430    3.9200 C   0  0  0  0  0  0  0  0  0  0  0  0
   -0.5066   -8.1644    2.6922 S   0  0  0  0  0  0  0  0  0  0  0  0
    3.2526   -3.7402    0.9889 C   0  0  0  0  0  0  0  0  0  0  0  0
    2.6186   -2.9133    1.6144 O   0  0  0  0  0  0  0  0  0  0  0  0
    4.5930   -3.8633    0.7189 N   0  0  0  0  0  0  0  0  0  0  0  0
    8.5354   -3.8591   -2.0333 H   0  0  0  0  0  0  0  0  0  0  0  0
    9.0115   -2.5314   -0.9696 H   0  0  0  0  0  0  0  0  0  0  0  0
    7.6442   -2.3379   -2.0934 H   0  0  0  0  0  0  0  0  0  0  0  0
    5.5276   -2.8076    2.2524 H   0  0  0  0  0  0  0  0  0  0  0  0
    7.4962   -4.7979    1.8736 H   0  0  0  0  0  0  0  0  0  0  0  0
    6.1344   -4.9482    2.9562 H   0  0  0  0  0  0  0  0  0  0  0  0
    4.7188   -5.0405   -1.0435 H   0  0  0  0  0  0  0  0  0  0  0  0
    2.3784   -4.9836   -0.6488 H   0  0  0  0  0  0  0  0  0  0  0  0
    3.2195   -6.4305    1.8556 H   0  0  0  0  0  0  0  0  0  0  0  0
    3.1155   -8.1473    3.0528 H   0  0  0  0  0  0  0  0  0  0  0  0
    2.0480   -9.8084    4.6999 H   0  0  0  0  0  0  0  0  0  0  0  0
   -0.5885   -9.8516    4.4861 H   0  0  0  0  0  0  0  0  0  0  0  0
  1  2  1  0
  1 21  1  0
  1 22  1  0
  1 23  1  0
  2  3  1  0
  3  4  2  0
  3  5  1  0
  5 20  1  0
  5  6  1  0
  5 24  1  1
  6  7  1  0
  6 25  1  0
  6 26  1  0
  7  8  1  0
  8 20  1  0
  8  9  1  0
  8 27  1  6
  9 10  1  0
  9 18  1  0
  9 28  1  6
 10 11  1  0
 10 29  1  0
 11 12  2  0
 11 13  1  0
 13 17  1  0
 13 14  2  0
 14 15  1  0
 14 30  1  0
 15 16  2  0
 15 31  1  0
 16 17  1  0
 16 32  1  0
 18 19  2  0
 18 20  1  0
M  END
>  <i_m_ct_stereo_status>  (344) 
1

>  <s_m_source_file>  (344) 
/var/tmp/pbs.5076255.sched01/tmpsouvlwkc/11751gt6aqu.sdf

>  <i_m_source_file_index>  (344) 
25

>  <i_lp_mmshare_version>  (344) 
48012

>  <i_f3d_flags>  (344) 
0

>  <s_epik_input>  (344) 
W0NIM11PQyg9TylbQ0BIXShbQ0gyXVMxKU4oW0NAQEhdMTIpQyg9TylbQ0BASF0yW05IXUMoPU8pYzNbY0hdW2NIXVtjSF1zMw==

>  <s_epik_cmdline>  (344) 
J2VwaWtfcHl0aG9uJywgJy1waHQnLCAnMi4wJywgJy1waCcsICc3LjAnLCAnLXRuJywgJzgnLCAnLW1hJywgJzIwMCcsICctaW1hZScsICc8aW5maWxlLm1hZT4nLCAnLW9tYWUnLCAnPG91dGZpbGUubWFlPic=

>  <r_lp_tautomer_probability>  (344) 
1

>  <r_epik_Ionization_Penalty>  (344) 
2.4627e-06

>  <r_epik_Ionization_Penalty_Charging>  (344) 
0

>  <r_epik_Ionization_Penalty_Neutral>  (344) 
2.4627e-06

>  <r_epik_State_Penalty>  (344) 
-0

>  <r_epik_Charging_Adjusted_Penalty>  (344) 
0

>  <i_epik_Tot_Q>  (344) 
0

>  <i_epik_Tot_abs_Q>  (344) 
0

>  <s_epik_Chemistry_Notes>  (344) 
This compound has an ester and may undergo hydrolysis at high or low pH. This compound contains an acetal/aminal-like group ( X-CH(R)-Y where X, Y are N, S, or O) that may be acid/base labile, releasing an aldehyde.

>  <s_lp_Force_Field>  (344) 
OPLS3e

>  <r_lp_Energy>  (344) 
21.3499

>  <b_lp_Chiralities_Consistent>  (344) 
1

>  <s_lp_Variant>  (344) 
106:0-1

>  <s_i_glide_gridfile>  (344) 
pfpi4k_grid

>  <i_i_glide_lignum>  (344) 
25

>  <i_i_glide_rotatable_bonds>  (344) 
5

>  <r_i_docking_score>  (344) 
-3.59695

>  <r_i_glide_ligand_efficiency>  (344) 
-0.179848

>  <r_i_glide_ligand_efficiency_sa>  (344) 
-0.488182

>  <r_i_glide_ligand_efficiency_ln>  (344) 
-0.900199

>  <r_i_glide_gscore>  (344) 
-3.59695

>  <r_i_glide_lipo>  (344) 
-0.212382

>  <r_i_glide_hbond>  (344) 
-0.210229

>  <r_i_glide_metal>  (344) 
-0

>  <r_i_glide_rewards>  (344) 
-1.45953

>  <r_i_glide_evdw>  (344) 
-27.3633

>  <r_i_glide_ecoul>  (344) 
-6.82815

>  <r_i_glide_erotb>  (344) 
0.760813

>  <r_i_glide_esite>  (344) 
-0.0832344

>  <r_i_glide_emodel>  (344) 
-42.217

>  <r_i_glide_energy>  (344) 
-34.1914

>  <r_i_glide_einternal>  (344) 
0.790361

>  <r_i_glide_intrahb_reward>  (344) 
-0

>  <i_i_glide_confnum>  (344) 
5

>  <i_i_glide_posenum>  (344) 
37

>  <r_i_glide_eff_state_penalty>  (344) 
0

>  <ligand_id>  (344) 
106

>  <original_smiles>  (344) 
COC(=O)C1CSC2C(NC(=O)c3cccs3)C(=O)N12

>  <smiles>  (344) 
[H]c1sc(C(=O)N([H])C2([H])C(=O)N3C2([H])SC([H])([H])C3([H])C(=O)OC([H])([H])[H])c([H])c1[H]

$$$$
106:0:1
     RDKit          3D

 32 34  0  0  1  0  0  0  0  0999 V2000
   -1.2874    1.8840    4.3532 C   0  0  0  0  0  0  0  0  0  0  0  0
   -1.0320    1.1176    5.5253 O   0  0  0  0  0  0  0  0  0  0  0  0
   -0.4153   -0.1161    5.5161 C   0  0  0  0  0  0  0  0  0  0  0  0
   -0.2125   -0.7403    6.5607 O   0  0  0  0  0  0  0  0  0  0  0  0
   -0.0419   -0.6748    4.1092 C   0  0  2  0  0  0  0  0  0  0  0  0
    0.6000   -2.1020    4.1278 C   0  0  0  0  0  0  0  0  0  0  0  0
    2.4172   -1.9019    3.9871 S   0  0  0  0  0  0  0  0  0  0  0  0
    2.3944   -0.0928    3.6567 C   0  0  1  0  0  0  0  0  0  0  0  0
    2.6091    0.6472    2.3204 C   0  0  1  0  0  0  0  0  0  0  0  0
    3.0722   -0.2152    1.2471 N   0  0  0  0  0  0  0  0  0  0  0  0
    4.3374   -0.6100    1.1016 C   0  0  0  0  0  0  0  0  0  0  0  0
    5.2493   -0.2854    1.8597 O   0  0  0  0  0  0  0  0  0  0  0  0
    4.5740   -1.4917   -0.0734 C   0  0  0  0  0  0  0  0  0  0  0  0
    3.6910   -2.0020   -0.9792 C   0  0  0  0  0  0  0  0  0  0  0  0
    4.3261   -2.8007   -1.9812 C   0  0  0  0  0  0  0  0  0  0  0  0
    5.6733   -2.8939   -1.8020 C   0  0  0  0  0  0  0  0  0  0  0  0
    6.2139   -2.0234   -0.3916 S   0  0  0  0  0  0  0  0  0  0  0  0
    1.0942    0.7960    2.3007 C   0  0  0  0  0  0  0  0  0  0  0  0
    0.2618    1.2774    1.5601 O   0  0  0  0  0  0  0  0  0  0  0  0
    0.9830    0.1398    3.5012 N   0  0  0  0  0  0  0  0  0  0  0  0
   -1.8790    2.7638    4.6084 H   0  0  0  0  0  0  0  0  0  0  0  0
   -1.8636    1.2918    3.6405 H   0  0  0  0  0  0  0  0  0  0  0  0
   -0.3388    2.1852    3.9087 H   0  0  0  0  0  0  0  0  0  0  0  0
   -0.9280   -0.6989    3.4779 H   0  0  0  0  0  0  0  0  0  0  0  0
    0.3209   -2.7043    5.0007 H   0  0  0  0  0  0  0  0  0  0  0  0
    0.2488   -2.6623    3.2593 H   0  0  0  0  0  0  0  0  0  0  0  0
    2.7771    0.4752    4.4987 H   0  0  0  0  0  0  0  0  0  0  0  0
    3.1630    1.5866    2.3987 H   0  0  0  0  0  0  0  0  0  0  0  0
    2.3741   -0.5547    0.5927 H   0  0  0  0  0  0  0  0  0  0  0  0
    2.6229   -1.8367   -0.9901 H   0  0  0  0  0  0  0  0  0  0  0  0
    3.7515   -3.2686   -2.7684 H   0  0  0  0  0  0  0  0  0  0  0  0
    6.3902   -3.4390   -2.3924 H   0  0  0  0  0  0  0  0  0  0  0  0
  1  2  1  0
  1 21  1  0
  1 22  1  0
  1 23  1  0
  2  3  1  0
  3  4  2  0
  3  5  1  0
  5 20  1  0
  5  6  1  0
  5 24  1  6
  6  7  1  0
  6 25  1  0
  6 26  1  0
  7  8  1  0
  8 20  1  0
  8  9  1  0
  8 27  1  1
  9 10  1  0
  9 18  1  0
  9 28  1  1
 10 11  1  0
 10 29  1  0
 11 12  2  0
 11 13  1  0
 13 17  1  0
 13 14  2  0
 14 15  1  0
 14 30  1  0
 15 16  2  0
 15 31  1  0
 16 17  1  0
 16 32  1  0
 18 19  2  0
 18 20  1  0
M  END
>  <i_m_ct_stereo_status>  (345) 
1

>  <s_m_source_file>  (345) 
/var/tmp/pbs.5076255.sched01/tmpsouvlwkc/11751gt6aqu.sdf

>  <i_m_source_file_index>  (345) 
25

>  <i_lp_mmshare_version>  (345) 
48012

>  <i_f3d_flags>  (345) 
0

>  <s_epik_input>  (345) 
W0NIM11PQyg9TylbQ0BIXShbQ0gyXVMxKU4oW0NAQEhdMTIpQyg9TylbQ0BASF0yW05IXUMoPU8pYzNbY0hdW2NIXVtjSF1zMw==

>  <s_epik_cmdline>  (345) 
J2VwaWtfcHl0aG9uJywgJy1waHQnLCAnMi4wJywgJy1waCcsICc3LjAnLCAnLXRuJywgJzgnLCAnLW1hJywgJzIwMCcsICctaW1hZScsICc8aW5maWxlLm1hZT4nLCAnLW9tYWUnLCAnPG91dGZpbGUubWFlPic=

>  <r_lp_tautomer_probability>  (345) 
1

>  <r_epik_Ionization_Penalty>  (345) 
2.4627e-06

>  <r_epik_Ionization_Penalty_Charging>  (345) 
0

>  <r_epik_Ionization_Penalty_Neutral>  (345) 
2.4627e-06

>  <r_epik_State_Penalty>  (345) 
-0

>  <r_epik_Charging_Adjusted_Penalty>  (345) 
0

>  <i_epik_Tot_Q>  (345) 
0

>  <i_epik_Tot_abs_Q>  (345) 
0

>  <s_epik_Chemistry_Notes>  (345) 
This compound has an ester and may undergo hydrolysis at high or low pH. This compound contains an acetal/aminal-like group ( X-CH(R)-Y where X, Y are N, S, or O) that may be acid/base labile, releasing an aldehyde.

>  <s_lp_Force_Field>  (345) 
OPLS3e

>  <r_lp_Energy>  (345) 
21.3499

>  <b_lp_Chiralities_Consistent>  (345) 
1

>  <s_lp_Variant>  (345) 
106:0-1

>  <s_i_glide_gridfile>  (345) 
pfpi4k_grid

>  <i_i_glide_lignum>  (345) 
25

>  <i_i_glide_rotatable_bonds>  (345) 
5

>  <r_i_docking_score>  (345) 
-3.39836

>  <r_i_glide_ligand_efficiency>  (345) 
-0.169918

>  <r_i_glide_ligand_efficiency_sa>  (345) 
-0.461228

>  <r_i_glide_ligand_efficiency_ln>  (345) 
-0.850496

>  <r_i_glide_gscore>  (345) 
-3.39836

>  <r_i_glide_lipo>  (345) 
-0.0964536

>  <r_i_glide_hbond>  (345) 
-0.248172

>  <r_i_glide_metal>  (345) 
-0

>  <r_i_glide_rewards>  (345) 
-1.41116

>  <r_i_glide_evdw>  (345) 
-27.257

>  <r_i_glide_ecoul>  (345) 
-6.19643

>  <r_i_glide_erotb>  (345) 
0.760813

>  <r_i_glide_esite>  (345) 
-0.111069

>  <r_i_glide_emodel>  (345) 
-37.9866

>  <r_i_glide_energy>  (345) 
-33.4534

>  <r_i_glide_einternal>  (345) 
6.10939

>  <r_i_glide_intrahb_reward>  (345) 
-0

>  <i_i_glide_confnum>  (345) 
3

>  <i_i_glide_posenum>  (345) 
9

>  <r_i_glide_eff_state_penalty>  (345) 
0

>  <ligand_id>  (345) 
106

>  <original_smiles>  (345) 
COC(=O)C1CSC2C(NC(=O)c3cccs3)C(=O)N12

>  <smiles>  (345) 
[H]c1sc(C(=O)N([H])C2([H])C(=O)N3C2([H])SC([H])([H])C3([H])C(=O)OC([H])([H])[H])c([H])c1[H]

$$$$
106:0:2
     RDKit          3D

 32 34  0  0  1  0  0  0  0  0999 V2000
    8.2155   -3.0567   -1.0673 C   0  0  0  0  0  0  0  0  0  0  0  0
    6.8950   -2.5677   -0.9722 O   0  0  0  0  0  0  0  0  0  0  0  0
    5.9898   -2.8382   -1.9330 C   0  0  0  0  0  0  0  0  0  0  0  0
    6.2095   -3.4534   -2.9720 O   0  0  0  0  0  0  0  0  0  0  0  0
    4.6230   -2.2668   -1.5883 C   0  0  2  0  0  0  0  0  0  0  0  0
    4.6777   -0.7486   -1.3295 C   0  0  0  0  0  0  0  0  0  0  0  0
    4.7062   -0.4965    0.4905 S   0  0  0  0  0  0  0  0  0  0  0  0
    4.4459   -2.2399    0.9679 C   0  0  1  0  0  0  0  0  0  0  0  0
    3.1513   -2.8829    1.4688 C   0  0  1  0  0  0  0  0  0  0  0  0
    2.1289   -1.8917    1.7851 N   0  0  0  0  0  0  0  0  0  0  0  0
    1.6519   -1.6499    3.0103 C   0  0  0  0  0  0  0  0  0  0  0  0
    1.9780   -2.3035    3.9988 O   0  0  0  0  0  0  0  0  0  0  0  0
    0.6941   -0.5297    3.1020 C   0  0  0  0  0  0  0  0  0  0  0  0
    0.4298    0.4929    2.2259 C   0  0  0  0  0  0  0  0  0  0  0  0
   -0.5862    1.3783    2.6901 C   0  0  0  0  0  0  0  0  0  0  0  0
   -1.0677    1.0311    3.9245 C   0  0  0  0  0  0  0  0  0  0  0  0
   -0.2850   -0.3935    4.5471 S   0  0  0  0  0  0  0  0  0  0  0  0
    3.0021   -3.4306    0.0479 C   0  0  0  0  0  0  0  0  0  0  0  0
    2.1955   -4.0942   -0.5657 O   0  0  0  0  0  0  0  0  0  0  0  0
    4.1606   -2.8149   -0.3348 N   0  0  0  0  0  0  0  0  0  0  0  0
    8.7851   -2.7339   -0.1952 H   0  0  0  0  0  0  0  0  0  0  0  0
    8.7098   -2.6711   -1.9593 H   0  0  0  0  0  0  0  0  0  0  0  0
    8.2309   -4.1450   -1.0901 H   0  0  0  0  0  0  0  0  0  0  0  0
    3.9115   -2.4920   -2.3820 H   0  0  0  0  0  0  0  0  0  0  0  0
    5.5212   -0.2590   -1.8150 H   0  0  0  0  0  0  0  0  0  0  0  0
    3.7996   -0.2783   -1.7540 H   0  0  0  0  0  0  0  0  0  0  0  0
    5.3430   -2.6693    1.4132 H   0  0  0  0  0  0  0  0  0  0  0  0
    3.3410   -3.6462    2.2284 H   0  0  0  0  0  0  0  0  0  0  0  0
    1.7843   -1.3213    1.0168 H   0  0  0  0  0  0  0  0  0  0  0  0
    0.9066    0.6249    1.2617 H   0  0  0  0  0  0  0  0  0  0  0  0
   -0.9103    2.2226    2.0986 H   0  0  0  0  0  0  0  0  0  0  0  0
   -1.8373    1.5230    4.5034 H   0  0  0  0  0  0  0  0  0  0  0  0
  1  2  1  0
  1 21  1  0
  1 22  1  0
  1 23  1  0
  2  3  1  0
  3  4  2  0
  3  5  1  0
  5 20  1  0
  5  6  1  0
  5 24  1  6
  6  7  1  0
  6 25  1  0
  6 26  1  0
  7  8  1  0
  8 20  1  0
  8  9  1  0
  8 27  1  1
  9 10  1  0
  9 18  1  0
  9 28  1  1
 10 11  1  0
 10 29  1  0
 11 12  2  0
 11 13  1  0
 13 17  1  0
 13 14  2  0
 14 15  1  0
 14 30  1  0
 15 16  2  0
 15 31  1  0
 16 17  1  0
 16 32  1  0
 18 19  2  0
 18 20  1  0
M  END
>  <i_m_ct_stereo_status>  (346) 
1

>  <s_m_source_file>  (346) 
/var/tmp/pbs.5076255.sched01/tmpsouvlwkc/11751gt6aqu.sdf

>  <i_m_source_file_index>  (346) 
25

>  <i_lp_mmshare_version>  (346) 
48012

>  <i_f3d_flags>  (346) 
0

>  <s_epik_input>  (346) 
W0NIM11PQyg9TylbQ0BIXShbQ0gyXVMxKU4oW0NAQEhdMTIpQyg9TylbQ0BASF0yW05IXUMoPU8pYzNbY0hdW2NIXVtjSF1zMw==

>  <s_epik_cmdline>  (346) 
J2VwaWtfcHl0aG9uJywgJy1waHQnLCAnMi4wJywgJy1waCcsICc3LjAnLCAnLXRuJywgJzgnLCAnLW1hJywgJzIwMCcsICctaW1hZScsICc8aW5maWxlLm1hZT4nLCAnLW9tYWUnLCAnPG91dGZpbGUubWFlPic=

>  <r_lp_tautomer_probability>  (346) 
1

>  <r_epik_Ionization_Penalty>  (346) 
2.4627e-06

>  <r_epik_Ionization_Penalty_Charging>  (346) 
0

>  <r_epik_Ionization_Penalty_Neutral>  (346) 
2.4627e-06

>  <r_epik_State_Penalty>  (346) 
-0

>  <r_epik_Charging_Adjusted_Penalty>  (346) 
0

>  <i_epik_Tot_Q>  (346) 
0

>  <i_epik_Tot_abs_Q>  (346) 
0

>  <s_epik_Chemistry_Notes>  (346) 
This compound has an ester and may undergo hydrolysis at high or low pH. This compound contains an acetal/aminal-like group ( X-CH(R)-Y where X, Y are N, S, or O) that may be acid/base labile, releasing an aldehyde.

>  <s_lp_Force_Field>  (346) 
OPLS3e

>  <r_lp_Energy>  (346) 
21.3499

>  <b_lp_Chiralities_Consistent>  (346) 
1

>  <s_lp_Variant>  (346) 
106:0-1

>  <s_i_glide_gridfile>  (346) 
pfpi4k_grid

>  <i_i_glide_lignum>  (346) 
25

>  <i_i_glide_rotatable_bonds>  (346) 
5

>  <r_i_docking_score>  (346) 
-2.52659

>  <r_i_glide_ligand_efficiency>  (346) 
-0.12633

>  <r_i_glide_ligand_efficiency_sa>  (346) 
-0.342911

>  <r_i_glide_ligand_efficiency_ln>  (346) 
-0.632322

>  <r_i_glide_gscore>  (346) 
-2.52659

>  <r_i_glide_lipo>  (346) 
-0.146119

>  <r_i_glide_hbond>  (346) 
-0.198153

>  <r_i_glide_metal>  (346) 
-0

>  <r_i_glide_rewards>  (346) 
-1.34301

>  <r_i_glide_evdw>  (346) 
-26.9213

>  <r_i_glide_ecoul>  (346) 
-1.22205

>  <r_i_glide_erotb>  (346) 
0.760813

>  <r_i_glide_esite>  (346) 
-0.0707518

>  <r_i_glide_emodel>  (346) 
-33.5183

>  <r_i_glide_energy>  (346) 
-28.1434

>  <r_i_glide_einternal>  (346) 
1.00746

>  <r_i_glide_intrahb_reward>  (346) 
-0

>  <i_i_glide_confnum>  (346) 
5

>  <i_i_glide_posenum>  (346) 
11

>  <r_i_glide_eff_state_penalty>  (346) 
0

>  <ligand_id>  (346) 
106

>  <original_smiles>  (346) 
COC(=O)C1CSC2C(NC(=O)c3cccs3)C(=O)N12

>  <smiles>  (346) 
[H]c1sc(C(=O)N([H])C2([H])C(=O)N3C2([H])SC([H])([H])C3([H])C(=O)OC([H])([H])[H])c([H])c1[H]

$$$$
107:0:0
     RDKit          3D

 12 13  0  0  1  0  0  0  0  0999 V2000
    1.8485  -10.4130    2.8822 C   0  0  0  0  0  0  0  0  0  0  0  0
    2.5061   -9.4331    2.1143 C   0  0  0  0  0  0  0  0  0  0  0  0
    1.9531   -8.2669    1.7176 N   0  0  0  0  0  0  0  0  0  0  0  0
    0.6652   -8.1079    2.1149 C   0  0  0  0  0  0  0  0  0  0  0  0
   -0.1773   -7.0967    1.9120 N   0  0  0  0  0  0  0  0  0  0  0  0
   -1.3602   -7.4671    2.5456 N   0  0  0  0  0  0  0  0  0  0  0  0
   -1.2992   -8.6330    3.1179 N   0  0  0  0  0  0  0  0  0  0  0  0
   -0.0403   -9.0554    2.8697 N   0  0  0  0  0  0  0  0  0  0  0  0
    0.5075  -10.2616    3.2974 C   0  0  0  0  0  0  0  0  0  0  0  0
    2.3792  -11.3166    3.1423 H   0  0  0  0  0  0  0  0  0  0  0  0
    3.5301   -9.5975    1.8062 H   0  0  0  0  0  0  0  0  0  0  0  0
   -0.0706  -10.9669    3.8796 H   0  0  0  0  0  0  0  0  0  0  0  0
  1  9  2  0
  1  2  1  0
  1 10  1  0
  2  3  2  0
  2 11  1  0
  3  4  1  0
  4  8  1  0
  4  5  2  0
  5  6  1  0
  6  7  2  0
  7  8  1  0
  8  9  1  0
  9 12  1  0
M  END
>  <i_m_ct_stereo_status>  (347) 
1

>  <s_m_source_file>  (347) 
/var/tmp/pbs.5076255.sched01/tmpsouvlwkc/11751gt6aqu.sdf

>  <i_m_source_file_index>  (347) 
26

>  <i_lp_mmshare_version>  (347) 
48012

>  <i_f3d_flags>  (347) 
0

>  <s_epik_input>  (347) 
bjFbY0hdW2NIXVtjSF1uKGMxMilubm4y

>  <s_epik_cmdline>  (347) 
J2VwaWtfcHl0aG9uJywgJy1waHQnLCAnMi4wJywgJy1waCcsICc3LjAnLCAnLXRuJywgJzgnLCAnLW1hJywgJzIwMCcsICctaW1hZScsICc8aW5maWxlLm1hZT4nLCAnLW9tYWUnLCAnPG91dGZpbGUubWFlPic=

>  <r_lp_tautomer_probability>  (347) 
1

>  <r_epik_Ionization_Penalty>  (347) 
3.47943e-11

>  <r_epik_Ionization_Penalty_Charging>  (347) 
0

>  <r_epik_Ionization_Penalty_Neutral>  (347) 
3.47943e-11

>  <r_epik_State_Penalty>  (347) 
-0

>  <r_epik_Charging_Adjusted_Penalty>  (347) 
0

>  <i_epik_Tot_Q>  (347) 
0

>  <i_epik_Tot_abs_Q>  (347) 
0

>  <s_lp_Force_Field>  (347) 
OPLS3e

>  <r_lp_Energy>  (347) 
14.6899

>  <b_lp_Chiralities_Consistent>  (347) 
1

>  <s_lp_Variant>  (347) 
107:0-1

>  <s_i_glide_gridfile>  (347) 
pfpi4k_grid

>  <i_i_glide_lignum>  (347) 
26

>  <i_i_glide_rotatable_bonds>  (347) 
0

>  <r_i_docking_score>  (347) 
-3.98091

>  <r_i_glide_ligand_efficiency>  (347) 
-0.442324

>  <r_i_glide_ligand_efficiency_sa>  (347) 
-0.92007

>  <r_i_glide_ligand_efficiency_ln>  (347) 
-1.24512

>  <r_i_glide_gscore>  (347) 
-3.98091

>  <r_i_glide_lipo>  (347) 
-0.0957746

>  <r_i_glide_hbond>  (347) 
0

>  <r_i_glide_metal>  (347) 
-0

>  <r_i_glide_rewards>  (347) 
-2.25

>  <r_i_glide_evdw>  (347) 
-16.2133

>  <r_i_glide_ecoul>  (347) 
-3.44572

>  <r_i_glide_erotb>  (347) 
0

>  <r_i_glide_esite>  (347) 
-0.307614

>  <r_i_glide_emodel>  (347) 
-25.6428

>  <r_i_glide_energy>  (347) 
-19.659

>  <r_i_glide_einternal>  (347) 
0

>  <r_i_glide_intrahb_reward>  (347) 
-0

>  <i_i_glide_confnum>  (347) 
1

>  <i_i_glide_posenum>  (347) 
34

>  <r_i_glide_eff_state_penalty>  (347) 
0

>  <ligand_id>  (347) 
107

>  <original_smiles>  (347) 
c1cnc2nnnn2c1

>  <smiles>  (347) 
[H]c1nc2nnnn2c([H])c1[H]

$$$$
107:0:1
     RDKit          3D

 12 13  0  0  1  0  0  0  0  0999 V2000
    0.2407  -10.1176    3.0060 C   0  0  0  0  0  0  0  0  0  0  0  0
   -0.9620   -9.3967    2.8758 C   0  0  0  0  0  0  0  0  0  0  0  0
   -1.0607   -8.1442    2.3877 N   0  0  0  0  0  0  0  0  0  0  0  0
    0.1296   -7.6163    2.0083 C   0  0  0  0  0  0  0  0  0  0  0  0
    0.4035   -6.4260    1.4837 N   0  0  0  0  0  0  0  0  0  0  0  0
    1.7840   -6.4069    1.3025 N   0  0  0  0  0  0  0  0  0  0  0  0
    2.3692   -7.5061    1.6785 N   0  0  0  0  0  0  0  0  0  0  0  0
    1.3555   -8.2826    2.1184 N   0  0  0  0  0  0  0  0  0  0  0  0
    1.4859   -9.5734    2.6229 C   0  0  0  0  0  0  0  0  0  0  0  0
    0.2132  -11.1159    3.4166 H   0  0  0  0  0  0  0  0  0  0  0  0
   -1.8914   -9.8541    3.1832 H   0  0  0  0  0  0  0  0  0  0  0  0
    2.4497  -10.0580    2.6919 H   0  0  0  0  0  0  0  0  0  0  0  0
  1  9  2  0
  1  2  1  0
  1 10  1  0
  2  3  2  0
  2 11  1  0
  3  4  1  0
  4  8  1  0
  4  5  2  0
  5  6  1  0
  6  7  2  0
  7  8  1  0
  8  9  1  0
  9 12  1  0
M  END
>  <i_m_ct_stereo_status>  (348) 
1

>  <s_m_source_file>  (348) 
/var/tmp/pbs.5076255.sched01/tmpsouvlwkc/11751gt6aqu.sdf

>  <i_m_source_file_index>  (348) 
26

>  <i_lp_mmshare_version>  (348) 
48012

>  <i_f3d_flags>  (348) 
0

>  <s_epik_input>  (348) 
bjFbY0hdW2NIXVtjSF1uKGMxMilubm4y

>  <s_epik_cmdline>  (348) 
J2VwaWtfcHl0aG9uJywgJy1waHQnLCAnMi4wJywgJy1waCcsICc3LjAnLCAnLXRuJywgJzgnLCAnLW1hJywgJzIwMCcsICctaW1hZScsICc8aW5maWxlLm1hZT4nLCAnLW9tYWUnLCAnPG91dGZpbGUubWFlPic=

>  <r_lp_tautomer_probability>  (348) 
1

>  <r_epik_Ionization_Penalty>  (348) 
3.47943e-11

>  <r_epik_Ionization_Penalty_Charging>  (348) 
0

>  <r_epik_Ionization_Penalty_Neutral>  (348) 
3.47943e-11

>  <r_epik_State_Penalty>  (348) 
-0

>  <r_epik_Charging_Adjusted_Penalty>  (348) 
0

>  <i_epik_Tot_Q>  (348) 
0

>  <i_epik_Tot_abs_Q>  (348) 
0

>  <s_lp_Force_Field>  (348) 
OPLS3e

>  <r_lp_Energy>  (348) 
14.6899

>  <b_lp_Chiralities_Consistent>  (348) 
1

>  <s_lp_Variant>  (348) 
107:0-1

>  <s_i_glide_gridfile>  (348) 
pfpi4k_grid

>  <i_i_glide_lignum>  (348) 
26

>  <i_i_glide_rotatable_bonds>  (348) 
0

>  <r_i_docking_score>  (348) 
-3.91551

>  <r_i_glide_ligand_efficiency>  (348) 
-0.435057

>  <r_i_glide_ligand_efficiency_sa>  (348) 
-0.904954

>  <r_i_glide_ligand_efficiency_ln>  (348) 
-1.22466

>  <r_i_glide_gscore>  (348) 
-3.91551

>  <r_i_glide_lipo>  (348) 
-0.077281

>  <r_i_glide_hbond>  (348) 
0

>  <r_i_glide_metal>  (348) 
-0

>  <r_i_glide_rewards>  (348) 
-2.25

>  <r_i_glide_evdw>  (348) 
-14.4358

>  <r_i_glide_ecoul>  (348) 
-4.08919

>  <r_i_glide_erotb>  (348) 
0

>  <r_i_glide_esite>  (348) 
-0.253061

>  <r_i_glide_emodel>  (348) 
-24.4107

>  <r_i_glide_energy>  (348) 
-18.525

>  <r_i_glide_einternal>  (348) 
0

>  <r_i_glide_intrahb_reward>  (348) 
-0

>  <i_i_glide_confnum>  (348) 
1

>  <i_i_glide_posenum>  (348) 
12

>  <r_i_glide_eff_state_penalty>  (348) 
0

>  <ligand_id>  (348) 
107

>  <original_smiles>  (348) 
c1cnc2nnnn2c1

>  <smiles>  (348) 
[H]c1nc2nnnn2c([H])c1[H]

$$$$
107:0:2
     RDKit          3D

 12 13  0  0  1  0  0  0  0  0999 V2000
    1.5031  -10.3229    2.9033 C   0  0  0  0  0  0  0  0  0  0  0  0
    0.1642   -9.9838    3.1758 C   0  0  0  0  0  0  0  0  0  0  0  0
   -0.4197   -8.8146    2.8498 N   0  0  0  0  0  0  0  0  0  0  0  0
    0.4095   -7.9518    2.2130 C   0  0  0  0  0  0  0  0  0  0  0  0
    0.1762   -6.7254    1.7500 N   0  0  0  0  0  0  0  0  0  0  0  0
    1.3836   -6.3014    1.2012 N   0  0  0  0  0  0  0  0  0  0  0  0
    2.3349   -7.1813    1.3029 N   0  0  0  0  0  0  0  0  0  0  0  0
    1.7504   -8.2288    1.9218 N   0  0  0  0  0  0  0  0  0  0  0  0
    2.3769   -9.4316    2.2436 C   0  0  0  0  0  0  0  0  0  0  0  0
    1.8712  -11.2941    3.2042 H   0  0  0  0  0  0  0  0  0  0  0  0
   -0.4731  -10.6934    3.6803 H   0  0  0  0  0  0  0  0  0  0  0  0
    3.4125   -9.6138    1.9980 H   0  0  0  0  0  0  0  0  0  0  0  0
  1  9  2  0
  1  2  1  0
  1 10  1  0
  2  3  2  0
  2 11  1  0
  3  4  1  0
  4  8  1  0
  4  5  2  0
  5  6  1  0
  6  7  2  0
  7  8  1  0
  8  9  1  0
  9 12  1  0
M  END
>  <i_m_ct_stereo_status>  (349) 
1

>  <s_m_source_file>  (349) 
/var/tmp/pbs.5076255.sched01/tmpsouvlwkc/11751gt6aqu.sdf

>  <i_m_source_file_index>  (349) 
26

>  <i_lp_mmshare_version>  (349) 
48012

>  <i_f3d_flags>  (349) 
0

>  <s_epik_input>  (349) 
bjFbY0hdW2NIXVtjSF1uKGMxMilubm4y

>  <s_epik_cmdline>  (349) 
J2VwaWtfcHl0aG9uJywgJy1waHQnLCAnMi4wJywgJy1waCcsICc3LjAnLCAnLXRuJywgJzgnLCAnLW1hJywgJzIwMCcsICctaW1hZScsICc8aW5maWxlLm1hZT4nLCAnLW9tYWUnLCAnPG91dGZpbGUubWFlPic=

>  <r_lp_tautomer_probability>  (349) 
1

>  <r_epik_Ionization_Penalty>  (349) 
3.47943e-11

>  <r_epik_Ionization_Penalty_Charging>  (349) 
0

>  <r_epik_Ionization_Penalty_Neutral>  (349) 
3.47943e-11

>  <r_epik_State_Penalty>  (349) 
-0

>  <r_epik_Charging_Adjusted_Penalty>  (349) 
0

>  <i_epik_Tot_Q>  (349) 
0

>  <i_epik_Tot_abs_Q>  (349) 
0

>  <s_lp_Force_Field>  (349) 
OPLS3e

>  <r_lp_Energy>  (349) 
14.6899

>  <b_lp_Chiralities_Consistent>  (349) 
1

>  <s_lp_Variant>  (349) 
107:0-1

>  <s_i_glide_gridfile>  (349) 
pfpi4k_grid

>  <i_i_glide_lignum>  (349) 
26

>  <i_i_glide_rotatable_bonds>  (349) 
0

>  <r_i_docking_score>  (349) 
-3.90643

>  <r_i_glide_ligand_efficiency>  (349) 
-0.434048

>  <r_i_glide_ligand_efficiency_sa>  (349) 
-0.902857

>  <r_i_glide_ligand_efficiency_ln>  (349) 
-1.22182

>  <r_i_glide_gscore>  (349) 
-3.90643

>  <r_i_glide_lipo>  (349) 
-0.154441

>  <r_i_glide_hbond>  (349) 
0

>  <r_i_glide_metal>  (349) 
-0

>  <r_i_glide_rewards>  (349) 
-2.25

>  <r_i_glide_evdw>  (349) 
-13.9295

>  <r_i_glide_ecoul>  (349) 
-3.64994

>  <r_i_glide_erotb>  (349) 
0

>  <r_i_glide_esite>  (349) 
-0.258025

>  <r_i_glide_emodel>  (349) 
-23.451

>  <r_i_glide_energy>  (349) 
-17.5795

>  <r_i_glide_einternal>  (349) 
0

>  <r_i_glide_intrahb_reward>  (349) 
-0

>  <i_i_glide_confnum>  (349) 
2

>  <i_i_glide_posenum>  (349) 
19

>  <r_i_glide_eff_state_penalty>  (349) 
0

>  <ligand_id>  (349) 
107

>  <original_smiles>  (349) 
c1cnc2nnnn2c1

>  <smiles>  (349) 
[H]c1nc2nnnn2c([H])c1[H]

$$$$
108:0:0
     RDKit          3D

 28 29  0  0  1  0  0  0  0  0999 V2000
    6.8085   -2.8873   -0.1432 C   0  0  0  0  0  0  0  0  0  0  0  0
    5.6623   -3.0648   -1.0866 C   0  0  0  0  0  0  0  0  0  0  0  0
    5.6167   -2.3703   -2.1679 N   0  0  0  0  0  0  0  0  0  0  0  0
    4.6328   -2.5204   -3.1237 N   0  0  0  0  0  0  0  0  0  0  0  0
    4.4912   -1.3766   -3.9957 C   0  0  0  0  0  0  0  0  0  0  0  0
    3.0564   -1.2438   -4.2451 N   0  0  2  0  0  0  0  0  0  0  0  0
    2.7164    0.1486   -4.5175 C   0  0  0  0  0  0  0  0  0  0  0  0
    2.3685   -1.9243   -3.1228 C   0  0  0  0  0  0  0  0  0  0  0  0
    3.3196   -3.0281   -2.6848 C   0  0  2  0  0  0  0  0  0  0  0  0
    3.2205   -3.3691   -1.1810 C   0  0  1  0  0  0  0  0  0  0  0  0
    2.1407   -4.2592   -0.9355 O   0  0  0  0  0  0  0  0  0  0  0  0
    4.5391   -4.0010   -0.7246 C   0  0  0  0  0  0  0  0  0  0  0  0
    6.8988   -3.7330    0.5356 H   0  0  0  0  0  0  0  0  0  0  0  0
    6.6397   -2.0010    0.4610 H   0  0  0  0  0  0  0  0  0  0  0  0
    7.7548   -2.7710   -0.6701 H   0  0  0  0  0  0  0  0  0  0  0  0
    4.9364   -0.5244   -3.4820 H   0  0  0  0  0  0  0  0  0  0  0  0
    4.9701   -1.4397   -4.9629 H   0  0  0  0  0  0  0  0  0  0  0  0
    3.0601    0.6719   -3.6332 H   0  0  0  0  0  0  0  0  0  0  0  0
    1.6664    0.3254   -4.7220 H   0  0  0  0  0  0  0  0  0  0  0  0
    3.2735    0.5519   -5.3667 H   0  0  0  0  0  0  0  0  0  0  0  0
    2.2136   -1.2179   -2.3097 H   0  0  0  0  0  0  0  0  0  0  0  0
    1.4272   -2.3777   -3.4315 H   0  0  0  0  0  0  0  0  0  0  0  0
    3.1146   -3.9260   -3.2767 H   0  0  0  0  0  0  0  0  0  0  0  0
    3.0658   -2.4513   -0.5977 H   0  0  0  0  0  0  0  0  0  0  0  0
    2.2639   -4.9791   -1.5438 H   0  0  0  0  0  0  0  0  0  0  0  0
    4.6893   -4.9777   -1.1890 H   0  0  0  0  0  0  0  0  0  0  0  0
    4.5077   -4.1518    0.3524 H   0  0  0  0  0  0  0  0  0  0  0  0
    2.7810   -1.7765   -5.0598 H   0  0  0  0  0  0  0  0  0  0  0  0
  1  2  1  0
  1 13  1  0
  1 14  1  0
  1 15  1  0
  2 12  1  0
  2  3  2  0
  3  4  1  0
  4  9  1  0
  4  5  1  0
  5  6  1  0
  5 16  1  0
  5 17  1  0
  6  7  1  0
  6  8  1  0
  6 28  1  6
  7 18  1  0
  7 19  1  0
  7 20  1  0
  8  9  1  0
  8 21  1  0
  8 22  1  0
  9 10  1  0
  9 23  1  6
 10 11  1  0
 10 12  1  0
 10 24  1  1
 11 25  1  0
 12 26  1  0
 12 27  1  0
M  CHG  1   6   1
M  END
>  <i_m_ct_stereo_status>  (350) 
1

>  <s_m_source_file>  (350) 
/var/tmp/pbs.5076255.sched01/tmpsouvlwkc/11751gt6aqu.sdf

>  <i_m_source_file_index>  (350) 
27

>  <i_lp_mmshare_version>  (350) 
48012

>  <i_f3d_flags>  (350) 
0

>  <s_epik_input>  (350) 
W0NIM11DKD1OMSlbQ0gyXVtDQEhdKFtPSF0pW0NASF0oTjEyKVtDSDJdTihbQ0gyXTIpW0NIM10=

>  <s_epik_cmdline>  (350) 
J2VwaWtfcHl0aG9uJywgJy1waHQnLCAnMi4wJywgJy1waCcsICc3LjAnLCAnLXRuJywgJzgnLCAnLW1hJywgJzIwMCcsICctaW1hZScsICc8aW5maWxlLm1hZT4nLCAnLW9tYWUnLCAnPG91dGZpbGUubWFlPic=

>  <r_epik_Ionization_Penalty>  (350) 
0.0143609

>  <r_epik_Ionization_Penalty_Charging>  (350) 
0.0143353

>  <r_epik_Ionization_Penalty_Neutral>  (350) 
2.56281e-05

>  <r_epik_State_Penalty>  (350) 
0.011207

>  <r_epik_Charging_Adjusted_Penalty>  (350) 
0.0255423

>  <i_epik_Tot_Q>  (350) 
1

>  <i_epik_Tot_abs_Q>  (350) 
1

>  <s_epik_Chemistry_Notes>  (350) 
This compound has an imine and may undergo hydrolysis. This compound contains an acetal/aminal-like group ( X-CH(R)-Y where X, Y are N, S, or O) that may be acid/base labile, releasing an aldehyde.

>  <s_lp_Force_Field>  (350) 
OPLS3e

>  <r_lp_Energy>  (350) 
8.33587

>  <b_lp_Chiralities_Consistent>  (350) 
1

>  <s_lp_Variant>  (350) 
108:0-1

>  <s_i_glide_gridfile>  (350) 
pfpi4k_grid

>  <i_i_glide_lignum>  (350) 
27

>  <i_i_glide_rotatable_bonds>  (350) 
1

>  <r_i_docking_score>  (350) 
-4.7074

>  <r_i_glide_ligand_efficiency>  (350) 
-0.392283

>  <r_i_glide_ligand_efficiency_sa>  (350) 
-0.898104

>  <r_i_glide_ligand_efficiency_ln>  (350) 
-1.3508

>  <r_i_glide_gscore>  (350) 
-4.7074

>  <r_i_glide_lipo>  (350) 
-0.154247

>  <r_i_glide_hbond>  (350) 
-0.32

>  <r_i_glide_metal>  (350) 
-0

>  <r_i_glide_rewards>  (350) 
-2.49745

>  <r_i_glide_evdw>  (350) 
-11.5173

>  <r_i_glide_ecoul>  (350) 
-7.73226

>  <r_i_glide_erotb>  (350) 
0

>  <r_i_glide_esite>  (350) 
0

>  <r_i_glide_emodel>  (350) 
-23.5076

>  <r_i_glide_energy>  (350) 
-19.2496

>  <r_i_glide_einternal>  (350) 
0.0319027

>  <r_i_glide_intrahb_reward>  (350) 
-0

>  <i_i_glide_confnum>  (350) 
1

>  <i_i_glide_posenum>  (350) 
4

>  <r_i_glide_eff_state_penalty>  (350) 
0

>  <ligand_id>  (350) 
108

>  <original_smiles>  (350) 
CC1=NN2CN(C)CC2C(O)C1

>  <smiles>  (350) 
[H]OC1([H])C([H])([H])C(C([H])([H])[H])=NN2C1([H])C([H])([H])[N+]([H])(C([H])([H])[H])C2([H])[H]

$$$$
108:0:1
     RDKit          3D

 28 29  0  0  1  0  0  0  0  0999 V2000
    5.4764   -3.1383    1.2476 C   0  0  0  0  0  0  0  0  0  0  0  0
    4.7346   -3.3573   -0.0409 C   0  0  0  0  0  0  0  0  0  0  0  0
    5.0586   -2.6486   -1.0757 N   0  0  0  0  0  0  0  0  0  0  0  0
    4.4246   -2.8092   -2.2811 N   0  0  0  0  0  0  0  0  0  0  0  0
    4.6094   -1.7066   -3.2016 C   0  0  0  0  0  0  0  0  0  0  0  0
    3.2993   -1.5731   -3.8868 N   0  0  2  0  0  0  0  0  0  0  0  0
    2.9377   -0.1816   -4.2230 C   0  0  0  0  0  0  0  0  0  0  0  0
    2.2909   -2.3053   -3.0886 C   0  0  0  0  0  0  0  0  0  0  0  0
    3.0745   -3.3718   -2.3374 C   0  0  2  0  0  0  0  0  0  0  0  0
    2.4794   -3.7454   -0.9606 C   0  0  1  0  0  0  0  0  0  0  0  0
    1.4144   -4.6563   -1.1240 O   0  0  0  0  0  0  0  0  0  0  0  0
    3.5883   -4.3348   -0.0873 C   0  0  0  0  0  0  0  0  0  0  0  0
    5.3541   -3.9709    1.9372 H   0  0  0  0  0  0  0  0  0  0  0  0
    5.0759   -2.2565    1.7412 H   0  0  0  0  0  0  0  0  0  0  0  0
    6.5436   -2.9738    1.1003 H   0  0  0  0  0  0  0  0  0  0  0  0
    4.8693   -0.8036   -2.6451 H   0  0  0  0  0  0  0  0  0  0  0  0
    5.4052   -1.9616   -3.8922 H   0  0  0  0  0  0  0  0  0  0  0  0
    2.8646    0.4044   -3.3108 H   0  0  0  0  0  0  0  0  0  0  0  0
    1.9782   -0.1275   -4.7453 H   0  0  0  0  0  0  0  0  0  0  0  0
    3.6872    0.2883   -4.8626 H   0  0  0  0  0  0  0  0  0  0  0  0
    1.8790   -1.6221   -2.3628 H   0  0  0  0  0  0  0  0  0  0  0  0
    1.4836   -2.7157   -3.6989 H   0  0  0  0  0  0  0  0  0  0  0  0
    3.1537   -4.2406   -2.9857 H   0  0  0  0  0  0  0  0  0  0  0  0
    2.1184   -2.8533   -0.4459 H   0  0  0  0  0  0  0  0  0  0  0  0
    1.7395   -5.2851   -1.7631 H   0  0  0  0  0  0  0  0  0  0  0  0
    3.9280   -5.3011   -0.4608 H   0  0  0  0  0  0  0  0  0  0  0  0
    3.2082   -4.5063    0.9187 H   0  0  0  0  0  0  0  0  0  0  0  0
    3.3305   -2.0846   -4.7538 H   0  0  0  0  0  0  0  0  0  0  0  0
  1  2  1  0
  1 13  1  0
  1 14  1  0
  1 15  1  0
  2 12  1  0
  2  3  2  0
  3  4  1  0
  4  9  1  0
  4  5  1  0
  5  6  1  0
  5 16  1  0
  5 17  1  0
  6  7  1  0
  6  8  1  0
  6 28  1  6
  7 18  1  0
  7 19  1  0
  7 20  1  0
  8  9  1  0
  8 21  1  0
  8 22  1  0
  9 10  1  0
  9 23  1  6
 10 11  1  0
 10 12  1  0
 10 24  1  1
 11 25  1  0
 12 26  1  0
 12 27  1  0
M  CHG  1   6   1
M  END
>  <i_m_ct_stereo_status>  (351) 
1

>  <s_m_source_file>  (351) 
/var/tmp/pbs.5076255.sched01/tmpsouvlwkc/11751gt6aqu.sdf

>  <i_m_source_file_index>  (351) 
27

>  <i_lp_mmshare_version>  (351) 
48012

>  <i_f3d_flags>  (351) 
0

>  <s_epik_input>  (351) 
W0NIM11DKD1OMSlbQ0gyXVtDQEhdKFtPSF0pW0NASF0oTjEyKVtDSDJdTihbQ0gyXTIpW0NIM10=

>  <s_epik_cmdline>  (351) 
J2VwaWtfcHl0aG9uJywgJy1waHQnLCAnMi4wJywgJy1waCcsICc3LjAnLCAnLXRuJywgJzgnLCAnLW1hJywgJzIwMCcsICctaW1hZScsICc8aW5maWxlLm1hZT4nLCAnLW9tYWUnLCAnPG91dGZpbGUubWFlPic=

>  <r_epik_Ionization_Penalty>  (351) 
0.0143609

>  <r_epik_Ionization_Penalty_Charging>  (351) 
0.0143353

>  <r_epik_Ionization_Penalty_Neutral>  (351) 
2.56281e-05

>  <r_epik_State_Penalty>  (351) 
0.011207

>  <r_epik_Charging_Adjusted_Penalty>  (351) 
0.0255423

>  <i_epik_Tot_Q>  (351) 
1

>  <i_epik_Tot_abs_Q>  (351) 
1

>  <s_epik_Chemistry_Notes>  (351) 
This compound has an imine and may undergo hydrolysis. This compound contains an acetal/aminal-like group ( X-CH(R)-Y where X, Y are N, S, or O) that may be acid/base labile, releasing an aldehyde.

>  <s_lp_Force_Field>  (351) 
OPLS3e

>  <r_lp_Energy>  (351) 
8.33587

>  <b_lp_Chiralities_Consistent>  (351) 
1

>  <s_lp_Variant>  (351) 
108:0-1

>  <s_i_glide_gridfile>  (351) 
pfpi4k_grid

>  <i_i_glide_lignum>  (351) 
27

>  <i_i_glide_rotatable_bonds>  (351) 
1

>  <r_i_docking_score>  (351) 
-4.52087

>  <r_i_glide_ligand_efficiency>  (351) 
-0.376739

>  <r_i_glide_ligand_efficiency_sa>  (351) 
-0.862517

>  <r_i_glide_ligand_efficiency_ln>  (351) 
-1.29727

>  <r_i_glide_gscore>  (351) 
-4.52087

>  <r_i_glide_lipo>  (351) 
-0.263834

>  <r_i_glide_hbond>  (351) 
-0.324527

>  <r_i_glide_metal>  (351) 
-0

>  <r_i_glide_rewards>  (351) 
-2.38854

>  <r_i_glide_evdw>  (351) 
-8.28759

>  <r_i_glide_ecoul>  (351) 
-7.53057

>  <r_i_glide_erotb>  (351) 
0

>  <r_i_glide_esite>  (351) 
0

>  <r_i_glide_emodel>  (351) 
-20.1818

>  <r_i_glide_energy>  (351) 
-15.8182

>  <r_i_glide_einternal>  (351) 
0.275002

>  <r_i_glide_intrahb_reward>  (351) 
-0

>  <i_i_glide_confnum>  (351) 
2

>  <i_i_glide_posenum>  (351) 
24

>  <r_i_glide_eff_state_penalty>  (351) 
0

>  <ligand_id>  (351) 
108

>  <original_smiles>  (351) 
CC1=NN2CN(C)CC2C(O)C1

>  <smiles>  (351) 
[H]OC1([H])C([H])([H])C(C([H])([H])[H])=NN2C1([H])C([H])([H])[N+]([H])(C([H])([H])[H])C2([H])[H]

$$$$
108:0:2
     RDKit          3D

 28 29  0  0  1  0  0  0  0  0999 V2000
    4.6354   -1.8066    0.7947 C   0  0  0  0  0  0  0  0  0  0  0  0
    4.7632   -1.8233   -0.6942 C   0  0  0  0  0  0  0  0  0  0  0  0
    4.6204   -0.7119   -1.3416 N   0  0  0  0  0  0  0  0  0  0  0  0
    4.7023   -0.6556   -2.7105 N   0  0  0  0  0  0  0  0  0  0  0  0
    4.1817    0.5356   -3.3373 C   0  0  0  0  0  0  0  0  0  0  0  0
    3.5804    0.0817   -4.6008 N   0  0  2  0  0  0  0  0  0  0  0  0
    2.3504    0.7979   -4.9869 C   0  0  0  0  0  0  0  0  0  0  0  0
    3.3853   -1.3770   -4.4706 C   0  0  0  0  0  0  0  0  0  0  0  0
    4.4594   -1.8441   -3.4988 C   0  0  2  0  0  0  0  0  0  0  0  0
    4.1301   -3.1042   -2.7056 C   0  0  1  0  0  0  0  0  0  0  0  0
    4.3972   -4.2168   -3.5359 O   0  0  0  0  0  0  0  0  0  0  0  0
    4.9704   -3.1377   -1.4259 C   0  0  0  0  0  0  0  0  0  0  0  0
    5.0663   -2.6904    1.2557 H   0  0  0  0  0  0  0  0  0  0  0  0
    3.5819   -1.7852    1.0540 H   0  0  0  0  0  0  0  0  0  0  0  0
    5.0981   -0.9251    1.2467 H   0  0  0  0  0  0  0  0  0  0  0  0
    3.4168    0.9169   -2.7230 H   0  0  0  0  0  0  0  0  0  0  0  0
    4.8966    1.3457   -3.4444 H   0  0  0  0  0  0  0  0  0  0  0  0
    1.5743    0.6815   -4.2241 H   0  0  0  0  0  0  0  0  0  0  0  0
    1.9733    0.3822   -5.8933 H   0  0  0  0  0  0  0  0  0  0  0  0
    2.5138    1.8740   -5.1091 H   0  0  0  0  0  0  0  0  0  0  0  0
    2.3832   -1.6001   -4.0766 H   0  0  0  0  0  0  0  0  0  0  0  0
    3.4152   -1.8451   -5.4474 H   0  0  0  0  0  0  0  0  0  0  0  0
    5.4142   -2.0397   -3.9630 H   0  0  0  0  0  0  0  0  0  0  0  0
    3.0700   -3.0944   -2.4241 H   0  0  0  0  0  0  0  0  0  0  0  0
    3.9261   -4.9567   -3.1578 H   0  0  0  0  0  0  0  0  0  0  0  0
    6.0292   -3.2801   -1.6467 H   0  0  0  0  0  0  0  0  0  0  0  0
    4.6618   -3.9615   -0.7943 H   0  0  0  0  0  0  0  0  0  0  0  0
    4.2419    0.2421   -5.3460 H   0  0  0  0  0  0  0  0  0  0  0  0
  1  2  1  0
  1 13  1  0
  1 14  1  0
  1 15  1  0
  2 12  1  0
  2  3  2  0
  3  4  1  0
  4  9  1  0
  4  5  1  0
  5  6  1  0
  5 16  1  0
  5 17  1  0
  6  7  1  0
  6  8  1  0
  6 28  1  6
  7 18  1  0
  7 19  1  0
  7 20  1  0
  8  9  1  0
  8 21  1  0
  8 22  1  0
  9 10  1  0
  9 23  1  6
 10 11  1  0
 10 12  1  0
 10 24  1  1
 11 25  1  0
 12 26  1  0
 12 27  1  0
M  CHG  1   6   1
M  END
>  <i_m_ct_stereo_status>  (352) 
1

>  <s_m_source_file>  (352) 
/var/tmp/pbs.5076255.sched01/tmpsouvlwkc/11751gt6aqu.sdf

>  <i_m_source_file_index>  (352) 
27

>  <i_lp_mmshare_version>  (352) 
48012

>  <i_f3d_flags>  (352) 
0

>  <s_epik_input>  (352) 
W0NIM11DKD1OMSlbQ0gyXVtDQEhdKFtPSF0pW0NASF0oTjEyKVtDSDJdTihbQ0gyXTIpW0NIM10=

>  <s_epik_cmdline>  (352) 
J2VwaWtfcHl0aG9uJywgJy1waHQnLCAnMi4wJywgJy1waCcsICc3LjAnLCAnLXRuJywgJzgnLCAnLW1hJywgJzIwMCcsICctaW1hZScsICc8aW5maWxlLm1hZT4nLCAnLW9tYWUnLCAnPG91dGZpbGUubWFlPic=

>  <r_epik_Ionization_Penalty>  (352) 
0.0143609

>  <r_epik_Ionization_Penalty_Charging>  (352) 
0.0143353

>  <r_epik_Ionization_Penalty_Neutral>  (352) 
2.56281e-05

>  <r_epik_State_Penalty>  (352) 
0.011207

>  <r_epik_Charging_Adjusted_Penalty>  (352) 
0.0255423

>  <i_epik_Tot_Q>  (352) 
1

>  <i_epik_Tot_abs_Q>  (352) 
1

>  <s_epik_Chemistry_Notes>  (352) 
This compound has an imine and may undergo hydrolysis. This compound contains an acetal/aminal-like group ( X-CH(R)-Y where X, Y are N, S, or O) that may be acid/base labile, releasing an aldehyde.

>  <s_lp_Force_Field>  (352) 
OPLS3e

>  <r_lp_Energy>  (352) 
8.33587

>  <b_lp_Chiralities_Consistent>  (352) 
1

>  <s_lp_Variant>  (352) 
108:0-1

>  <s_i_glide_gridfile>  (352) 
pfpi4k_grid

>  <i_i_glide_lignum>  (352) 
27

>  <i_i_glide_rotatable_bonds>  (352) 
1

>  <r_i_docking_score>  (352) 
-3.72382

>  <r_i_glide_ligand_efficiency>  (352) 
-0.310318

>  <r_i_glide_ligand_efficiency_sa>  (352) 
-0.710451

>  <r_i_glide_ligand_efficiency_ln>  (352) 
-1.06856

>  <r_i_glide_gscore>  (352) 
-3.72382

>  <r_i_glide_lipo>  (352) 
-0.160778

>  <r_i_glide_hbond>  (352) 
-0.32

>  <r_i_glide_metal>  (352) 
-0

>  <r_i_glide_rewards>  (352) 
-2.24842

>  <r_i_glide_evdw>  (352) 
0.104515

>  <r_i_glide_ecoul>  (352) 
-6.16627

>  <r_i_glide_erotb>  (352) 
0

>  <r_i_glide_esite>  (352) 
-0.0749078

>  <r_i_glide_emodel>  (352) 
-9.32468

>  <r_i_glide_energy>  (352) 
-6.06176

>  <r_i_glide_einternal>  (352) 
0.571923

>  <r_i_glide_intrahb_reward>  (352) 
-0

>  <i_i_glide_confnum>  (352) 
2

>  <i_i_glide_posenum>  (352) 
12

>  <r_i_glide_eff_state_penalty>  (352) 
0

>  <ligand_id>  (352) 
108

>  <original_smiles>  (352) 
CC1=NN2CN(C)CC2C(O)C1

>  <smiles>  (352) 
[H]OC1([H])C([H])([H])C(C([H])([H])[H])=NN2C1([H])C([H])([H])[N+]([H])(C([H])([H])[H])C2([H])[H]

$$$$
108:1:0
     RDKit          3D

 27 28  0  0  1  0  0  0  0  0999 V2000
    3.8056   -3.1594   -3.9045 C   0  0  0  0  0  0  0  0  0  0  0  0
    4.3460   -2.5622   -2.6371 C   0  0  0  0  0  0  0  0  0  0  0  0
    5.5905   -2.7393   -2.3461 N   0  0  0  0  0  0  0  0  0  0  0  0
    6.1616   -2.2643   -1.1870 N   0  0  0  0  0  0  0  0  0  0  0  0
    7.2435   -3.1046   -0.7145 C   0  0  0  0  0  0  0  0  0  0  0  0
    6.6604   -3.7392    0.4604 N   0  0  0  0  0  0  0  0  0  0  0  0
    7.6464   -4.3738    1.3171 C   0  0  0  0  0  0  0  0  0  0  0  0
    5.9068   -2.6685    1.1186 C   0  0  0  0  0  0  0  0  0  0  0  0
    5.2939   -1.8951   -0.0597 C   0  0  2  0  0  0  0  0  0  0  0  0
    3.8059   -2.2063   -0.2777 C   0  0  1  0  0  0  0  0  0  0  0  0
    3.0203   -1.4644    0.6252 O   0  0  0  0  0  0  0  0  0  0  0  0
    3.4171   -1.8439   -1.7114 C   0  0  0  0  0  0  0  0  0  0  0  0
    2.8879   -2.6642   -4.2246 H   0  0  0  0  0  0  0  0  0  0  0  0
    3.5660   -4.2070   -3.7387 H   0  0  0  0  0  0  0  0  0  0  0  0
    4.5355   -3.1105   -4.7032 H   0  0  0  0  0  0  0  0  0  0  0  0
    7.5639   -3.8194   -1.4716 H   0  0  0  0  0  0  0  0  0  0  0  0
    8.0939   -2.4750   -0.4469 H   0  0  0  0  0  0  0  0  0  0  0  0
    7.1505   -4.8094    2.1852 H   0  0  0  0  0  0  0  0  0  0  0  0
    8.3978   -3.6642    1.6662 H   0  0  0  0  0  0  0  0  0  0  0  0
    8.1553   -5.1769    0.7831 H   0  0  0  0  0  0  0  0  0  0  0  0
    5.1646   -3.0409    1.8291 H   0  0  0  0  0  0  0  0  0  0  0  0
    6.5981   -2.0086    1.6460 H   0  0  0  0  0  0  0  0  0  0  0  0
    5.4011   -0.8208    0.1027 H   0  0  0  0  0  0  0  0  0  0  0  0
    3.6226   -3.2758   -0.1351 H   0  0  0  0  0  0  0  0  0  0  0  0
    2.1485   -1.3600    0.2405 H   0  0  0  0  0  0  0  0  0  0  0  0
    3.4797   -0.7632   -1.8767 H   0  0  0  0  0  0  0  0  0  0  0  0
    2.3899   -2.1487   -1.9116 H   0  0  0  0  0  0  0  0  0  0  0  0
  1  2  1  0
  1 13  1  0
  1 14  1  0
  1 15  1  0
  2 12  1  0
  2  3  2  0
  3  4  1  0
  4  9  1  0
  4  5  1  0
  5  6  1  0
  5 16  1  0
  5 17  1  0
  6  7  1  0
  6  8  1  0
  7 18  1  0
  7 19  1  0
  7 20  1  0
  8  9  1  0
  8 21  1  0
  8 22  1  0
  9 10  1  0
  9 23  1  1
 10 11  1  0
 10 12  1  0
 10 24  1  1
 11 25  1  0
 12 26  1  0
 12 27  1  0
M  END
>  <i_m_ct_stereo_status>  (353) 
1

>  <s_m_source_file>  (353) 
/var/tmp/pbs.5076255.sched01/tmpsouvlwkc/11751gt6aqu.sdf

>  <i_m_source_file_index>  (353) 
28

>  <i_lp_mmshare_version>  (353) 
48012

>  <i_f3d_flags>  (353) 
0

>  <s_epik_input>  (353) 
W0NIM11DKD1OMSlbQ0gyXVtDQEhdKFtPSF0pW0NASF0oTjEyKVtDSDJdTihbQ0gyXTIpW0NIM10=

>  <s_epik_cmdline>  (353) 
J2VwaWtfcHl0aG9uJywgJy1waHQnLCAnMi4wJywgJy1waCcsICc3LjAnLCAnLXRuJywgJzgnLCAnLW1hJywgJzIwMCcsICctaW1hZScsICc8aW5maWxlLm1hZT4nLCAnLW9tYWUnLCAnPG91dGZpbGUubWFlPic=

>  <r_lp_tautomer_probability>  (353) 
1

>  <r_epik_Ionization_Penalty>  (353) 
2.21296

>  <r_epik_Ionization_Penalty_Charging>  (353) 
0

>  <r_epik_Ionization_Penalty_Neutral>  (353) 
2.21296

>  <r_epik_State_Penalty>  (353) 
2.35645

>  <r_epik_Charging_Adjusted_Penalty>  (353) 
2.35645

>  <i_epik_Tot_Q>  (353) 
0

>  <i_epik_Tot_abs_Q>  (353) 
0

>  <s_epik_Chemistry_Notes>  (353) 
This compound has an imine and may undergo hydrolysis. This compound contains an acetal/aminal-like group ( X-CH(R)-Y where X, Y are N, S, or O) that may be acid/base labile, releasing an aldehyde.

>  <s_lp_Force_Field>  (353) 
OPLS3e

>  <r_lp_Energy>  (353) 
7.47905

>  <b_lp_Chiralities_Consistent>  (353) 
1

>  <s_lp_Variant>  (353) 
108:0-2

>  <s_i_glide_gridfile>  (353) 
pfpi4k_grid

>  <i_i_glide_lignum>  (353) 
28

>  <i_i_glide_rotatable_bonds>  (353) 
1

>  <r_i_docking_score>  (353) 
-4.39245

>  <r_i_glide_ligand_efficiency>  (353) 
-0.366038

>  <r_i_glide_ligand_efficiency_sa>  (353) 
-0.838017

>  <r_i_glide_ligand_efficiency_ln>  (353) 
-1.26042

>  <r_i_glide_gscore>  (353) 
-4.39245

>  <r_i_glide_lipo>  (353) 
-0.295928

>  <r_i_glide_hbond>  (353) 
-0.16

>  <r_i_glide_metal>  (353) 
-0

>  <r_i_glide_rewards>  (353) 
-2.49091

>  <r_i_glide_evdw>  (353) 
-16.2015

>  <r_i_glide_ecoul>  (353) 
-3.95118

>  <r_i_glide_erotb>  (353) 
0

>  <r_i_glide_esite>  (353) 
-0.0428613

>  <r_i_glide_emodel>  (353) 
-25.2121

>  <r_i_glide_energy>  (353) 
-20.1527

>  <r_i_glide_einternal>  (353) 
0.848121

>  <r_i_glide_intrahb_reward>  (353) 
-0

>  <i_i_glide_confnum>  (353) 
1

>  <i_i_glide_posenum>  (353) 
6

>  <r_i_glide_eff_state_penalty>  (353) 
0

>  <ligand_id>  (353) 
108

>  <original_smiles>  (353) 
CC1=NN2CN(C)CC2C(O)C1

>  <smiles>  (353) 
[H]OC1([H])C([H])([H])C(C([H])([H])[H])=NN2C([H])([H])N(C([H])([H])[H])C([H])([H])C21[H]

$$$$
108:1:1
     RDKit          3D

 27 28  0  0  1  0  0  0  0  0999 V2000
    3.4368   -2.7933   -3.6086 C   0  0  0  0  0  0  0  0  0  0  0  0
    4.2921   -2.4825   -2.4167 C   0  0  0  0  0  0  0  0  0  0  0  0
    5.0845   -3.3976   -1.9650 N   0  0  0  0  0  0  0  0  0  0  0  0
    5.8654   -3.2249   -0.8404 N   0  0  0  0  0  0  0  0  0  0  0  0
    6.0699   -4.4521   -0.0983 C   0  0  0  0  0  0  0  0  0  0  0  0
    5.2716   -4.2469    1.1009 N   0  0  0  0  0  0  0  0  0  0  0  0
    5.5920   -5.1775    2.1710 C   0  0  0  0  0  0  0  0  0  0  0  0
    5.5075   -2.8460    1.4563 C   0  0  0  0  0  0  0  0  0  0  0  0
    5.5516   -2.1351    0.0973 C   0  0  2  0  0  0  0  0  0  0  0  0
    4.2552   -1.3766   -0.2201 C   0  0  1  0  0  0  0  0  0  0  0  0
    4.2285   -0.1506    0.4812 O   0  0  0  0  0  0  0  0  0  0  0  0
    4.1584   -1.1523   -1.7281 C   0  0  0  0  0  0  0  0  0  0  0  0
    3.1059   -1.8863   -4.1138 H   0  0  0  0  0  0  0  0  0  0  0  0
    2.5452   -3.3321   -3.2864 H   0  0  0  0  0  0  0  0  0  0  0  0
    3.9623   -3.4223   -4.3258 H   0  0  0  0  0  0  0  0  0  0  0  0
    5.7518   -5.3214   -0.6699 H   0  0  0  0  0  0  0  0  0  0  0  0
    7.1297   -4.5493    0.1329 H   0  0  0  0  0  0  0  0  0  0  0  0
    4.9679   -4.9672    3.0419 H   0  0  0  0  0  0  0  0  0  0  0  0
    6.6417   -5.1146    2.4707 H   0  0  0  0  0  0  0  0  0  0  0  0
    5.3832   -6.2002    1.8496 H   0  0  0  0  0  0  0  0  0  0  0  0
    4.7473   -2.4490    2.1344 H   0  0  0  0  0  0  0  0  0  0  0  0
    6.4835   -2.7519    1.9371 H   0  0  0  0  0  0  0  0  0  0  0  0
    6.3844   -1.4342    0.0814 H   0  0  0  0  0  0  0  0  0  0  0  0
    3.3978   -1.9801    0.0969 H   0  0  0  0  0  0  0  0  0  0  0  0
    4.7888    0.4724    0.0375 H   0  0  0  0  0  0  0  0  0  0  0  0
    4.9403   -0.4789   -2.0821 H   0  0  0  0  0  0  0  0  0  0  0  0
    3.1986   -0.6959   -1.9700 H   0  0  0  0  0  0  0  0  0  0  0  0
  1  2  1  0
  1 13  1  0
  1 14  1  0
  1 15  1  0
  2 12  1  0
  2  3  2  0
  3  4  1  0
  4  9  1  0
  4  5  1  0
  5  6  1  0
  5 16  1  0
  5 17  1  0
  6  7  1  0
  6  8  1  0
  7 18  1  0
  7 19  1  0
  7 20  1  0
  8  9  1  0
  8 21  1  0
  8 22  1  0
  9 10  1  0
  9 23  1  1
 10 11  1  0
 10 12  1  0
 10 24  1  1
 11 25  1  0
 12 26  1  0
 12 27  1  0
M  END
>  <i_m_ct_stereo_status>  (354) 
1

>  <s_m_source_file>  (354) 
/var/tmp/pbs.5076255.sched01/tmpsouvlwkc/11751gt6aqu.sdf

>  <i_m_source_file_index>  (354) 
28

>  <i_lp_mmshare_version>  (354) 
48012

>  <i_f3d_flags>  (354) 
0

>  <s_epik_input>  (354) 
W0NIM11DKD1OMSlbQ0gyXVtDQEhdKFtPSF0pW0NASF0oTjEyKVtDSDJdTihbQ0gyXTIpW0NIM10=

>  <s_epik_cmdline>  (354) 
J2VwaWtfcHl0aG9uJywgJy1waHQnLCAnMi4wJywgJy1waCcsICc3LjAnLCAnLXRuJywgJzgnLCAnLW1hJywgJzIwMCcsICctaW1hZScsICc8aW5maWxlLm1hZT4nLCAnLW9tYWUnLCAnPG91dGZpbGUubWFlPic=

>  <r_lp_tautomer_probability>  (354) 
1

>  <r_epik_Ionization_Penalty>  (354) 
2.21296

>  <r_epik_Ionization_Penalty_Charging>  (354) 
0

>  <r_epik_Ionization_Penalty_Neutral>  (354) 
2.21296

>  <r_epik_State_Penalty>  (354) 
2.35645

>  <r_epik_Charging_Adjusted_Penalty>  (354) 
2.35645

>  <i_epik_Tot_Q>  (354) 
0

>  <i_epik_Tot_abs_Q>  (354) 
0

>  <s_epik_Chemistry_Notes>  (354) 
This compound has an imine and may undergo hydrolysis. This compound contains an acetal/aminal-like group ( X-CH(R)-Y where X, Y are N, S, or O) that may be acid/base labile, releasing an aldehyde.

>  <s_lp_Force_Field>  (354) 
OPLS3e

>  <r_lp_Energy>  (354) 
7.47905

>  <b_lp_Chiralities_Consistent>  (354) 
1

>  <s_lp_Variant>  (354) 
108:0-2

>  <s_i_glide_gridfile>  (354) 
pfpi4k_grid

>  <i_i_glide_lignum>  (354) 
28

>  <i_i_glide_rotatable_bonds>  (354) 
1

>  <r_i_docking_score>  (354) 
-4.11331

>  <r_i_glide_ligand_efficiency>  (354) 
-0.342776

>  <r_i_glide_ligand_efficiency_sa>  (354) 
-0.784761

>  <r_i_glide_ligand_efficiency_ln>  (354) 
-1.18032

>  <r_i_glide_gscore>  (354) 
-4.11331

>  <r_i_glide_lipo>  (354) 
-0.334326

>  <r_i_glide_hbond>  (354) 
-0.316897

>  <r_i_glide_metal>  (354) 
-0

>  <r_i_glide_rewards>  (354) 
-2.51526

>  <r_i_glide_evdw>  (354) 
-16.2699

>  <r_i_glide_ecoul>  (354) 
-0.888899

>  <r_i_glide_erotb>  (354) 
0

>  <r_i_glide_esite>  (354) 
0

>  <r_i_glide_emodel>  (354) 
-22.1468

>  <r_i_glide_energy>  (354) 
-17.1588

>  <r_i_glide_einternal>  (354) 
0.271843

>  <r_i_glide_intrahb_reward>  (354) 
-0

>  <i_i_glide_confnum>  (354) 
1

>  <i_i_glide_posenum>  (354) 
23

>  <r_i_glide_eff_state_penalty>  (354) 
0

>  <ligand_id>  (354) 
108

>  <original_smiles>  (354) 
CC1=NN2CN(C)CC2C(O)C1

>  <smiles>  (354) 
[H]OC1([H])C([H])([H])C(C([H])([H])[H])=NN2C([H])([H])N(C([H])([H])[H])C([H])([H])C21[H]

$$$$
108:1:2
     RDKit          3D

 27 28  0  0  1  0  0  0  0  0999 V2000
    2.6649   -3.1091   -2.2511 C   0  0  0  0  0  0  0  0  0  0  0  0
    3.8269   -2.4469   -1.5798 C   0  0  0  0  0  0  0  0  0  0  0  0
    5.0117   -2.6148   -2.0673 N   0  0  0  0  0  0  0  0  0  0  0  0
    6.1404   -2.0853   -1.4734 N   0  0  0  0  0  0  0  0  0  0  0  0
    7.3182   -2.9145   -1.6704 C   0  0  0  0  0  0  0  0  0  0  0  0
    7.5495   -3.4439   -0.3321 N   0  0  0  0  0  0  0  0  0  0  0  0
    8.8763   -4.0117   -0.1609 C   0  0  0  0  0  0  0  0  0  0  0  0
    7.2814   -2.3221    0.5645 C   0  0  0  0  0  0  0  0  0  0  0  0
    6.0786   -1.6258   -0.0806 C   0  0  2  0  0  0  0  0  0  0  0  0
    4.7553   -1.9395    0.6423 C   0  0  1  0  0  0  0  0  0  0  0  0
    4.6199   -1.1481    1.8080 O   0  0  0  0  0  0  0  0  0  0  0  0
    3.5976   -1.6781   -0.3118 C   0  0  0  0  0  0  0  0  0  0  0  0
    1.7229   -2.6298   -2.0132 H   0  0  0  0  0  0  0  0  0  0  0  0
    2.5666   -4.1255   -1.8794 H   0  0  0  0  0  0  0  0  0  0  0  0
    2.7748   -3.1319   -3.3355 H   0  0  0  0  0  0  0  0  0  0  0  0
    7.1511   -3.6813   -2.4170 H   0  0  0  0  0  0  0  0  0  0  0  0
    8.1463   -2.2885   -1.9978 H   0  0  0  0  0  0  0  0  0  0  0  0
    8.9862   -4.3940    0.8572 H   0  0  0  0  0  0  0  0  0  0  0  0
    9.6540   -3.2655   -0.3399 H   0  0  0  0  0  0  0  0  0  0  0  0
    9.0166   -4.8472   -0.8501 H   0  0  0  0  0  0  0  0  0  0  0  0
    7.0842   -2.6440    1.5869 H   0  0  0  0  0  0  0  0  0  0  0  0
    8.1356   -1.6416    0.5718 H   0  0  0  0  0  0  0  0  0  0  0  0
    6.2302   -0.5460   -0.0771 H   0  0  0  0  0  0  0  0  0  0  0  0
    4.7486   -2.9925    0.9312 H   0  0  0  0  0  0  0  0  0  0  0  0
    4.4910   -0.2469    1.5555 H   0  0  0  0  0  0  0  0  0  0  0  0
    3.5221   -0.6248   -0.5504 H   0  0  0  0  0  0  0  0  0  0  0  0
    2.6609   -1.9721    0.1574 H   0  0  0  0  0  0  0  0  0  0  0  0
  1  2  1  0
  1 13  1  0
  1 14  1  0
  1 15  1  0
  2 12  1  0
  2  3  2  0
  3  4  1  0
  4  9  1  0
  4  5  1  0
  5  6  1  0
  5 16  1  0
  5 17  1  0
  6  7  1  0
  6  8  1  0
  7 18  1  0
  7 19  1  0
  7 20  1  0
  8  9  1  0
  8 21  1  0
  8 22  1  0
  9 10  1  0
  9 23  1  6
 10 11  1  0
 10 12  1  0
 10 24  1  1
 11 25  1  0
 12 26  1  0
 12 27  1  0
M  END
>  <i_m_ct_stereo_status>  (355) 
1

>  <s_m_source_file>  (355) 
/var/tmp/pbs.5076255.sched01/tmpsouvlwkc/11751gt6aqu.sdf

>  <i_m_source_file_index>  (355) 
28

>  <i_lp_mmshare_version>  (355) 
48012

>  <i_f3d_flags>  (355) 
0

>  <s_epik_input>  (355) 
W0NIM11DKD1OMSlbQ0gyXVtDQEhdKFtPSF0pW0NASF0oTjEyKVtDSDJdTihbQ0gyXTIpW0NIM10=

>  <s_epik_cmdline>  (355) 
J2VwaWtfcHl0aG9uJywgJy1waHQnLCAnMi4wJywgJy1waCcsICc3LjAnLCAnLXRuJywgJzgnLCAnLW1hJywgJzIwMCcsICctaW1hZScsICc8aW5maWxlLm1hZT4nLCAnLW9tYWUnLCAnPG91dGZpbGUubWFlPic=

>  <r_lp_tautomer_probability>  (355) 
1

>  <r_epik_Ionization_Penalty>  (355) 
2.21296

>  <r_epik_Ionization_Penalty_Charging>  (355) 
0

>  <r_epik_Ionization_Penalty_Neutral>  (355) 
2.21296

>  <r_epik_State_Penalty>  (355) 
2.35645

>  <r_epik_Charging_Adjusted_Penalty>  (355) 
2.35645

>  <i_epik_Tot_Q>  (355) 
0

>  <i_epik_Tot_abs_Q>  (355) 
0

>  <s_epik_Chemistry_Notes>  (355) 
This compound has an imine and may undergo hydrolysis. This compound contains an acetal/aminal-like group ( X-CH(R)-Y where X, Y are N, S, or O) that may be acid/base labile, releasing an aldehyde.

>  <s_lp_Force_Field>  (355) 
OPLS3e

>  <r_lp_Energy>  (355) 
7.47905

>  <b_lp_Chiralities_Consistent>  (355) 
1

>  <s_lp_Variant>  (355) 
108:0-2

>  <s_i_glide_gridfile>  (355) 
pfpi4k_grid

>  <i_i_glide_lignum>  (355) 
28

>  <i_i_glide_rotatable_bonds>  (355) 
1

>  <r_i_docking_score>  (355) 
-3.55198

>  <r_i_glide_ligand_efficiency>  (355) 
-0.295999

>  <r_i_glide_ligand_efficiency_sa>  (355) 
-0.677667

>  <r_i_glide_ligand_efficiency_ln>  (355) 
-1.01925

>  <r_i_glide_gscore>  (355) 
-3.55198

>  <r_i_glide_lipo>  (355) 
-0.144137

>  <r_i_glide_hbond>  (355) 
0

>  <r_i_glide_metal>  (355) 
-0

>  <r_i_glide_rewards>  (355) 
-2.25

>  <r_i_glide_evdw>  (355) 
-16.3716

>  <r_i_glide_ecoul>  (355) 
-1.39753

>  <r_i_glide_erotb>  (355) 
0

>  <r_i_glide_esite>  (355) 
-0.129637

>  <r_i_glide_emodel>  (355) 
-22.1158

>  <r_i_glide_energy>  (355) 
-17.7691

>  <r_i_glide_einternal>  (355) 
0.114636

>  <r_i_glide_intrahb_reward>  (355) 
-0

>  <i_i_glide_confnum>  (355) 
1

>  <i_i_glide_posenum>  (355) 
29

>  <r_i_glide_eff_state_penalty>  (355) 
0

>  <ligand_id>  (355) 
108

>  <original_smiles>  (355) 
CC1=NN2CN(C)CC2C(O)C1

>  <smiles>  (355) 
[H]OC1([H])C([H])([H])C(C([H])([H])[H])=NN2C([H])([H])N(C([H])([H])[H])C([H])([H])C21[H]

$$$$
109:0:0
     RDKit          3D

 50 55  0  0  1  0  0  0  0  0999 V2000
    2.0525   -2.3588    3.9524 C   0  0  0  0  0  0  0  0  0  0  0  0
    2.6206   -3.2814    3.0233 O   0  0  0  0  0  0  0  0  0  0  0  0
    3.6464   -2.8015    2.1216 C   0  0  2  0  0  0  0  0  0  0  0  0
    2.8654   -1.8541    1.0010 C   0  0  1  0  0  0  0  0  0  0  0  0
    3.0289   -0.4341    0.9540 O   0  0  0  0  0  0  0  0  0  0  0  0
    2.5619    0.2994    2.0766 C   0  0  0  0  0  0  0  0  0  0  0  0
    3.2254   -2.5502   -0.3342 C   0  0  1  0  0  0  0  0  0  0  0  0
    2.5686   -3.9503    0.0190 C   0  0  0  0  0  0  0  0  0  0  0  0
    3.2221   -4.7684    0.8939 C   0  0  0  0  0  0  0  0  0  0  0  0
    2.7461   -6.1589    1.3011 C   0  0  0  0  0  0  0  0  0  0  0  0
    4.5030   -4.1243    1.4690 C   0  0  2  0  0  0  0  0  0  0  0  0
    5.0377   -4.8744    2.5447 O   0  0  0  0  0  0  0  0  0  0  0  0
    5.7653   -4.2796    0.2433 C   0  0  2  0  0  0  0  0  0  0  0  0
    6.9015   -3.4937   -0.6161 C   0  0  0  0  0  0  0  0  0  0  0  0
    6.2238   -2.5825   -1.8282 C   0  0  2  0  0  0  0  0  0  0  0  0
    5.3467   -1.3959   -1.4092 C   0  0  1  0  0  0  0  0  0  0  0  0
    4.1447   -1.1041   -2.2792 C   0  0  0  0  0  0  0  0  0  0  0  0
    3.5459   -2.4218   -1.9302 C   0  0  1  0  0  0  0  0  0  0  0  0
    4.9419   -3.2919   -2.1696 C   0  0  1  0  0  0  0  0  0  0  0  0
    5.0136   -4.2176   -3.2155 O   0  0  0  0  0  0  0  0  0  0  0  0
    4.9563   -3.6790   -0.7552 C   0  0  2  0  0  0  0  0  0  0  0  0
    4.7527   -2.2028   -0.2454 C   0  0  2  0  0  0  0  0  0  0  0  0
    5.6315   -1.3930    0.9102 C   0  0  0  0  0  0  0  0  0  0  0  0
    6.9871   -1.0324    0.7047 O   0  0  0  0  0  0  0  0  0  0  0  0
    1.2337   -2.8031    4.5229 H   0  0  0  0  0  0  0  0  0  0  0  0
    1.6616   -1.4770    3.4405 H   0  0  0  0  0  0  0  0  0  0  0  0
    2.8014   -2.0346    4.6774 H   0  0  0  0  0  0  0  0  0  0  0  0
    4.2490   -2.2298    2.8286 H   0  0  0  0  0  0  0  0  0  0  0  0
    1.7903   -1.9742    1.1389 H   0  0  0  0  0  0  0  0  0  0  0  0
    2.7020    1.3807    1.9298 H   0  0  0  0  0  0  0  0  0  0  0  0
    3.0957    0.0095    2.9761 H   0  0  0  0  0  0  0  0  0  0  0  0
    1.5044    0.1135    2.2154 H   0  0  0  0  0  0  0  0  0  0  0  0
    1.6615   -4.2478   -0.4840 H   0  0  0  0  0  0  0  0  0  0  0  0
    3.4926   -6.9173    1.0644 H   0  0  0  0  0  0  0  0  0  0  0  0
    1.8264   -6.4237    0.7848 H   0  0  0  0  0  0  0  0  0  0  0  0
    2.5464   -6.1930    2.3723 H   0  0  0  0  0  0  0  0  0  0  0  0
    5.4615   -5.6293    2.1698 H   0  0  0  0  0  0  0  0  0  0  0  0
    5.9132   -5.3475    0.0437 H   0  0  0  0  0  0  0  0  0  0  0  0
    7.6969   -3.0469   -0.0230 H   0  0  0  0  0  0  0  0  0  0  0  0
    7.5043   -4.2439   -1.1234 H   0  0  0  0  0  0  0  0  0  0  0  0
    6.8469   -2.4053   -2.7018 H   0  0  0  0  0  0  0  0  0  0  0  0
    5.8638   -0.4660   -1.2285 H   0  0  0  0  0  0  0  0  0  0  0  0
    3.5425   -0.2743   -1.9265 H   0  0  0  0  0  0  0  0  0  0  0  0
    4.3885   -0.9781   -3.3377 H   0  0  0  0  0  0  0  0  0  0  0  0
    2.7273   -2.7189   -2.5826 H   0  0  0  0  0  0  0  0  0  0  0  0
    4.2706   -4.8714   -3.0816 H   0  0  0  0  0  0  0  0  0  0  0  0
    4.3740   -4.5266   -1.1082 H   0  0  0  0  0  0  0  0  0  0  0  0
    5.2261   -0.3947    1.0748 H   0  0  0  0  0  0  0  0  0  0  0  0
    5.8174   -1.8799    1.8664 H   0  0  0  0  0  0  0  0  0  0  0  0
    7.2618   -0.3989    1.3780 H   0  0  0  0  0  0  0  0  0  0  0  0
  1  2  1  0
  1 25  1  0
  1 26  1  0
  1 27  1  0
  2  3  1  0
  3 11  1  0
  3  4  1  0
  3 28  1  1
  4  5  1  0
  4  7  1  0
  4 29  1  1
  5  6  1  0
  6 30  1  0
  6 31  1  0
  6 32  1  0
  7 18  1  0
  7 22  1  0
  7  8  1  6
  8  9  2  0
  8 33  1  0
  9 10  1  0
  9 11  1  0
 10 34  1  0
 10 35  1  0
 10 36  1  0
 11 12  1  1
 11 13  1  0
 12 37  1  0
 13 21  1  0
 13 14  1  0
 13 38  1  6
 14 15  1  0
 14 39  1  0
 14 40  1  0
 15 19  1  0
 15 16  1  0
 15 41  1  6
 16 22  1  0
 16 17  1  0
 16 42  1  1
 17 18  1  0
 17 43  1  0
 17 44  1  0
 18 19  1  0
 18 45  1  6
 19 20  1  6
 19 21  1  0
 20 46  1  0
 21 22  1  0
 21 47  1  6
 22 23  1  1
 23 24  1  0
 23 48  1  0
 23 49  1  0
 24 50  1  0
M  END
>  <i_m_ct_stereo_status>  (356) 
1

>  <s_m_source_file>  (356) 
/var/tmp/pbs.5076255.sched01/tmpsouvlwkc/11751gt6aqu.sdf

>  <i_m_source_file_index>  (356) 
29

>  <i_lp_mmshare_version>  (356) 
48012

>  <i_f3d_flags>  (356) 
1

>  <s_epik_input>  (356) 
W0NIM11PW0NAQEhdMVtDQEBIXShPW0NIM10pQyhbT0hdKShDKD1bQ0hdMilbQ0gzXSlbQ0BIXShbQ0gyXTMpW0NASF00W0NAQF01KFtDSDJdW09IXSlbQ0BIXShbQ0gyXTYpW0NAQEhdM1tDQEBdNChbQ0BIXTZDMTI1KVtPSF0=

>  <s_epik_cmdline>  (356) 
J2VwaWtfcHl0aG9uJywgJy1waHQnLCAnMi4wJywgJy1waCcsICc3LjAnLCAnLXRuJywgJzgnLCAnLW1hJywgJzIwMCcsICctaW1hZScsICc8aW5maWxlLm1hZT4nLCAnLW9tYWUnLCAnPG91dGZpbGUubWFlPic=

>  <r_lp_tautomer_probability>  (356) 
1

>  <r_epik_Ionization_Penalty>  (356) 
1.0437e-06

>  <r_epik_Ionization_Penalty_Charging>  (356) 
0

>  <r_epik_Ionization_Penalty_Neutral>  (356) 
1.0437e-06

>  <r_epik_State_Penalty>  (356) 
-0

>  <r_epik_Charging_Adjusted_Penalty>  (356) 
0

>  <i_epik_Tot_Q>  (356) 
0

>  <i_epik_Tot_abs_Q>  (356) 
0

>  <s_lp_Force_Field>  (356) 
OPLS3e

>  <r_lp_Energy>  (356) 
423.841

>  <b_lp_Chiralities_Consistent>  (356) 
1

>  <s_lp_Variant>  (356) 
109:0-1

>  <s_i_glide_gridfile>  (356) 
pfpi4k_grid

>  <i_i_glide_lignum>  (356) 
29

>  <i_i_glide_rotatable_bonds>  (356) 
6

>  <r_i_docking_score>  (356) 
-4.02103

>  <r_i_glide_ligand_efficiency>  (356) 
-0.167543

>  <r_i_glide_ligand_efficiency_sa>  (356) 
-0.483277

>  <r_i_glide_ligand_efficiency_ln>  (356) 
-0.962417

>  <r_i_glide_gscore>  (356) 
-4.02103

>  <r_i_glide_lipo>  (356) 
-0.5057

>  <r_i_glide_hbond>  (356) 
-0.593815

>  <r_i_glide_metal>  (356) 
-0

>  <r_i_glide_rewards>  (356) 
-1.12904

>  <r_i_glide_evdw>  (356) 
-17.0492

>  <r_i_glide_ecoul>  (356) 
-7.39107

>  <r_i_glide_erotb>  (356) 
0.168653

>  <r_i_glide_esite>  (356) 
0

>  <r_i_glide_emodel>  (356) 
-27.8881

>  <r_i_glide_energy>  (356) 
-24.4403

>  <r_i_glide_einternal>  (356) 
1.56066

>  <r_i_glide_intrahb_reward>  (356) 
-0

>  <i_i_glide_confnum>  (356) 
2

>  <i_i_glide_posenum>  (356) 
4

>  <r_i_glide_eff_state_penalty>  (356) 
0

>  <ligand_id>  (356) 
109

>  <original_smiles>  (356) 
COC1C(OC)C23C=C(C)C1(O)C1CC4C5CC2C4(O)C1C53CO

>  <smiles>  (356) 
[H]OC([H])([H])C12C3([H])C([H])([H])C4([H])C5(O[H])C3([H])C([H])([H])C([H])(C3(O[H])C(C([H])([H])[H])=C([H])C41C([H])(OC([H])([H])[H])C3([H])OC([H])([H])[H])C52[H]

$$$$
109:0:1
     RDKit          3D

 50 55  0  0  1  0  0  0  0  0999 V2000
    4.2964   -3.8255    3.8971 C   0  0  0  0  0  0  0  0  0  0  0  0
    3.4582   -3.4256    2.8220 O   0  0  0  0  0  0  0  0  0  0  0  0
    4.0885   -2.8323    1.6693 C   0  0  2  0  0  0  0  0  0  0  0  0
    2.8149   -2.0371    0.9536 C   0  0  1  0  0  0  0  0  0  0  0  0
    2.7161   -0.6187    1.0112 O   0  0  0  0  0  0  0  0  0  0  0  0
    2.6414   -0.0722    2.3168 C   0  0  0  0  0  0  0  0  0  0  0  0
    2.8249   -2.6012   -0.4808 C   0  0  1  0  0  0  0  0  0  0  0  0
    2.5299   -4.1134   -0.0203 C   0  0  0  0  0  0  0  0  0  0  0  0
    3.5152   -4.8175    0.5287 C   0  0  0  0  0  0  0  0  0  0  0  0
    3.4262   -6.2751    0.9771 C   0  0  0  0  0  0  0  0  0  0  0  0
    4.8414   -4.0141    0.7054 C   0  0  2  0  0  0  0  0  0  0  0  0
    5.8144   -4.6988    1.4605 O   0  0  0  0  0  0  0  0  0  0  0  0
    5.6007   -3.9453   -0.8727 C   0  0  2  0  0  0  0  0  0  0  0  0
    6.2980   -2.9687   -1.9820 C   0  0  0  0  0  0  0  0  0  0  0  0
    5.1516   -2.1306   -2.8394 C   0  0  2  0  0  0  0  0  0  0  0  0
    4.3227   -1.0944   -2.0813 C   0  0  1  0  0  0  0  0  0  0  0  0
    2.8797   -0.9790   -2.5374 C   0  0  0  0  0  0  0  0  0  0  0  0
    2.6086   -2.3765   -2.0923 C   0  0  1  0  0  0  0  0  0  0  0  0
    3.9498   -3.0000   -2.7987 C   0  0  1  0  0  0  0  0  0  0  0  0
    3.8220   -3.8715   -3.9080 O   0  0  0  0  0  0  0  0  0  0  0  0
    4.4588   -3.3921   -1.5135 C   0  0  2  0  0  0  0  0  0  0  0  0
    4.2355   -1.9923   -0.8523 C   0  0  2  0  0  0  0  0  0  0  0  0
    5.4036   -1.1832    0.0026 C   0  0  0  0  0  0  0  0  0  0  0  0
    5.1218    0.0665    0.6017 O   0  0  0  0  0  0  0  0  0  0  0  0
    3.6914   -3.9523    4.8008 H   0  0  0  0  0  0  0  0  0  0  0  0
    5.0517   -3.0728    4.1087 H   0  0  0  0  0  0  0  0  0  0  0  0
    4.7874   -4.7826    3.7123 H   0  0  0  0  0  0  0  0  0  0  0  0
    4.7666   -2.1037    2.0996 H   0  0  0  0  0  0  0  0  0  0  0  0
    1.8749   -2.3553    1.4279 H   0  0  0  0  0  0  0  0  0  0  0  0
    2.5536    1.0108    2.2356 H   0  0  0  0  0  0  0  0  0  0  0  0
    3.5443   -0.2904    2.8751 H   0  0  0  0  0  0  0  0  0  0  0  0
    1.7779   -0.4429    2.8716 H   0  0  0  0  0  0  0  0  0  0  0  0
    1.5498   -4.5524   -0.2419 H   0  0  0  0  0  0  0  0  0  0  0  0
    4.1448   -6.8992    0.4513 H   0  0  0  0  0  0  0  0  0  0  0  0
    2.4244   -6.6457    0.7677 H   0  0  0  0  0  0  0  0  0  0  0  0
    3.5965   -6.3495    2.0461 H   0  0  0  0  0  0  0  0  0  0  0  0
    6.4941   -4.0858    1.6927 H   0  0  0  0  0  0  0  0  0  0  0  0
    5.7406   -4.9761   -1.1935 H   0  0  0  0  0  0  0  0  0  0  0  0
    7.1194   -2.3462   -1.6128 H   0  0  0  0  0  0  0  0  0  0  0  0
    6.7664   -3.6247   -2.7122 H   0  0  0  0  0  0  0  0  0  0  0  0
    5.3831   -1.8762   -3.8689 H   0  0  0  0  0  0  0  0  0  0  0  0
    4.8078   -0.1184   -2.0254 H   0  0  0  0  0  0  0  0  0  0  0  0
    2.2802   -0.2535   -2.0027 H   0  0  0  0  0  0  0  0  0  0  0  0
    2.7667   -0.8409   -3.6163 H   0  0  0  0  0  0  0  0  0  0  0  0
    1.6710   -2.7992   -2.4789 H   0  0  0  0  0  0  0  0  0  0  0  0
    3.4433   -4.6911   -3.5852 H   0  0  0  0  0  0  0  0  0  0  0  0
    3.8911   -4.2938   -1.7143 H   0  0  0  0  0  0  0  0  0  0  0  0
    6.0053   -1.7902    0.6689 H   0  0  0  0  0  0  0  0  0  0  0  0
    6.1844   -0.8296   -0.6648 H   0  0  0  0  0  0  0  0  0  0  0  0
    5.0145    0.7058   -0.1056 H   0  0  0  0  0  0  0  0  0  0  0  0
  1  2  1  0
  1 25  1  0
  1 26  1  0
  1 27  1  0
  2  3  1  0
  3 11  1  0
  3  4  1  0
  3 28  1  1
  4  5  1  0
  4  7  1  0
  4 29  1  1
  5  6  1  0
  6 30  1  0
  6 31  1  0
  6 32  1  0
  7 18  1  0
  7 22  1  0
  7  8  1  1
  8  9  2  0
  8 33  1  0
  9 10  1  0
  9 11  1  0
 10 34  1  0
 10 35  1  0
 10 36  1  0
 11 12  1  1
 11 13  1  0
 12 37  1  0
 13 21  1  0
 13 14  1  0
 13 38  1  6
 14 15  1  0
 14 39  1  0
 14 40  1  0
 15 19  1  0
 15 16  1  0
 15 41  1  6
 16 22  1  0
 16 17  1  0
 16 42  1  1
 17 18  1  0
 17 43  1  0
 17 44  1  0
 18 19  1  0
 18 45  1  6
 19 20  1  6
 19 21  1  0
 20 46  1  0
 21 22  1  0
 21 47  1  1
 22 23  1  1
 23 24  1  0
 23 48  1  0
 23 49  1  0
 24 50  1  0
M  END
>  <i_m_ct_stereo_status>  (357) 
1

>  <s_m_source_file>  (357) 
/var/tmp/pbs.5076255.sched01/tmpsouvlwkc/11751gt6aqu.sdf

>  <i_m_source_file_index>  (357) 
29

>  <i_lp_mmshare_version>  (357) 
48012

>  <i_f3d_flags>  (357) 
1

>  <s_epik_input>  (357) 
W0NIM11PW0NAQEhdMVtDQEBIXShPW0NIM10pQyhbT0hdKShDKD1bQ0hdMilbQ0gzXSlbQ0BIXShbQ0gyXTMpW0NASF00W0NAQF01KFtDSDJdW09IXSlbQ0BIXShbQ0gyXTYpW0NAQEhdM1tDQEBdNChbQ0BIXTZDMTI1KVtPSF0=

>  <s_epik_cmdline>  (357) 
J2VwaWtfcHl0aG9uJywgJy1waHQnLCAnMi4wJywgJy1waCcsICc3LjAnLCAnLXRuJywgJzgnLCAnLW1hJywgJzIwMCcsICctaW1hZScsICc8aW5maWxlLm1hZT4nLCAnLW9tYWUnLCAnPG91dGZpbGUubWFlPic=

>  <r_lp_tautomer_probability>  (357) 
1

>  <r_epik_Ionization_Penalty>  (357) 
1.0437e-06

>  <r_epik_Ionization_Penalty_Charging>  (357) 
0

>  <r_epik_Ionization_Penalty_Neutral>  (357) 
1.0437e-06

>  <r_epik_State_Penalty>  (357) 
-0

>  <r_epik_Charging_Adjusted_Penalty>  (357) 
0

>  <i_epik_Tot_Q>  (357) 
0

>  <i_epik_Tot_abs_Q>  (357) 
0

>  <s_lp_Force_Field>  (357) 
OPLS3e

>  <r_lp_Energy>  (357) 
423.841

>  <b_lp_Chiralities_Consistent>  (357) 
1

>  <s_lp_Variant>  (357) 
109:0-1

>  <s_i_glide_gridfile>  (357) 
pfpi4k_grid

>  <i_i_glide_lignum>  (357) 
29

>  <i_i_glide_rotatable_bonds>  (357) 
6

>  <r_i_docking_score>  (357) 
-3.35275

>  <r_i_glide_ligand_efficiency>  (357) 
-0.139698

>  <r_i_glide_ligand_efficiency_sa>  (357) 
-0.402959

>  <r_i_glide_ligand_efficiency_ln>  (357) 
-0.802467

>  <r_i_glide_gscore>  (357) 
-3.35275

>  <r_i_glide_lipo>  (357) 
-0.24533

>  <r_i_glide_hbond>  (357) 
-0.300641

>  <r_i_glide_metal>  (357) 
-0

>  <r_i_glide_rewards>  (357) 
-1.12904

>  <r_i_glide_evdw>  (357) 
-14.7481

>  <r_i_glide_ecoul>  (357) 
-7.39322

>  <r_i_glide_erotb>  (357) 
0.168653

>  <r_i_glide_esite>  (357) 
0

>  <r_i_glide_emodel>  (357) 
-26.2582

>  <r_i_glide_energy>  (357) 
-22.1413

>  <r_i_glide_einternal>  (357) 
0.720963

>  <r_i_glide_intrahb_reward>  (357) 
-0

>  <i_i_glide_confnum>  (357) 
6

>  <i_i_glide_posenum>  (357) 
12

>  <r_i_glide_eff_state_penalty>  (357) 
0

>  <ligand_id>  (357) 
109

>  <original_smiles>  (357) 
COC1C(OC)C23C=C(C)C1(O)C1CC4C5CC2C4(O)C1C53CO

>  <smiles>  (357) 
[H]OC([H])([H])C12C3([H])C([H])([H])C4([H])C5(O[H])C3([H])C([H])([H])C([H])(C3(O[H])C(C([H])([H])[H])=C([H])C41C([H])(OC([H])([H])[H])C3([H])OC([H])([H])[H])C52[H]

$$$$
109:0:2
     RDKit          3D

 50 55  0  0  1  0  0  0  0  0999 V2000
    4.6430   -3.4028    3.8675 C   0  0  0  0  0  0  0  0  0  0  0  0
    3.7414   -3.1559    2.7901 O   0  0  0  0  0  0  0  0  0  0  0  0
    4.2920   -2.5372    1.6118 C   0  0  2  0  0  0  0  0  0  0  0  0
    2.9722   -1.8458    0.8901 C   0  0  1  0  0  0  0  0  0  0  0  0
    2.8617   -0.4250    0.8833 O   0  0  0  0  0  0  0  0  0  0  0  0
    2.7139    0.1583    2.1708 C   0  0  0  0  0  0  0  0  0  0  0  0
    2.9653   -2.5010   -0.5030 C   0  0  1  0  0  0  0  0  0  0  0  0
    2.7842   -3.9912    0.0305 C   0  0  0  0  0  0  0  0  0  0  0  0
    3.8568   -4.6081    0.5758 C   0  0  0  0  0  0  0  0  0  0  0  0
    3.8797   -6.0372    1.0884 C   0  0  0  0  0  0  0  0  0  0  0  0
    5.1102   -3.6909    0.6715 C   0  0  2  0  0  0  0  0  0  0  0  0
    6.1547   -4.2430    1.4303 O   0  0  0  0  0  0  0  0  0  0  0  0
    5.8408   -3.6329   -0.9116 C   0  0  2  0  0  0  0  0  0  0  0  0
    6.4019   -2.6546   -2.0890 C   0  0  0  0  0  0  0  0  0  0  0  0
    5.1493   -1.9854   -2.9413 C   0  0  2  0  0  0  0  0  0  0  0  0
    4.2734   -0.9900   -2.2123 C   0  0  1  0  0  0  0  0  0  0  0  0
    2.8262   -0.9893   -2.6219 C   0  0  0  0  0  0  0  0  0  0  0  0
    2.6798   -2.3815   -2.1099 C   0  0  1  0  0  0  0  0  0  0  0  0
    4.0408   -2.9399   -2.8189 C   0  0  1  0  0  0  0  0  0  0  0  0
    3.9517   -3.8546   -3.8956 O   0  0  0  0  0  0  0  0  0  0  0  0
    4.6280   -3.2916   -1.5547 C   0  0  2  0  0  0  0  0  0  0  0  0
    4.3174   -1.8605   -0.9432 C   0  0  2  0  0  0  0  0  0  0  0  0
    5.3969   -0.8213   -0.1938 C   0  0  0  0  0  0  0  0  0  0  0  0
    6.5711   -1.2209    0.5015 O   0  0  0  0  0  0  0  0  0  0  0  0
    4.0854   -3.5252    4.7952 H   0  0  0  0  0  0  0  0  0  0  0  0
    5.3618   -2.5994    4.0309 H   0  0  0  0  0  0  0  0  0  0  0  0
    5.1930   -4.3296    3.7215 H   0  0  0  0  0  0  0  0  0  0  0  0
    4.9086   -1.7551    2.0489 H   0  0  0  0  0  0  0  0  0  0  0  0
    2.0635   -2.1823    1.4003 H   0  0  0  0  0  0  0  0  0  0  0  0
    2.5191    1.2241    2.0532 H   0  0  0  0  0  0  0  0  0  0  0  0
    3.6189    0.0477    2.7648 H   0  0  0  0  0  0  0  0  0  0  0  0
    1.8742   -0.2750    2.7135 H   0  0  0  0  0  0  0  0  0  0  0  0
    1.8298   -4.4702   -0.1229 H   0  0  0  0  0  0  0  0  0  0  0  0
    4.6356   -6.6299    0.5736 H   0  0  0  0  0  0  0  0  0  0  0  0
    2.9101   -6.5076    0.9217 H   0  0  0  0  0  0  0  0  0  0  0  0
    4.0824   -6.0577    2.1585 H   0  0  0  0  0  0  0  0  0  0  0  0
    5.7670   -4.5929    2.2169 H   0  0  0  0  0  0  0  0  0  0  0  0
    6.1247   -4.6523   -1.1395 H   0  0  0  0  0  0  0  0  0  0  0  0
    7.1508   -1.9299   -1.7693 H   0  0  0  0  0  0  0  0  0  0  0  0
    6.9412   -3.2901   -2.7844 H   0  0  0  0  0  0  0  0  0  0  0  0
    5.2966   -1.7415   -3.9797 H   0  0  0  0  0  0  0  0  0  0  0  0
    4.6467    0.0364   -2.2643 H   0  0  0  0  0  0  0  0  0  0  0  0
    2.2094   -0.2784   -2.1080 H   0  0  0  0  0  0  0  0  0  0  0  0
    2.6953   -0.8853   -3.6983 H   0  0  0  0  0  0  0  0  0  0  0  0
    1.7603   -2.8667   -2.4396 H   0  0  0  0  0  0  0  0  0  0  0  0
    3.5639   -4.6397   -3.5452 H   0  0  0  0  0  0  0  0  0  0  0  0
    4.1382   -4.2576   -1.7006 H   0  0  0  0  0  0  0  0  0  0  0  0
    5.9897   -0.2600   -0.9081 H   0  0  0  0  0  0  0  0  0  0  0  0
    4.9520    0.0089    0.3382 H   0  0  0  0  0  0  0  0  0  0  0  0
    6.3309   -1.6643    1.2990 H   0  0  0  0  0  0  0  0  0  0  0  0
  1  2  1  0
  1 25  1  0
  1 26  1  0
  1 27  1  0
  2  3  1  0
  3 11  1  0
  3  4  1  0
  3 28  1  1
  4  5  1  0
  4  7  1  0
  4 29  1  1
  5  6  1  0
  6 30  1  0
  6 31  1  0
  6 32  1  0
  7 18  1  0
  7 22  1  0
  7  8  1  1
  8  9  2  0
  8 33  1  0
  9 10  1  0
  9 11  1  0
 10 34  1  0
 10 35  1  0
 10 36  1  0
 11 12  1  1
 11 13  1  0
 12 37  1  0
 13 21  1  0
 13 14  1  0
 13 38  1  6
 14 15  1  0
 14 39  1  0
 14 40  1  0
 15 19  1  0
 15 16  1  0
 15 41  1  6
 16 22  1  0
 16 17  1  0
 16 42  1  1
 17 18  1  0
 17 43  1  0
 17 44  1  0
 18 19  1  0
 18 45  1  6
 19 20  1  6
 19 21  1  0
 20 46  1  0
 21 22  1  0
 21 47  1  1
 22 23  1  1
 23 24  1  0
 23 48  1  0
 23 49  1  0
 24 50  1  0
M  END
>  <i_m_ct_stereo_status>  (358) 
1

>  <s_m_source_file>  (358) 
/var/tmp/pbs.5076255.sched01/tmpsouvlwkc/11751gt6aqu.sdf

>  <i_m_source_file_index>  (358) 
29

>  <i_lp_mmshare_version>  (358) 
48012

>  <i_f3d_flags>  (358) 
1

>  <s_epik_input>  (358) 
W0NIM11PW0NAQEhdMVtDQEBIXShPW0NIM10pQyhbT0hdKShDKD1bQ0hdMilbQ0gzXSlbQ0BIXShbQ0gyXTMpW0NASF00W0NAQF01KFtDSDJdW09IXSlbQ0BIXShbQ0gyXTYpW0NAQEhdM1tDQEBdNChbQ0BIXTZDMTI1KVtPSF0=

>  <s_epik_cmdline>  (358) 
J2VwaWtfcHl0aG9uJywgJy1waHQnLCAnMi4wJywgJy1waCcsICc3LjAnLCAnLXRuJywgJzgnLCAnLW1hJywgJzIwMCcsICctaW1hZScsICc8aW5maWxlLm1hZT4nLCAnLW9tYWUnLCAnPG91dGZpbGUubWFlPic=

>  <r_lp_tautomer_probability>  (358) 
1

>  <r_epik_Ionization_Penalty>  (358) 
1.0437e-06

>  <r_epik_Ionization_Penalty_Charging>  (358) 
0

>  <r_epik_Ionization_Penalty_Neutral>  (358) 
1.0437e-06

>  <r_epik_State_Penalty>  (358) 
-0

>  <r_epik_Charging_Adjusted_Penalty>  (358) 
0

>  <i_epik_Tot_Q>  (358) 
0

>  <i_epik_Tot_abs_Q>  (358) 
0

>  <s_lp_Force_Field>  (358) 
OPLS3e

>  <r_lp_Energy>  (358) 
423.841

>  <b_lp_Chiralities_Consistent>  (358) 
1

>  <s_lp_Variant>  (358) 
109:0-1

>  <s_i_glide_gridfile>  (358) 
pfpi4k_grid

>  <i_i_glide_lignum>  (358) 
29

>  <i_i_glide_rotatable_bonds>  (358) 
6

>  <r_i_docking_score>  (358) 
-3.21828

>  <r_i_glide_ligand_efficiency>  (358) 
-0.134095

>  <r_i_glide_ligand_efficiency_sa>  (358) 
-0.386797

>  <r_i_glide_ligand_efficiency_ln>  (358) 
-0.770283

>  <r_i_glide_gscore>  (358) 
-3.21828

>  <r_i_glide_lipo>  (358) 
-0.256197

>  <r_i_glide_hbond>  (358) 
-0.32

>  <r_i_glide_metal>  (358) 
-0

>  <r_i_glide_rewards>  (358) 
-1.12904

>  <r_i_glide_evdw>  (358) 
-18.8513

>  <r_i_glide_ecoul>  (358) 
-4.92754

>  <r_i_glide_erotb>  (358) 
0.168653

>  <r_i_glide_esite>  (358) 
0

>  <r_i_glide_emodel>  (358) 
-27.8591

>  <r_i_glide_energy>  (358) 
-23.7788

>  <r_i_glide_einternal>  (358) 
0.179212

>  <r_i_glide_intrahb_reward>  (358) 
-0

>  <i_i_glide_confnum>  (358) 
5

>  <i_i_glide_posenum>  (358) 
5

>  <r_i_glide_eff_state_penalty>  (358) 
0

>  <ligand_id>  (358) 
109

>  <original_smiles>  (358) 
COC1C(OC)C23C=C(C)C1(O)C1CC4C5CC2C4(O)C1C53CO

>  <smiles>  (358) 
[H]OC([H])([H])C12C3([H])C([H])([H])C4([H])C5(O[H])C3([H])C([H])([H])C([H])(C3(O[H])C(C([H])([H])[H])=C([H])C41C([H])(OC([H])([H])[H])C3([H])OC([H])([H])[H])C52[H]

$$$$
110:0:0
     RDKit          3D

 19 21  0  0  1  0  0  0  0  0999 V2000
    1.3064  -10.7669    3.4840 C   0  0  0  0  0  0  0  0  0  0  0  0
    1.0211  -10.3547    4.8084 C   0  0  0  0  0  0  0  0  0  0  0  0
    0.8637   -9.0121    5.1132 C   0  0  0  0  0  0  0  0  0  0  0  0
    0.5748   -8.6320    6.4535 N   0  0  0  0  0  0  0  0  0  0  0  0
    0.2132   -9.3776    7.5054 C   0  0  0  0  0  0  0  0  0  0  0  0
    0.0069   -8.6479    8.5922 N   0  0  0  0  0  0  0  0  0  0  0  0
    0.2740   -7.3666    8.1593 N   0  0  0  0  0  0  0  0  0  0  0  0
    0.6161   -7.3493    6.9017 N   0  0  0  0  0  0  0  0  0  0  0  0
    0.9849   -8.0395    4.0675 C   0  0  0  0  0  0  0  0  0  0  0  0
    0.8830   -6.7099    3.9916 N   0  0  0  0  0  0  0  0  0  0  0  0
    1.1553   -6.4366    2.6878 C   0  0  0  0  0  0  0  0  0  0  0  0
    1.3617   -7.4803    1.8983 N   0  0  0  0  0  0  0  0  0  0  0  0
    1.2735   -8.5199    2.7750 N   0  0  0  0  0  0  0  0  0  0  0  0
    1.4331   -9.8369    2.4781 C   0  0  0  0  0  0  0  0  0  0  0  0
    1.4328  -11.8240    3.2604 H   0  0  0  0  0  0  0  0  0  0  0  0
    0.9346  -11.1176    5.5818 H   0  0  0  0  0  0  0  0  0  0  0  0
    0.0723  -10.4466    7.4815 H   0  0  0  0  0  0  0  0  0  0  0  0
    1.1718   -5.4244    2.3065 H   0  0  0  0  0  0  0  0  0  0  0  0
    1.6510  -10.0883    1.4472 H   0  0  0  0  0  0  0  0  0  0  0  0
  1 14  2  0
  1  2  1  0
  1 15  1  0
  2  3  2  0
  2 16  1  0
  3  4  1  0
  3  9  1  0
  4  8  1  0
  4  5  1  0
  5  6  2  0
  5 17  1  0
  6  7  1  0
  7  8  2  0
  9 13  1  0
  9 10  2  0
 10 11  1  0
 11 12  2  0
 11 18  1  0
 12 13  1  0
 13 14  1  0
 14 19  1  0
M  END
>  <i_m_ct_stereo_status>  (359) 
1

>  <s_m_source_file>  (359) 
/var/tmp/pbs.5076255.sched01/tmpsouvlwkc/11751gt6aqu.sdf

>  <i_m_source_file_index>  (359) 
30

>  <i_lp_mmshare_version>  (359) 
48012

>  <i_f3d_flags>  (359) 
0

>  <s_epik_input>  (359) 
bjFbY0hdbm4oYzEyKVtjSF1bY0hdW2NIXWMyLW4zW2NIXW5ubjM=

>  <s_epik_cmdline>  (359) 
J2VwaWtfcHl0aG9uJywgJy1waHQnLCAnMi4wJywgJy1waCcsICc3LjAnLCAnLXRuJywgJzgnLCAnLW1hJywgJzIwMCcsICctaW1hZScsICc8aW5maWxlLm1hZT4nLCAnLW9tYWUnLCAnPG91dGZpbGUubWFlPic=

>  <r_lp_tautomer_probability>  (359) 
1

>  <r_epik_Ionization_Penalty>  (359) 
3.03879e-07

>  <r_epik_Ionization_Penalty_Charging>  (359) 
0

>  <r_epik_Ionization_Penalty_Neutral>  (359) 
3.03879e-07

>  <r_epik_State_Penalty>  (359) 
-0

>  <r_epik_Charging_Adjusted_Penalty>  (359) 
0

>  <i_epik_Tot_Q>  (359) 
0

>  <i_epik_Tot_abs_Q>  (359) 
0

>  <s_lp_Force_Field>  (359) 
OPLS3e

>  <r_lp_Energy>  (359) 
19.0128

>  <b_lp_Chiralities_Consistent>  (359) 
1

>  <s_lp_Variant>  (359) 
110:0-1

>  <s_i_glide_gridfile>  (359) 
pfpi4k_grid

>  <i_i_glide_lignum>  (359) 
30

>  <i_i_glide_rotatable_bonds>  (359) 
1

>  <r_i_docking_score>  (359) 
-3.7995

>  <r_i_glide_ligand_efficiency>  (359) 
-0.271393

>  <r_i_glide_ligand_efficiency_sa>  (359) 
-0.654096

>  <r_i_glide_ligand_efficiency_ln>  (359) 
-1.04409

>  <r_i_glide_gscore>  (359) 
-3.7995

>  <r_i_glide_lipo>  (359) 
-0.269979

>  <r_i_glide_hbond>  (359) 
0

>  <r_i_glide_metal>  (359) 
-0

>  <r_i_glide_rewards>  (359) 
-2.13299

>  <r_i_glide_evdw>  (359) 
-16.8141

>  <r_i_glide_ecoul>  (359) 
-4.87033

>  <r_i_glide_erotb>  (359) 
0.455851

>  <r_i_glide_esite>  (359) 
-0.281131

>  <r_i_glide_emodel>  (359) 
-28.0264

>  <r_i_glide_energy>  (359) 
-21.6844

>  <r_i_glide_einternal>  (359) 
0.0218694

>  <r_i_glide_intrahb_reward>  (359) 
-0

>  <i_i_glide_confnum>  (359) 
4

>  <i_i_glide_posenum>  (359) 
15

>  <r_i_glide_eff_state_penalty>  (359) 
0

>  <ligand_id>  (359) 
110

>  <original_smiles>  (359) 
c1cc(-n2cnnn2)c2ncnn2c1

>  <smiles>  (359) 
[H]c1nc2c(-n3nnnc3[H])c([H])c([H])c([H])n2n1

$$$$
110:0:1
     RDKit          3D

 19 21  0  0  1  0  0  0  0  0999 V2000
    0.9072  -10.2936    3.8071 C   0  0  0  0  0  0  0  0  0  0  0  0
    0.6578   -9.6075    5.0211 C   0  0  0  0  0  0  0  0  0  0  0  0
    0.6973   -8.2241    5.0683 C   0  0  0  0  0  0  0  0  0  0  0  0
    0.4579   -7.5616    6.3015 N   0  0  0  0  0  0  0  0  0  0  0  0
    0.5545   -8.0163    7.5588 C   0  0  0  0  0  0  0  0  0  0  0  0
    0.2160   -7.0948    8.4501 N   0  0  0  0  0  0  0  0  0  0  0  0
   -0.0835   -5.9983    7.6650 N   0  0  0  0  0  0  0  0  0  0  0  0
    0.0561   -6.2649    6.3968 N   0  0  0  0  0  0  0  0  0  0  0  0
    0.9900   -7.4902    3.8746 C   0  0  0  0  0  0  0  0  0  0  0  0
    1.1060   -6.1973    3.5622 N   0  0  0  0  0  0  0  0  0  0  0  0
    1.4435   -6.2121    2.2446 C   0  0  0  0  0  0  0  0  0  0  0  0
    1.4914   -7.4017    1.6651 N   0  0  0  0  0  0  0  0  0  0  0  0
    1.2274   -8.2376    2.7054 N   0  0  0  0  0  0  0  0  0  0  0  0
    1.1898   -9.5957    2.6556 C   0  0  0  0  0  0  0  0  0  0  0  0
    0.8648  -11.3799    3.7818 H   0  0  0  0  0  0  0  0  0  0  0  0
    0.4210  -10.1931    5.9094 H   0  0  0  0  0  0  0  0  0  0  0  0
    0.8538   -9.0198    7.8263 H   0  0  0  0  0  0  0  0  0  0  0  0
    1.6267   -5.3043    1.6851 H   0  0  0  0  0  0  0  0  0  0  0  0
    1.3777  -10.0631    1.6950 H   0  0  0  0  0  0  0  0  0  0  0  0
  1 14  2  0
  1  2  1  0
  1 15  1  0
  2  3  2  0
  2 16  1  0
  3  4  1  0
  3  9  1  0
  4  8  1  0
  4  5  1  0
  5  6  2  0
  5 17  1  0
  6  7  1  0
  7  8  2  0
  9 13  1  0
  9 10  2  0
 10 11  1  0
 11 12  2  0
 11 18  1  0
 12 13  1  0
 13 14  1  0
 14 19  1  0
M  END
>  <i_m_ct_stereo_status>  (360) 
1

>  <s_m_source_file>  (360) 
/var/tmp/pbs.5076255.sched01/tmpsouvlwkc/11751gt6aqu.sdf

>  <i_m_source_file_index>  (360) 
30

>  <i_lp_mmshare_version>  (360) 
48012

>  <i_f3d_flags>  (360) 
0

>  <s_epik_input>  (360) 
bjFbY0hdbm4oYzEyKVtjSF1bY0hdW2NIXWMyLW4zW2NIXW5ubjM=

>  <s_epik_cmdline>  (360) 
J2VwaWtfcHl0aG9uJywgJy1waHQnLCAnMi4wJywgJy1waCcsICc3LjAnLCAnLXRuJywgJzgnLCAnLW1hJywgJzIwMCcsICctaW1hZScsICc8aW5maWxlLm1hZT4nLCAnLW9tYWUnLCAnPG91dGZpbGUubWFlPic=

>  <r_lp_tautomer_probability>  (360) 
1

>  <r_epik_Ionization_Penalty>  (360) 
3.03879e-07

>  <r_epik_Ionization_Penalty_Charging>  (360) 
0

>  <r_epik_Ionization_Penalty_Neutral>  (360) 
3.03879e-07

>  <r_epik_State_Penalty>  (360) 
-0

>  <r_epik_Charging_Adjusted_Penalty>  (360) 
0

>  <i_epik_Tot_Q>  (360) 
0

>  <i_epik_Tot_abs_Q>  (360) 
0

>  <s_lp_Force_Field>  (360) 
OPLS3e

>  <r_lp_Energy>  (360) 
19.0128

>  <b_lp_Chiralities_Consistent>  (360) 
1

>  <s_lp_Variant>  (360) 
110:0-1

>  <s_i_glide_gridfile>  (360) 
pfpi4k_grid

>  <i_i_glide_lignum>  (360) 
30

>  <i_i_glide_rotatable_bonds>  (360) 
1

>  <r_i_docking_score>  (360) 
-3.23116

>  <r_i_glide_ligand_efficiency>  (360) 
-0.230797

>  <r_i_glide_ligand_efficiency_sa>  (360) 
-0.556254

>  <r_i_glide_ligand_efficiency_ln>  (360) 
-0.887911

>  <r_i_glide_gscore>  (360) 
-3.23116

>  <r_i_glide_lipo>  (360) 
-0.0825874

>  <r_i_glide_hbond>  (360) 
0

>  <r_i_glide_metal>  (360) 
-0

>  <r_i_glide_rewards>  (360) 
-2.13299

>  <r_i_glide_evdw>  (360) 
-15.6718

>  <r_i_glide_ecoul>  (360) 
-3.47688

>  <r_i_glide_erotb>  (360) 
0.455851

>  <r_i_glide_esite>  (360) 
-0.166311

>  <r_i_glide_emodel>  (360) 
-24.5265

>  <r_i_glide_energy>  (360) 
-19.1487

>  <r_i_glide_einternal>  (360) 
0.0455081

>  <r_i_glide_intrahb_reward>  (360) 
-0

>  <i_i_glide_confnum>  (360) 
1

>  <i_i_glide_posenum>  (360) 
21

>  <r_i_glide_eff_state_penalty>  (360) 
0

>  <ligand_id>  (360) 
110

>  <original_smiles>  (360) 
c1cc(-n2cnnn2)c2ncnn2c1

>  <smiles>  (360) 
[H]c1nc2c(-n3nnnc3[H])c([H])c([H])c([H])n2n1

$$$$
110:0:2
     RDKit          3D

 19 21  0  0  1  0  0  0  0  0999 V2000
   -1.4270   -8.3236    2.8764 C   0  0  0  0  0  0  0  0  0  0  0  0
   -1.1015   -7.6038    4.0556 C   0  0  0  0  0  0  0  0  0  0  0  0
   -0.1130   -8.0646    4.9058 C   0  0  0  0  0  0  0  0  0  0  0  0
    0.2172   -7.3520    6.0833 N   0  0  0  0  0  0  0  0  0  0  0  0
    0.7841   -7.7673    7.2231 C   0  0  0  0  0  0  0  0  0  0  0  0
    0.8951   -6.7857    8.1054 N   0  0  0  0  0  0  0  0  0  0  0  0
    0.3640   -5.6985    7.4367 N   0  0  0  0  0  0  0  0  0  0  0  0
   -0.0453   -6.0256    6.2422 N   0  0  0  0  0  0  0  0  0  0  0  0
    0.5796   -9.2753    4.5939 C   0  0  0  0  0  0  0  0  0  0  0  0
    1.5661   -9.9611    5.1657 N   0  0  0  0  0  0  0  0  0  0  0  0
    1.7224  -11.0371    4.3446 C   0  0  0  0  0  0  0  0  0  0  0  0
    0.9500  -11.0657    3.2665 N   0  0  0  0  0  0  0  0  0  0  0  0
    0.2081   -9.9390    3.4140 N   0  0  0  0  0  0  0  0  0  0  0  0
   -0.7616   -9.4889    2.5688 C   0  0  0  0  0  0  0  0  0  0  0  0
   -2.2146   -7.9738    2.2160 H   0  0  0  0  0  0  0  0  0  0  0  0
   -1.6416   -6.6923    4.2945 H   0  0  0  0  0  0  0  0  0  0  0  0
    1.0955   -8.7816    7.4276 H   0  0  0  0  0  0  0  0  0  0  0  0
    2.4507  -11.8114    4.5408 H   0  0  0  0  0  0  0  0  0  0  0  0
   -0.9663  -10.0906    1.6894 H   0  0  0  0  0  0  0  0  0  0  0  0
  1 14  2  0
  1  2  1  0
  1 15  1  0
  2  3  2  0
  2 16  1  0
  3  4  1  0
  3  9  1  0
  4  8  1  0
  4  5  1  0
  5  6  2  0
  5 17  1  0
  6  7  1  0
  7  8  2  0
  9 13  1  0
  9 10  2  0
 10 11  1  0
 11 12  2  0
 11 18  1  0
 12 13  1  0
 13 14  1  0
 14 19  1  0
M  END
>  <i_m_ct_stereo_status>  (361) 
1

>  <s_m_source_file>  (361) 
/var/tmp/pbs.5076255.sched01/tmpsouvlwkc/11751gt6aqu.sdf

>  <i_m_source_file_index>  (361) 
30

>  <i_lp_mmshare_version>  (361) 
48012

>  <i_f3d_flags>  (361) 
0

>  <s_epik_input>  (361) 
bjFbY0hdbm4oYzEyKVtjSF1bY0hdW2NIXWMyLW4zW2NIXW5ubjM=

>  <s_epik_cmdline>  (361) 
J2VwaWtfcHl0aG9uJywgJy1waHQnLCAnMi4wJywgJy1waCcsICc3LjAnLCAnLXRuJywgJzgnLCAnLW1hJywgJzIwMCcsICctaW1hZScsICc8aW5maWxlLm1hZT4nLCAnLW9tYWUnLCAnPG91dGZpbGUubWFlPic=

>  <r_lp_tautomer_probability>  (361) 
1

>  <r_epik_Ionization_Penalty>  (361) 
3.03879e-07

>  <r_epik_Ionization_Penalty_Charging>  (361) 
0

>  <r_epik_Ionization_Penalty_Neutral>  (361) 
3.03879e-07

>  <r_epik_State_Penalty>  (361) 
-0

>  <r_epik_Charging_Adjusted_Penalty>  (361) 
0

>  <i_epik_Tot_Q>  (361) 
0

>  <i_epik_Tot_abs_Q>  (361) 
0

>  <s_lp_Force_Field>  (361) 
OPLS3e

>  <r_lp_Energy>  (361) 
19.0128

>  <b_lp_Chiralities_Consistent>  (361) 
1

>  <s_lp_Variant>  (361) 
110:0-1

>  <s_i_glide_gridfile>  (361) 
pfpi4k_grid

>  <i_i_glide_lignum>  (361) 
30

>  <i_i_glide_rotatable_bonds>  (361) 
1

>  <r_i_docking_score>  (361) 
-3.14176

>  <r_i_glide_ligand_efficiency>  (361) 
-0.224411

>  <r_i_glide_ligand_efficiency_sa>  (361) 
-0.540863

>  <r_i_glide_ligand_efficiency_ln>  (361) 
-0.863344

>  <r_i_glide_gscore>  (361) 
-3.14176

>  <r_i_glide_lipo>  (361) 
-0.109382

>  <r_i_glide_hbond>  (361) 
0

>  <r_i_glide_metal>  (361) 
-0

>  <r_i_glide_rewards>  (361) 
-2.13299

>  <r_i_glide_evdw>  (361) 
-19.5938

>  <r_i_glide_ecoul>  (361) 
-1.60808

>  <r_i_glide_erotb>  (361) 
0.455851

>  <r_i_glide_esite>  (361) 
-0.134337

>  <r_i_glide_emodel>  (361) 
-26.3073

>  <r_i_glide_energy>  (361) 
-21.2018

>  <r_i_glide_einternal>  (361) 
0.233054

>  <r_i_glide_intrahb_reward>  (361) 
-0

>  <i_i_glide_confnum>  (361) 
6

>  <i_i_glide_posenum>  (361) 
13

>  <r_i_glide_eff_state_penalty>  (361) 
0

>  <ligand_id>  (361) 
110

>  <original_smiles>  (361) 
c1cc(-n2cnnn2)c2ncnn2c1

>  <smiles>  (361) 
[H]c1nc2c(-n3nnnc3[H])c([H])c([H])c([H])n2n1

$$$$
111:0:0
     RDKit          3D

 47 52  0  0  1  0  0  0  0  0999 V2000
   -2.4783    2.9497    5.7272 C   0  0  0  0  0  0  0  0  0  0  0  0
   -1.5678    2.1152    5.1946 C   0  0  0  0  0  0  0  0  0  0  0  0
   -0.9240    2.4383    3.8444 C   0  0  1  0  0  0  0  0  0  0  0  0
   -0.0111    3.6918    3.8062 C   0  0  0  0  0  0  0  0  0  0  0  0
    1.5141    3.4804    3.7664 C   0  0  2  0  0  0  0  0  0  0  0  0
    1.9056    2.4837    2.6624 C   0  0  0  0  0  0  0  0  0  0  0  0
    1.9584    1.0986    3.3548 C   0  0  2  0  0  0  0  0  0  0  0  0
    2.9796    0.2185    2.5949 C   0  0  0  0  0  0  0  0  0  0  0  0
    0.5340    0.4443    3.3760 C   0  0  2  0  0  0  0  0  0  0  0  0
   -0.5405    1.3294    3.0298 O   0  0  0  0  0  0  0  0  0  0  0  0
    0.2011   -0.5476    4.5483 C   0  0  2  0  0  0  0  0  0  0  0  0
    0.5740   -1.9974    4.1403 C   0  0  0  0  0  0  0  0  0  0  0  0
   -1.2807   -0.4248    4.9417 C   0  0  1  0  0  0  0  0  0  0  0  0
   -1.7529   -1.5420    5.6789 O   0  0  0  0  0  0  0  0  0  0  0  0
   -1.2720    0.7913    5.8804 C   0  0  1  0  0  0  0  0  0  0  0  0
    0.0210    0.8424    6.4563 O   0  0  0  0  0  0  0  0  0  0  0  0
    0.8567   -0.1527    5.8907 C   0  0  2  0  0  0  0  0  0  0  0  0
    2.2904    0.3826    5.8314 C   0  0  1  0  0  0  0  0  0  0  0  0
    3.1957   -0.6879    5.6452 O   0  0  0  0  0  0  0  0  0  0  0  0
    2.4182    1.4473    4.7650 C   0  0  1  0  0  0  0  0  0  0  0  0
    3.4694    2.4133    4.9234 O   0  0  0  0  0  0  0  0  0  0  0  0
    2.1030    2.8743    5.0194 C   0  0  1  0  0  0  0  0  0  0  0  0
    1.7457    3.5035    6.3544 C   0  0  0  0  0  0  0  0  0  0  0  0
   -2.9798    2.7288    6.6586 H   0  0  0  0  0  0  0  0  0  0  0  0
   -2.7434    3.8671    5.2279 H   0  0  0  0  0  0  0  0  0  0  0  0
   -1.7955    2.7737    3.2824 H   0  0  0  0  0  0  0  0  0  0  0  0
   -0.2599    4.2361    2.8955 H   0  0  0  0  0  0  0  0  0  0  0  0
   -0.2713    4.3783    4.6108 H   0  0  0  0  0  0  0  0  0  0  0  0
    1.9971    4.4405    3.5808 H   0  0  0  0  0  0  0  0  0  0  0  0
    1.2622    2.5202    1.7807 H   0  0  0  0  0  0  0  0  0  0  0  0
    2.9059    2.7531    2.3210 H   0  0  0  0  0  0  0  0  0  0  0  0
    3.1036   -0.7697    3.0314 H   0  0  0  0  0  0  0  0  0  0  0  0
    3.9668    0.6832    2.5821 H   0  0  0  0  0  0  0  0  0  0  0  0
    2.6722    0.0729    1.5561 H   0  0  0  0  0  0  0  0  0  0  0  0
    0.5040   -0.1717    2.4767 H   0  0  0  0  0  0  0  0  0  0  0  0
    0.4148   -2.7136    4.9471 H   0  0  0  0  0  0  0  0  0  0  0  0
    1.6199   -2.0894    3.8603 H   0  0  0  0  0  0  0  0  0  0  0  0
   -0.0126   -2.3280    3.2838 H   0  0  0  0  0  0  0  0  0  0  0  0
   -1.9535   -0.3103    4.0908 H   0  0  0  0  0  0  0  0  0  0  0  0
   -1.4653   -2.3219    5.2252 H   0  0  0  0  0  0  0  0  0  0  0  0
   -1.9889    0.6552    6.6918 H   0  0  0  0  0  0  0  0  0  0  0  0
    0.8190   -0.9967    6.5834 H   0  0  0  0  0  0  0  0  0  0  0  0
    2.5340    0.8246    6.7968 H   0  0  0  0  0  0  0  0  0  0  0  0
    3.0791   -1.0489    4.7813 H   0  0  0  0  0  0  0  0  0  0  0  0
    0.6896    3.3489    6.5815 H   0  0  0  0  0  0  0  0  0  0  0  0
    1.9539    4.5740    6.3436 H   0  0  0  0  0  0  0  0  0  0  0  0
    2.3350    3.0513    7.1529 H   0  0  0  0  0  0  0  0  0  0  0  0
  1  2  2  0
  1 24  1  0
  1 25  1  0
  2 15  1  0
  2  3  1  0
  3 10  1  0
  3  4  1  0
  3 26  1  6
  4  5  1  0
  4 27  1  0
  4 28  1  0
  5 22  1  0
  5  6  1  0
  5 29  1  6
  6  7  1  0
  6 30  1  0
  6 31  1  0
  7 20  1  0
  7  8  1  6
  7  9  1  0
  8 32  1  0
  8 33  1  0
  8 34  1  0
  9 10  1  0
  9 11  1  0
  9 35  1  6
 11 17  1  0
 11 12  1  6
 11 13  1  0
 12 36  1  0
 12 37  1  0
 12 38  1  0
 13 14  1  0
 13 15  1  0
 13 39  1  6
 14 40  1  0
 15 16  1  0
 15 41  1  1
 16 17  1  0
 17 18  1  0
 17 42  1  1
 18 19  1  0
 18 20  1  0
 18 43  1  1
 19 44  1  0
 20 22  1  0
 20 21  1  6
 21 22  1  0
 22 23  1  1
 23 45  1  0
 23 46  1  0
 23 47  1  0
M  END
>  <i_m_ct_stereo_status>  (362) 
1

>  <s_m_source_file>  (362) 
/var/tmp/pbs.5076255.sched01/tmpsouvlwkc/11751gt6aqu.sdf

>  <i_m_source_file_index>  (362) 
31

>  <i_lp_mmshare_version>  (362) 
48012

>  <i_f3d_flags>  (362) 
0

>  <s_epik_input>  (362) 
TzFbQ0BAXTIoW0NIM10pW0NAQEhdKFtDSDJdMylbQ0gyXVtDQEBIXShPNClDKD1bQ0gyXSlbQ0BASF0oW0NAQEhdNVtPSF0pT1tDQEhdKFtDQEhdNltPSF0pW0NAXTUoW0NIM10pW0NAQEhdNFtDQEBdMyhbQ0BAXTEyNilbQ0gzXQ==

>  <s_epik_cmdline>  (362) 
J2VwaWtfcHl0aG9uJywgJy1waHQnLCAnMi4wJywgJy1waCcsICc3LjAnLCAnLXRuJywgJzgnLCAnLW1hJywgJzIwMCcsICctaW1hZScsICc8aW5maWxlLm1hZT4nLCAnLW9tYWUnLCAnPG91dGZpbGUubWFlPic=

>  <r_lp_tautomer_probability>  (362) 
1

>  <r_epik_Ionization_Penalty>  (362) 
2.89514e-07

>  <r_epik_Ionization_Penalty_Charging>  (362) 
0

>  <r_epik_Ionization_Penalty_Neutral>  (362) 
2.89514e-07

>  <r_epik_State_Penalty>  (362) 
-0

>  <r_epik_Charging_Adjusted_Penalty>  (362) 
0

>  <i_epik_Tot_Q>  (362) 
0

>  <i_epik_Tot_abs_Q>  (362) 
0

>  <s_lp_Force_Field>  (362) 
OPLS3e

>  <r_lp_Energy>  (362) 
45.8827

>  <b_lp_Chiralities_Consistent>  (362) 
1

>  <s_lp_Variant>  (362) 
111:0-1

>  <s_i_glide_gridfile>  (362) 
pfpi4k_grid

>  <i_i_glide_lignum>  (362) 
31

>  <i_i_glide_rotatable_bonds>  (362) 
2

>  <r_i_docking_score>  (362) 
-2.81948

>  <r_i_glide_ligand_efficiency>  (362) 
-0.122586

>  <r_i_glide_ligand_efficiency_sa>  (362) 
-0.348618

>  <r_i_glide_ligand_efficiency_ln>  (362) 
-0.681776

>  <r_i_glide_gscore>  (362) 
-2.81948

>  <r_i_glide_lipo>  (362) 
-0.0849441

>  <r_i_glide_hbond>  (362) 
0

>  <r_i_glide_metal>  (362) 
-0

>  <r_i_glide_rewards>  (362) 
-1.22468

>  <r_i_glide_evdw>  (362) 
-21.8075

>  <r_i_glide_ecoul>  (362) 
-2.79654

>  <r_i_glide_erotb>  (362) 
0

>  <r_i_glide_esite>  (362) 
0

>  <r_i_glide_emodel>  (362) 
-28.6468

>  <r_i_glide_energy>  (362) 
-24.604

>  <r_i_glide_einternal>  (362) 
0.629718

>  <r_i_glide_intrahb_reward>  (362) 
-0

>  <i_i_glide_confnum>  (362) 
1

>  <i_i_glide_posenum>  (362) 
2

>  <r_i_glide_eff_state_penalty>  (362) 
0

>  <ligand_id>  (362) 
111

>  <original_smiles>  (362) 
C=C1C2CC3CC4(C)C(O2)C2(C)C(O)C1OC2C(O)C41OC31C

>  <smiles>  (362) 
[H]OC1([H])C2([H])OC3([H])C(=C([H])[H])C4([H])OC([H])(C2(C([H])([H])[H])C3([H])O[H])C2(C([H])([H])[H])C([H])([H])C([H])(C4([H])[H])C3(C([H])([H])[H])OC132

$$$$
111:0:1
     RDKit          3D

 47 52  0  0  1  0  0  0  0  0999 V2000
    4.3861    0.8030    4.7481 C   0  0  0  0  0  0  0  0  0  0  0  0
    3.1726    1.3552    4.9349 C   0  0  0  0  0  0  0  0  0  0  0  0
    2.3847    1.8997    3.7402 C   0  0  1  0  0  0  0  0  0  0  0  0
    1.9023    0.8574    2.6963 C   0  0  0  0  0  0  0  0  0  0  0  0
    0.4149    0.4622    2.6989 C   0  0  2  0  0  0  0  0  0  0  0  0
   -0.4901    1.7056    2.6720 C   0  0  0  0  0  0  0  0  0  0  0  0
   -0.8054    2.0206    4.1567 C   0  0  2  0  0  0  0  0  0  0  0  0
   -2.1809    2.7290    4.2202 C   0  0  0  0  0  0  0  0  0  0  0  0
    0.3288    2.9046    4.7822 C   0  0  2  0  0  0  0  0  0  0  0  0
    1.5189    3.0075    3.9888 O   0  0  0  0  0  0  0  0  0  0  0  0
    0.5882    2.7793    6.3265 C   0  0  2  0  0  0  0  0  0  0  0  0
   -0.2757    3.8112    7.0977 C   0  0  0  0  0  0  0  0  0  0  0  0
    2.0858    2.9488    6.6297 C   0  0  1  0  0  0  0  0  0  0  0  0
    2.3418    3.2634    7.9896 O   0  0  0  0  0  0  0  0  0  0  0  0
    2.6423    1.5461    6.3494 C   0  0  1  0  0  0  0  0  0  0  0  0
    1.5719    0.6426    6.5677 O   0  0  0  0  0  0  0  0  0  0  0  0
    0.3812    1.3480    6.8713 C   0  0  2  0  0  0  0  0  0  0  0  0
   -0.7967    0.5502    6.3035 C   0  0  1  0  0  0  0  0  0  0  0  0
   -2.0182    0.9652    6.8815 O   0  0  0  0  0  0  0  0  0  0  0  0
   -0.8208    0.6363    4.7958 C   0  0  1  0  0  0  0  0  0  0  0  0
   -1.4677   -0.4375    4.1002 O   0  0  0  0  0  0  0  0  0  0  0  0
   -0.0405   -0.2855    3.9334 C   0  0  1  0  0  0  0  0  0  0  0  0
    0.7649   -1.4921    4.3813 C   0  0  0  0  0  0  0  0  0  0  0  0
    4.9834    0.4490    5.5770 H   0  0  0  0  0  0  0  0  0  0  0  0
    4.8068    0.7050    3.7579 H   0  0  0  0  0  0  0  0  0  0  0  0
    3.1771    2.4139    3.1969 H   0  0  0  0  0  0  0  0  0  0  0  0
    2.0967    1.2784    1.7088 H   0  0  0  0  0  0  0  0  0  0  0  0
    2.5253   -0.0356    2.7367 H   0  0  0  0  0  0  0  0  0  0  0  0
    0.2162   -0.1560    1.8229 H   0  0  0  0  0  0  0  0  0  0  0  0
   -0.0658    2.5415    2.1182 H   0  0  0  0  0  0  0  0  0  0  0  0
   -1.4103    1.4356    2.1517 H   0  0  0  0  0  0  0  0  0  0  0  0
   -2.5014    2.9551    5.2336 H   0  0  0  0  0  0  0  0  0  0  0  0
   -2.9668    2.1220    3.7691 H   0  0  0  0  0  0  0  0  0  0  0  0
   -2.1561    3.6726    3.6696 H   0  0  0  0  0  0  0  0  0  0  0  0
   -0.0182    3.9288    4.6446 H   0  0  0  0  0  0  0  0  0  0  0  0
   -0.1673    3.7147    8.1776 H   0  0  0  0  0  0  0  0  0  0  0  0
   -1.3361    3.6936    6.8931 H   0  0  0  0  0  0  0  0  0  0  0  0
   -0.0038    4.8318    6.8299 H   0  0  0  0  0  0  0  0  0  0  0  0
    2.5712    3.7276    6.0397 H   0  0  0  0  0  0  0  0  0  0  0  0
    2.0086    4.1278    8.1659 H   0  0  0  0  0  0  0  0  0  0  0  0
    3.4371    1.3003    7.0579 H   0  0  0  0  0  0  0  0  0  0  0  0
    0.3178    1.3676    7.9618 H   0  0  0  0  0  0  0  0  0  0  0  0
   -0.6697   -0.4934    6.5902 H   0  0  0  0  0  0  0  0  0  0  0  0
   -2.1611    1.8746    6.6632 H   0  0  0  0  0  0  0  0  0  0  0  0
    1.7485   -1.1861    4.7384 H   0  0  0  0  0  0  0  0  0  0  0  0
    0.8860   -2.1960    3.5594 H   0  0  0  0  0  0  0  0  0  0  0  0
    0.2521   -2.0066    5.1950 H   0  0  0  0  0  0  0  0  0  0  0  0
  1  2  2  0
  1 24  1  0
  1 25  1  0
  2 15  1  0
  2  3  1  0
  3 10  1  0
  3  4  1  0
  3 26  1  6
  4  5  1  0
  4 27  1  0
  4 28  1  0
  5 22  1  0
  5  6  1  0
  5 29  1  6
  6  7  1  0
  6 30  1  0
  6 31  1  0
  7 20  1  0
  7  8  1  6
  7  9  1  0
  8 32  1  0
  8 33  1  0
  8 34  1  0
  9 10  1  0
  9 11  1  0
  9 35  1  1
 11 17  1  0
 11 12  1  1
 11 13  1  0
 12 36  1  0
 12 37  1  0
 12 38  1  0
 13 14  1  0
 13 15  1  0
 13 39  1  6
 14 40  1  0
 15 16  1  0
 15 41  1  1
 16 17  1  0
 17 18  1  0
 17 42  1  1
 18 19  1  0
 18 20  1  0
 18 43  1  6
 19 44  1  0
 20 22  1  0
 20 21  1  6
 21 22  1  0
 22 23  1  1
 23 45  1  0
 23 46  1  0
 23 47  1  0
M  END
>  <i_m_ct_stereo_status>  (363) 
1

>  <s_m_source_file>  (363) 
/var/tmp/pbs.5076255.sched01/tmpsouvlwkc/11751gt6aqu.sdf

>  <i_m_source_file_index>  (363) 
31

>  <i_lp_mmshare_version>  (363) 
48012

>  <i_f3d_flags>  (363) 
0

>  <s_epik_input>  (363) 
TzFbQ0BAXTIoW0NIM10pW0NAQEhdKFtDSDJdMylbQ0gyXVtDQEBIXShPNClDKD1bQ0gyXSlbQ0BASF0oW0NAQEhdNVtPSF0pT1tDQEhdKFtDQEhdNltPSF0pW0NAXTUoW0NIM10pW0NAQEhdNFtDQEBdMyhbQ0BAXTEyNilbQ0gzXQ==

>  <s_epik_cmdline>  (363) 
J2VwaWtfcHl0aG9uJywgJy1waHQnLCAnMi4wJywgJy1waCcsICc3LjAnLCAnLXRuJywgJzgnLCAnLW1hJywgJzIwMCcsICctaW1hZScsICc8aW5maWxlLm1hZT4nLCAnLW9tYWUnLCAnPG91dGZpbGUubWFlPic=

>  <r_lp_tautomer_probability>  (363) 
1

>  <r_epik_Ionization_Penalty>  (363) 
2.89514e-07

>  <r_epik_Ionization_Penalty_Charging>  (363) 
0

>  <r_epik_Ionization_Penalty_Neutral>  (363) 
2.89514e-07

>  <r_epik_State_Penalty>  (363) 
-0

>  <r_epik_Charging_Adjusted_Penalty>  (363) 
0

>  <i_epik_Tot_Q>  (363) 
0

>  <i_epik_Tot_abs_Q>  (363) 
0

>  <s_lp_Force_Field>  (363) 
OPLS3e

>  <r_lp_Energy>  (363) 
45.8827

>  <b_lp_Chiralities_Consistent>  (363) 
1

>  <s_lp_Variant>  (363) 
111:0-1

>  <s_i_glide_gridfile>  (363) 
pfpi4k_grid

>  <i_i_glide_lignum>  (363) 
31

>  <i_i_glide_rotatable_bonds>  (363) 
2

>  <r_i_docking_score>  (363) 
-2.66864

>  <r_i_glide_ligand_efficiency>  (363) 
-0.116028

>  <r_i_glide_ligand_efficiency_sa>  (363) 
-0.329968

>  <r_i_glide_ligand_efficiency_ln>  (363) 
-0.645302

>  <r_i_glide_gscore>  (363) 
-2.66864

>  <r_i_glide_lipo>  (363) 
-0.0190937

>  <r_i_glide_hbond>  (363) 
-0.00812524

>  <r_i_glide_metal>  (363) 
-0

>  <r_i_glide_rewards>  (363) 
-1.22468

>  <r_i_glide_evdw>  (363) 
-19.7306

>  <r_i_glide_ecoul>  (363) 
-2.8681

>  <r_i_glide_erotb>  (363) 
0

>  <r_i_glide_esite>  (363) 
0

>  <r_i_glide_emodel>  (363) 
-26.6145

>  <r_i_glide_energy>  (363) 
-22.5987

>  <r_i_glide_einternal>  (363) 
0.312136

>  <r_i_glide_intrahb_reward>  (363) 
-0

>  <i_i_glide_confnum>  (363) 
2

>  <i_i_glide_posenum>  (363) 
38

>  <r_i_glide_eff_state_penalty>  (363) 
0

>  <ligand_id>  (363) 
111

>  <original_smiles>  (363) 
C=C1C2CC3CC4(C)C(O2)C2(C)C(O)C1OC2C(O)C41OC31C

>  <smiles>  (363) 
[H]OC1([H])C2([H])OC3([H])C(=C([H])[H])C4([H])OC([H])(C2(C([H])([H])[H])C3([H])O[H])C2(C([H])([H])[H])C([H])([H])C([H])(C4([H])[H])C3(C([H])([H])[H])OC132

$$$$
111:0:2
     RDKit          3D

 47 52  0  0  1  0  0  0  0  0999 V2000
   -1.7865    2.7000    3.6509 C   0  0  0  0  0  0  0  0  0  0  0  0
   -0.9866    1.6370    3.8539 C   0  0  0  0  0  0  0  0  0  0  0  0
    0.0457    1.2452    2.7929 C   0  0  1  0  0  0  0  0  0  0  0  0
    1.2069    2.2447    2.5660 C   0  0  0  0  0  0  0  0  0  0  0  0
    2.5902    1.9083    3.1388 C   0  0  2  0  0  0  0  0  0  0  0  0
    3.0190    0.4880    2.7345 C   0  0  0  0  0  0  0  0  0  0  0  0
    2.5630   -0.4247    3.9005 C   0  0  2  0  0  0  0  0  0  0  0  0
    3.5169   -1.6404    3.9620 C   0  0  0  0  0  0  0  0  0  0  0  0
    1.0719   -0.8623    3.7009 C   0  0  2  0  0  0  0  0  0  0  0  0
    0.3644   -0.1424    2.6836 O   0  0  0  0  0  0  0  0  0  0  0  0
    0.2181   -1.1734    4.9821 C   0  0  2  0  0  0  0  0  0  0  0  0
    0.3312   -2.6792    5.3390 C   0  0  0  0  0  0  0  0  0  0  0  0
   -1.2423   -0.7444    4.7715 C   0  0  1  0  0  0  0  0  0  0  0  0
   -2.1347   -1.3750    5.6769 O   0  0  0  0  0  0  0  0  0  0  0  0
   -1.2012    0.7575    5.0782 C   0  0  1  0  0  0  0  0  0  0  0  0
   -0.1285    0.9442    5.9848 O   0  0  0  0  0  0  0  0  0  0  0  0
    0.5716   -0.2725    6.1856 C   0  0  2  0  0  0  0  0  0  0  0  0
    2.0522    0.0429    6.4064 C   0  0  1  0  0  0  0  0  0  0  0  0
    2.6974   -1.0705    6.9897 O   0  0  0  0  0  0  0  0  0  0  0  0
    2.7038    0.4879    5.1144 C   0  0  1  0  0  0  0  0  0  0  0  0
    3.8658    1.3215    5.2155 O   0  0  0  0  0  0  0  0  0  0  0  0
    2.6706    1.8930    4.6474 C   0  0  1  0  0  0  0  0  0  0  0  0
    2.1267    3.0950    5.4001 C   0  0  0  0  0  0  0  0  0  0  0  0
   -2.5578    2.9703    4.3585 H   0  0  0  0  0  0  0  0  0  0  0  0
   -1.6883    3.3097    2.7636 H   0  0  0  0  0  0  0  0  0  0  0  0
   -0.5408    1.3694    1.8820 H   0  0  0  0  0  0  0  0  0  0  0  0
    1.3474    2.3294    1.4879 H   0  0  0  0  0  0  0  0  0  0  0  0
    0.9099    3.2467    2.8767 H   0  0  0  0  0  0  0  0  0  0  0  0
    3.3069    2.6405    2.7691 H   0  0  0  0  0  0  0  0  0  0  0  0
    2.6526    0.1767    1.7531 H   0  0  0  0  0  0  0  0  0  0  0  0
    4.1071    0.4789    2.6692 H   0  0  0  0  0  0  0  0  0  0  0  0
    3.2886   -2.3253    4.7755 H   0  0  0  0  0  0  0  0  0  0  0  0
    4.5537   -1.3241    4.0964 H   0  0  0  0  0  0  0  0  0  0  0  0
    3.4695   -2.2187    3.0358 H   0  0  0  0  0  0  0  0  0  0  0  0
    1.1379   -1.8158    3.1773 H   0  0  0  0  0  0  0  0  0  0  0  0
   -0.1947   -2.9296    6.2602 H   0  0  0  0  0  0  0  0  0  0  0  0
    1.3617   -2.9861    5.4944 H   0  0  0  0  0  0  0  0  0  0  0  0
   -0.0738   -3.3068    4.5446 H   0  0  0  0  0  0  0  0  0  0  0  0
   -1.6201   -0.9570    3.7724 H   0  0  0  0  0  0  0  0  0  0  0  0
   -2.0469   -2.3080    5.5529 H   0  0  0  0  0  0  0  0  0  0  0  0
   -2.1206    1.0679    5.5767 H   0  0  0  0  0  0  0  0  0  0  0  0
    0.1567   -0.6997    7.1015 H   0  0  0  0  0  0  0  0  0  0  0  0
    2.1275    0.8555    7.1284 H   0  0  0  0  0  0  0  0  0  0  0  0
    2.7424   -1.7734    6.3604 H   0  0  0  0  0  0  0  0  0  0  0  0
    1.0438    3.1556    5.2942 H   0  0  0  0  0  0  0  0  0  0  0  0
    2.5741    4.0153    5.0283 H   0  0  0  0  0  0  0  0  0  0  0  0
    2.3611    3.0059    6.4608 H   0  0  0  0  0  0  0  0  0  0  0  0
  1  2  2  0
  1 24  1  0
  1 25  1  0
  2 15  1  0
  2  3  1  0
  3 10  1  0
  3  4  1  0
  3 26  1  6
  4  5  1  0
  4 27  1  0
  4 28  1  0
  5 22  1  0
  5  6  1  0
  5 29  1  6
  6  7  1  0
  6 30  1  0
  6 31  1  0
  7 20  1  0
  7  8  1  1
  7  9  1  0
  8 32  1  0
  8 33  1  0
  8 34  1  0
  9 10  1  0
  9 11  1  0
  9 35  1  6
 11 17  1  0
 11 12  1  1
 11 13  1  0
 12 36  1  0
 12 37  1  0
 12 38  1  0
 13 14  1  0
 13 15  1  0
 13 39  1  6
 14 40  1  0
 15 16  1  0
 15 41  1  1
 16 17  1  0
 17 18  1  0
 17 42  1  1
 18 19  1  0
 18 20  1  0
 18 43  1  1
 19 44  1  0
 20 22  1  0
 20 21  1  1
 21 22  1  0
 22 23  1  1
 23 45  1  0
 23 46  1  0
 23 47  1  0
M  END
>  <i_m_ct_stereo_status>  (364) 
1

>  <s_m_source_file>  (364) 
/var/tmp/pbs.5076255.sched01/tmpsouvlwkc/11751gt6aqu.sdf

>  <i_m_source_file_index>  (364) 
31

>  <i_lp_mmshare_version>  (364) 
48012

>  <i_f3d_flags>  (364) 
0

>  <s_epik_input>  (364) 
TzFbQ0BAXTIoW0NIM10pW0NAQEhdKFtDSDJdMylbQ0gyXVtDQEBIXShPNClDKD1bQ0gyXSlbQ0BASF0oW0NAQEhdNVtPSF0pT1tDQEhdKFtDQEhdNltPSF0pW0NAXTUoW0NIM10pW0NAQEhdNFtDQEBdMyhbQ0BAXTEyNilbQ0gzXQ==

>  <s_epik_cmdline>  (364) 
J2VwaWtfcHl0aG9uJywgJy1waHQnLCAnMi4wJywgJy1waCcsICc3LjAnLCAnLXRuJywgJzgnLCAnLW1hJywgJzIwMCcsICctaW1hZScsICc8aW5maWxlLm1hZT4nLCAnLW9tYWUnLCAnPG91dGZpbGUubWFlPic=

>  <r_lp_tautomer_probability>  (364) 
1

>  <r_epik_Ionization_Penalty>  (364) 
2.89514e-07

>  <r_epik_Ionization_Penalty_Charging>  (364) 
0

>  <r_epik_Ionization_Penalty_Neutral>  (364) 
2.89514e-07

>  <r_epik_State_Penalty>  (364) 
-0

>  <r_epik_Charging_Adjusted_Penalty>  (364) 
0

>  <i_epik_Tot_Q>  (364) 
0

>  <i_epik_Tot_abs_Q>  (364) 
0

>  <s_lp_Force_Field>  (364) 
OPLS3e

>  <r_lp_Energy>  (364) 
45.8827

>  <b_lp_Chiralities_Consistent>  (364) 
1

>  <s_lp_Variant>  (364) 
111:0-1

>  <s_i_glide_gridfile>  (364) 
pfpi4k_grid

>  <i_i_glide_lignum>  (364) 
31

>  <i_i_glide_rotatable_bonds>  (364) 
2

>  <r_i_docking_score>  (364) 
-2.6393

>  <r_i_glide_ligand_efficiency>  (364) 
-0.114752

>  <r_i_glide_ligand_efficiency_sa>  (364) 
-0.32634

>  <r_i_glide_ligand_efficiency_ln>  (364) 
-0.638207

>  <r_i_glide_gscore>  (364) 
-2.6393

>  <r_i_glide_lipo>  (364) 
-0.0406361

>  <r_i_glide_hbond>  (364) 
0

>  <r_i_glide_metal>  (364) 
-0

>  <r_i_glide_rewards>  (364) 
-1.22468

>  <r_i_glide_evdw>  (364) 
-20.4224

>  <r_i_glide_ecoul>  (364) 
-2.35243

>  <r_i_glide_erotb>  (364) 
0

>  <r_i_glide_esite>  (364) 
0

>  <r_i_glide_emodel>  (364) 
-26.7005

>  <r_i_glide_energy>  (364) 
-22.7748

>  <r_i_glide_einternal>  (364) 
0.37633

>  <r_i_glide_intrahb_reward>  (364) 
-0

>  <i_i_glide_confnum>  (364) 
2

>  <i_i_glide_posenum>  (364) 
17

>  <r_i_glide_eff_state_penalty>  (364) 
0

>  <ligand_id>  (364) 
111

>  <original_smiles>  (364) 
C=C1C2CC3CC4(C)C(O2)C2(C)C(O)C1OC2C(O)C41OC31C

>  <smiles>  (364) 
[H]OC1([H])C2([H])OC3([H])C(=C([H])[H])C4([H])OC([H])(C2(C([H])([H])[H])C3([H])O[H])C2(C([H])([H])[H])C([H])([H])C([H])(C4([H])[H])C3(C([H])([H])[H])OC132

$$$$
112:0:0
     RDKit          3D

 29 31  0  0  1  0  0  0  0  0999 V2000
    4.6246   -1.7356    3.7018 N   0  0  0  0  0  0  0  0  0  0  0  0
    3.9154   -2.4347    3.1092 C   0  0  0  0  0  0  0  0  0  0  0  0
    3.0086   -3.3161    2.3497 C   0  0  2  0  0  0  0  0  0  0  0  0
    2.7730   -4.6897    3.0097 C   0  0  0  0  0  0  0  0  0  0  0  0
    2.4595   -5.6058    1.8626 C   0  0  2  0  0  0  0  0  0  0  0  0
    1.0557   -6.2457    1.8757 C   0  0  0  0  0  0  0  0  0  0  0  0
    0.6066   -6.6169    2.9814 O   0  0  0  0  0  0  0  0  0  0  0  0
    0.4035   -6.2599    0.8097 O   0  0  0  0  0  0  0  0  0  0  0  0
    3.5266   -6.1473    0.9464 C   0  0  0  0  0  0  0  0  0  0  0  0
    2.8534   -4.8451    0.6223 C   0  0  2  0  0  0  0  0  0  0  0  0
    3.5361   -3.6193    1.0149 N   0  0  0  0  0  0  0  0  0  0  0  0
    3.3357   -2.5111    0.0803 C   0  0  0  0  0  0  0  0  0  0  0  0
    3.7525   -2.8177   -1.3523 C   0  0  0  0  0  0  0  0  0  0  0  0
    2.8035   -2.9110   -2.3816 C   0  0  0  0  0  0  0  0  0  0  0  0
    3.2942   -3.2427   -3.6580 C   0  0  0  0  0  0  0  0  0  0  0  0
    4.6092   -3.4483   -3.8811 N   0  0  0  0  0  0  0  0  0  0  0  0
    5.4133   -3.3354   -2.8262 C   0  0  0  0  0  0  0  0  0  0  0  0
    5.0693   -3.0093   -1.5852 N   0  0  0  0  0  0  0  0  0  0  0  0
    2.0480   -2.8030    2.2629 H   0  0  0  0  0  0  0  0  0  0  0  0
    3.6918   -5.0476    3.4714 H   0  0  0  0  0  0  0  0  0  0  0  0
    1.9925   -4.6863    3.7705 H   0  0  0  0  0  0  0  0  0  0  0  0
    4.5556   -6.1056    1.3118 H   0  0  0  0  0  0  0  0  0  0  0  0
    3.2780   -7.0146    0.3530 H   0  0  0  0  0  0  0  0  0  0  0  0
    2.1575   -4.8653   -0.2122 H   0  0  0  0  0  0  0  0  0  0  0  0
    2.2900   -2.2042    0.0766 H   0  0  0  0  0  0  0  0  0  0  0  0
    3.9214   -1.6534    0.4202 H   0  0  0  0  0  0  0  0  0  0  0  0
    1.7536   -2.7552   -2.2007 H   0  0  0  0  0  0  0  0  0  0  0  0
    2.6330   -3.3360   -4.5125 H   0  0  0  0  0  0  0  0  0  0  0  0
    6.4615   -3.4952   -3.0086 H   0  0  0  0  0  0  0  0  0  0  0  0
  1  2  3  0
  2  3  1  0
  3 11  1  0
  3  4  1  0
  3 19  1  6
  4  5  1  0
  4 20  1  0
  4 21  1  0
  5 10  1  0
  5  6  1  6
  5  9  1  0
  6  7  2  0
  6  8  1  0
  9 10  1  0
  9 22  1  0
  9 23  1  0
 10 11  1  0
 10 24  1  6
 11 12  1  0
 12 13  1  0
 12 25  1  0
 12 26  1  0
 13 18  1  0
 13 14  2  0
 14 15  1  0
 14 27  1  0
 15 16  2  0
 15 28  1  0
 16 17  1  0
 17 18  2  0
 17 29  1  0
M  CHG  1   8  -1
M  END
>  <i_m_ct_stereo_status>  (365) 
1

>  <s_m_source_file>  (365) 
/var/tmp/pbs.5076255.sched01/tmpsouvlwkc/11751gt6aqu.sdf

>  <i_m_source_file_index>  (365) 
32

>  <i_lp_mmshare_version>  (365) 
48012

>  <i_f3d_flags>  (365) 
0

>  <s_epik_input>  (365) 
Tz1DKFtPSF0pW0NAQF0xMltDQEhdKFtDSDJdMilOKFtDQEhdKEMjTilbQ0gyXTEpW0NIMl1jM1tjSF1bY0hdbltjSF1uMw==

>  <s_epik_cmdline>  (365) 
J2VwaWtfcHl0aG9uJywgJy1waHQnLCAnMi4wJywgJy1waCcsICc3LjAnLCAnLXRuJywgJzgnLCAnLW1hJywgJzIwMCcsICctaW1hZScsICc8aW5maWxlLm1hZT4nLCAnLW9tYWUnLCAnPG91dGZpbGUubWFlPic=

>  <r_lp_tautomer_probability>  (365) 
1

>  <r_epik_Ionization_Penalty>  (365) 
0.101921

>  <r_epik_Ionization_Penalty_Charging>  (365) 
0.000457796

>  <r_epik_Ionization_Penalty_Neutral>  (365) 
0.101464

>  <r_epik_State_Penalty>  (365) 
0.0914432

>  <r_epik_Charging_Adjusted_Penalty>  (365) 
0.091901

>  <i_epik_Tot_Q>  (365) 
-1

>  <i_epik_Tot_abs_Q>  (365) 
1

>  <s_epik_Chemistry_Notes>  (365) 
This compound contains an electron-poor aromatic ring that is susceptible to covalent hydrolysis at low pH, typically resulting in measured values for nitrogen ring protonation that are around two units higher than predicted values.

>  <s_lp_Force_Field>  (365) 
OPLS3e

>  <r_lp_Energy>  (365) 
22.6612

>  <b_lp_Chiralities_Consistent>  (365) 
1

>  <s_lp_Variant>  (365) 
112:0-1

>  <s_i_glide_gridfile>  (365) 
pfpi4k_grid

>  <i_i_glide_lignum>  (365) 
32

>  <i_i_glide_rotatable_bonds>  (365) 
4

>  <r_i_docking_score>  (365) 
-4.15373

>  <r_i_glide_ligand_efficiency>  (365) 
-0.230763

>  <r_i_glide_ligand_efficiency_sa>  (365) 
-0.604769

>  <r_i_glide_ligand_efficiency_ln>  (365) 
-1.06769

>  <r_i_glide_gscore>  (365) 
-4.15373

>  <r_i_glide_lipo>  (365) 
-0.248188

>  <r_i_glide_hbond>  (365) 
-0.2

>  <r_i_glide_metal>  (365) 
-0

>  <r_i_glide_rewards>  (365) 
-2.07401

>  <r_i_glide_evdw>  (365) 
-20.5167

>  <r_i_glide_ecoul>  (365) 
-7.46634

>  <r_i_glide_erotb>  (365) 
0.586893

>  <r_i_glide_esite>  (365) 
-0.0726317

>  <r_i_glide_emodel>  (365) 
-37.0854

>  <r_i_glide_energy>  (365) 
-27.983

>  <r_i_glide_einternal>  (365) 
1.95601

>  <r_i_glide_intrahb_reward>  (365) 
-0

>  <i_i_glide_confnum>  (365) 
2

>  <i_i_glide_posenum>  (365) 
11

>  <r_i_glide_eff_state_penalty>  (365) 
0

>  <ligand_id>  (365) 
112

>  <original_smiles>  (365) 
N#CC1CC2(C(=O)O)CC2N1Cc1ccncn1

>  <smiles>  (365) 
[H]c1nc([H])c([H])c(C([H])([H])N2C([H])(C#N)C([H])([H])C3(C(=O)[O-])C([H])([H])C23[H])n1

$$$$
112:0:1
     RDKit          3D

 29 31  0  0  1  0  0  0  0  0999 V2000
    4.5886   -1.7012    3.5975 N   0  0  0  0  0  0  0  0  0  0  0  0
    3.8671   -2.4117    3.0338 C   0  0  0  0  0  0  0  0  0  0  0  0
    2.9540   -3.3157    2.3182 C   0  0  2  0  0  0  0  0  0  0  0  0
    2.7071   -4.6547    3.0363 C   0  0  0  0  0  0  0  0  0  0  0  0
    2.3787   -5.6128    1.9295 C   0  0  2  0  0  0  0  0  0  0  0  0
    0.9787   -6.2540    1.9936 C   0  0  0  0  0  0  0  0  0  0  0  0
    0.3021   -6.2561    0.9320 O   0  0  0  0  0  0  0  0  0  0  0  0
    0.5666   -6.6043    3.1165 O   0  0  0  0  0  0  0  0  0  0  0  0
    3.4280   -6.2004    1.0267 C   0  0  0  0  0  0  0  0  0  0  0  0
    2.7670   -4.9078    0.6607 C   0  0  2  0  0  0  0  0  0  0  0  0
    3.4757   -3.6758    0.9939 N   0  0  0  0  0  0  0  0  0  0  0  0
    3.2568   -2.5978    0.0352 C   0  0  0  0  0  0  0  0  0  0  0  0
    3.6695   -2.9284   -1.3853 C   0  0  0  0  0  0  0  0  0  0  0  0
    5.0182   -3.1276   -1.7466 C   0  0  0  0  0  0  0  0  0  0  0  0
    5.2660   -3.4230   -3.0966 C   0  0  0  0  0  0  0  0  0  0  0  0
    4.2702   -3.4811   -4.0082 N   0  0  0  0  0  0  0  0  0  0  0  0
    3.0334   -3.3055   -3.5527 C   0  0  0  0  0  0  0  0  0  0  0  0
    2.6813   -3.0318   -2.2957 N   0  0  0  0  0  0  0  0  0  0  0  0
    1.9984   -2.8005    2.2174 H   0  0  0  0  0  0  0  0  0  0  0  0
    3.6181   -5.0075    3.5075 H   0  0  0  0  0  0  0  0  0  0  0  0
    1.9224   -4.6270    3.7991 H   0  0  0  0  0  0  0  0  0  0  0  0
    4.4573   -6.1731    1.3793 H   0  0  0  0  0  0  0  0  0  0  0  0
    3.1160   -7.1009    0.5003 H   0  0  0  0  0  0  0  0  0  0  0  0
    2.0580   -4.9538   -0.1623 H   0  0  0  0  0  0  0  0  0  0  0  0
    2.2114   -2.2882    0.0283 H   0  0  0  0  0  0  0  0  0  0  0  0
    3.8290   -1.7180    0.3377 H   0  0  0  0  0  0  0  0  0  0  0  0
    5.8127   -3.0792   -1.0116 H   0  0  0  0  0  0  0  0  0  0  0  0
    6.2621   -3.5994   -3.4765 H   0  0  0  0  0  0  0  0  0  0  0  0
    2.2446   -3.3743   -4.2822 H   0  0  0  0  0  0  0  0  0  0  0  0
  1  2  3  0
  2  3  1  0
  3 11  1  0
  3  4  1  0
  3 19  1  6
  4  5  1  0
  4 20  1  0
  4 21  1  0
  5 10  1  0
  5  6  1  6
  5  9  1  0
  6  7  2  0
  6  8  1  0
  9 10  1  0
  9 22  1  0
  9 23  1  0
 10 11  1  0
 10 24  1  6
 11 12  1  0
 12 13  1  0
 12 25  1  0
 12 26  1  0
 13 18  1  0
 13 14  2  0
 14 15  1  0
 14 27  1  0
 15 16  2  0
 15 28  1  0
 16 17  1  0
 17 18  2  0
 17 29  1  0
M  CHG  1   8  -1
M  END
>  <i_m_ct_stereo_status>  (366) 
1

>  <s_m_source_file>  (366) 
/var/tmp/pbs.5076255.sched01/tmpsouvlwkc/11751gt6aqu.sdf

>  <i_m_source_file_index>  (366) 
32

>  <i_lp_mmshare_version>  (366) 
48012

>  <i_f3d_flags>  (366) 
0

>  <s_epik_input>  (366) 
Tz1DKFtPSF0pW0NAQF0xMltDQEhdKFtDSDJdMilOKFtDQEhdKEMjTilbQ0gyXTEpW0NIMl1jM1tjSF1bY0hdbltjSF1uMw==

>  <s_epik_cmdline>  (366) 
J2VwaWtfcHl0aG9uJywgJy1waHQnLCAnMi4wJywgJy1waCcsICc3LjAnLCAnLXRuJywgJzgnLCAnLW1hJywgJzIwMCcsICctaW1hZScsICc8aW5maWxlLm1hZT4nLCAnLW9tYWUnLCAnPG91dGZpbGUubWFlPic=

>  <r_lp_tautomer_probability>  (366) 
1

>  <r_epik_Ionization_Penalty>  (366) 
0.101921

>  <r_epik_Ionization_Penalty_Charging>  (366) 
0.000457796

>  <r_epik_Ionization_Penalty_Neutral>  (366) 
0.101464

>  <r_epik_State_Penalty>  (366) 
0.0914432

>  <r_epik_Charging_Adjusted_Penalty>  (366) 
0.091901

>  <i_epik_Tot_Q>  (366) 
-1

>  <i_epik_Tot_abs_Q>  (366) 
1

>  <s_epik_Chemistry_Notes>  (366) 
This compound contains an electron-poor aromatic ring that is susceptible to covalent hydrolysis at low pH, typically resulting in measured values for nitrogen ring protonation that are around two units higher than predicted values.

>  <s_lp_Force_Field>  (366) 
OPLS3e

>  <r_lp_Energy>  (366) 
22.6612

>  <b_lp_Chiralities_Consistent>  (366) 
1

>  <s_lp_Variant>  (366) 
112:0-1

>  <s_i_glide_gridfile>  (366) 
pfpi4k_grid

>  <i_i_glide_lignum>  (366) 
32

>  <i_i_glide_rotatable_bonds>  (366) 
4

>  <r_i_docking_score>  (366) 
-4.0638

>  <r_i_glide_ligand_efficiency>  (366) 
-0.225767

>  <r_i_glide_ligand_efficiency_sa>  (366) 
-0.591677

>  <r_i_glide_ligand_efficiency_ln>  (366) 
-1.04458

>  <r_i_glide_gscore>  (366) 
-4.0638

>  <r_i_glide_lipo>  (366) 
-0.308309

>  <r_i_glide_hbond>  (366) 
-0.230485

>  <r_i_glide_metal>  (366) 
-0

>  <r_i_glide_rewards>  (366) 
-2.0365

>  <r_i_glide_evdw>  (366) 
-20.4183

>  <r_i_glide_ecoul>  (366) 
-6.5467

>  <r_i_glide_erotb>  (366) 
0.586893

>  <r_i_glide_esite>  (366) 
-0.0724862

>  <r_i_glide_emodel>  (366) 
-36.1777

>  <r_i_glide_energy>  (366) 
-26.965

>  <r_i_glide_einternal>  (366) 
1.26834

>  <r_i_glide_intrahb_reward>  (366) 
-0

>  <i_i_glide_confnum>  (366) 
2

>  <i_i_glide_posenum>  (366) 
1

>  <r_i_glide_eff_state_penalty>  (366) 
0

>  <ligand_id>  (366) 
112

>  <original_smiles>  (366) 
N#CC1CC2(C(=O)O)CC2N1Cc1ccncn1

>  <smiles>  (366) 
[H]c1nc([H])c([H])c(C([H])([H])N2C([H])(C#N)C([H])([H])C3(C(=O)[O-])C([H])([H])C23[H])n1

$$$$
112:0:2
     RDKit          3D

 29 31  0  0  1  0  0  0  0  0999 V2000
    5.3560   -1.6730    3.4670 N   0  0  0  0  0  0  0  0  0  0  0  0
    4.5427   -2.3175    2.9647 C   0  0  0  0  0  0  0  0  0  0  0  0
    3.4985   -3.1343    2.3158 C   0  0  2  0  0  0  0  0  0  0  0  0
    3.4300   -4.5891    2.8291 C   0  0  0  0  0  0  0  0  0  0  0  0
    2.8622   -5.3649    1.6807 C   0  0  2  0  0  0  0  0  0  0  0  0
    1.4669   -6.0103    1.8889 C   0  0  0  0  0  0  0  0  0  0  0  0
    0.7466   -6.2121    0.8864 O   0  0  0  0  0  0  0  0  0  0  0  0
    1.1047   -6.2555    3.0615 O   0  0  0  0  0  0  0  0  0  0  0  0
    3.6908   -5.7408    0.4771 C   0  0  0  0  0  0  0  0  0  0  0  0
    2.9552   -4.4345    0.5073 C   0  0  2  0  0  0  0  0  0  0  0  0
    3.7178   -3.2436    0.8695 N   0  0  0  0  0  0  0  0  0  0  0  0
    3.3262   -2.0204    0.1589 C   0  0  0  0  0  0  0  0  0  0  0  0
    3.4309   -2.0617   -1.3737 C   0  0  0  0  0  0  0  0  0  0  0  0
    4.2170   -1.1435   -2.0973 C   0  0  0  0  0  0  0  0  0  0  0  0
    4.2134   -1.2920   -3.5004 C   0  0  0  0  0  0  0  0  0  0  0  0
    3.5516   -2.2888   -4.1165 N   0  0  0  0  0  0  0  0  0  0  0  0
    2.8162   -3.0753   -3.3368 C   0  0  0  0  0  0  0  0  0  0  0  0
    2.7189   -3.0119   -2.0154 N   0  0  0  0  0  0  0  0  0  0  0  0
    2.5395   -2.6476    2.5070 H   0  0  0  0  0  0  0  0  0  0  0  0
    4.4355   -4.9717    3.0076 H   0  0  0  0  0  0  0  0  0  0  0  0
    2.8577   -4.6942    3.7445 H   0  0  0  0  0  0  0  0  0  0  0  0
    4.7821   -5.6984    0.5761 H   0  0  0  0  0  0  0  0  0  0  0  0
    3.3196   -6.4734   -0.2221 H   0  0  0  0  0  0  0  0  0  0  0  0
    2.0338   -4.3557   -0.0705 H   0  0  0  0  0  0  0  0  0  0  0  0
    2.3083   -1.7500    0.4521 H   0  0  0  0  0  0  0  0  0  0  0  0
    3.9482   -1.1988    0.5124 H   0  0  0  0  0  0  0  0  0  0  0  0
    4.7619   -0.3526   -1.6108 H   0  0  0  0  0  0  0  0  0  0  0  0
    4.7760   -0.6378   -4.1493 H   0  0  0  0  0  0  0  0  0  0  0  0
    2.2678   -3.8703   -3.8241 H   0  0  0  0  0  0  0  0  0  0  0  0
  1  2  3  0
  2  3  1  0
  3 11  1  0
  3  4  1  0
  3 19  1  6
  4  5  1  0
  4 20  1  0
  4 21  1  0
  5 10  1  0
  5  6  1  1
  5  9  1  0
  6  7  2  0
  6  8  1  0
  9 10  1  0
  9 22  1  0
  9 23  1  0
 10 11  1  0
 10 24  1  6
 11 12  1  0
 12 13  1  0
 12 25  1  0
 12 26  1  0
 13 18  1  0
 13 14  2  0
 14 15  1  0
 14 27  1  0
 15 16  2  0
 15 28  1  0
 16 17  1  0
 17 18  2  0
 17 29  1  0
M  CHG  1   8  -1
M  END
>  <i_m_ct_stereo_status>  (367) 
1

>  <s_m_source_file>  (367) 
/var/tmp/pbs.5076255.sched01/tmpsouvlwkc/11751gt6aqu.sdf

>  <i_m_source_file_index>  (367) 
32

>  <i_lp_mmshare_version>  (367) 
48012

>  <i_f3d_flags>  (367) 
0

>  <s_epik_input>  (367) 
Tz1DKFtPSF0pW0NAQF0xMltDQEhdKFtDSDJdMilOKFtDQEhdKEMjTilbQ0gyXTEpW0NIMl1jM1tjSF1bY0hdbltjSF1uMw==

>  <s_epik_cmdline>  (367) 
J2VwaWtfcHl0aG9uJywgJy1waHQnLCAnMi4wJywgJy1waCcsICc3LjAnLCAnLXRuJywgJzgnLCAnLW1hJywgJzIwMCcsICctaW1hZScsICc8aW5maWxlLm1hZT4nLCAnLW9tYWUnLCAnPG91dGZpbGUubWFlPic=

>  <r_lp_tautomer_probability>  (367) 
1

>  <r_epik_Ionization_Penalty>  (367) 
0.101921

>  <r_epik_Ionization_Penalty_Charging>  (367) 
0.000457796

>  <r_epik_Ionization_Penalty_Neutral>  (367) 
0.101464

>  <r_epik_State_Penalty>  (367) 
0.0914432

>  <r_epik_Charging_Adjusted_Penalty>  (367) 
0.091901

>  <i_epik_Tot_Q>  (367) 
-1

>  <i_epik_Tot_abs_Q>  (367) 
1

>  <s_epik_Chemistry_Notes>  (367) 
This compound contains an electron-poor aromatic ring that is susceptible to covalent hydrolysis at low pH, typically resulting in measured values for nitrogen ring protonation that are around two units higher than predicted values.

>  <s_lp_Force_Field>  (367) 
OPLS3e

>  <r_lp_Energy>  (367) 
22.6612

>  <b_lp_Chiralities_Consistent>  (367) 
1

>  <s_lp_Variant>  (367) 
112:0-1

>  <s_i_glide_gridfile>  (367) 
pfpi4k_grid

>  <i_i_glide_lignum>  (367) 
32

>  <i_i_glide_rotatable_bonds>  (367) 
4

>  <r_i_docking_score>  (367) 
-3.99311

>  <r_i_glide_ligand_efficiency>  (367) 
-0.221839

>  <r_i_glide_ligand_efficiency_sa>  (367) 
-0.581383

>  <r_i_glide_ligand_efficiency_ln>  (367) 
-1.02641

>  <r_i_glide_gscore>  (367) 
-3.99311

>  <r_i_glide_lipo>  (367) 
-0.191851

>  <r_i_glide_hbond>  (367) 
-0.44524

>  <r_i_glide_metal>  (367) 
-0

>  <r_i_glide_rewards>  (367) 
-2.00549

>  <r_i_glide_evdw>  (367) 
-19.1645

>  <r_i_glide_ecoul>  (367) 
-6.13626

>  <r_i_glide_erotb>  (367) 
0.586893

>  <r_i_glide_esite>  (367) 
-0.0587539

>  <r_i_glide_emodel>  (367) 
-33.6463

>  <r_i_glide_energy>  (367) 
-25.3008

>  <r_i_glide_einternal>  (367) 
1.73142

>  <r_i_glide_intrahb_reward>  (367) 
-0

>  <i_i_glide_confnum>  (367) 
1

>  <i_i_glide_posenum>  (367) 
19

>  <r_i_glide_eff_state_penalty>  (367) 
0

>  <ligand_id>  (367) 
112

>  <original_smiles>  (367) 
N#CC1CC2(C(=O)O)CC2N1Cc1ccncn1

>  <smiles>  (367) 
[H]c1nc([H])c([H])c(C([H])([H])N2C([H])(C#N)C([H])([H])C3(C(=O)[O-])C([H])([H])C23[H])n1

$$$$
112:1:0
     RDKit          3D

 30 32  0  0  1  0  0  0  0  0999 V2000
    5.1259   -1.6046    3.5305 N   0  0  0  0  0  0  0  0  0  0  0  0
    4.3579   -2.2888    2.9976 C   0  0  0  0  0  0  0  0  0  0  0  0
    3.3756   -3.1558    2.3107 C   0  0  2  0  0  0  0  0  0  0  0  0
    3.3531   -4.5997    2.8206 C   0  0  0  0  0  0  0  0  0  0  0  0
    2.8400   -5.3758    1.6375 C   0  0  2  0  0  0  0  0  0  0  0  0
    1.4736   -6.0905    1.8129 C   0  0  0  0  0  0  0  0  0  0  0  0
    1.1502   -6.4560    2.9650 O   0  0  0  0  0  0  0  0  0  0  0  0
    0.7306   -6.2062    0.8174 O   0  0  0  0  0  0  0  0  0  0  0  0
    3.7411   -5.7521    0.4796 C   0  0  0  0  0  0  0  0  0  0  0  0
    2.9497   -4.4810    0.4333 C   0  0  2  0  0  0  0  0  0  0  0  0
    3.6777   -3.2539    0.8509 N   0  0  1  0  0  0  0  0  0  0  0  0
    3.4132   -2.0021    0.0748 C   0  0  0  0  0  0  0  0  0  0  0  0
    3.4378   -2.1546   -1.4588 C   0  0  0  0  0  0  0  0  0  0  0  0
    2.5722   -3.0029   -2.1798 C   0  0  0  0  0  0  0  0  0  0  0  0
    2.7393   -3.1094   -3.5530 C   0  0  0  0  0  0  0  0  0  0  0  0
    3.6406   -2.3574   -4.2103 N   0  0  0  0  0  0  0  0  0  0  0  0
    4.3257   -1.4975   -3.4712 C   0  0  0  0  0  0  0  0  0  0  0  0
    4.3247   -1.3876   -2.1391 N   0  0  0  0  0  0  0  0  0  0  0  0
    2.4004   -2.6904    2.4489 H   0  0  0  0  0  0  0  0  0  0  0  0
    4.3754   -4.9444    2.9977 H   0  0  0  0  0  0  0  0  0  0  0  0
    2.7775   -4.7193    3.7474 H   0  0  0  0  0  0  0  0  0  0  0  0
    4.8213   -5.6808    0.6378 H   0  0  0  0  0  0  0  0  0  0  0  0
    3.4065   -6.5384   -0.1911 H   0  0  0  0  0  0  0  0  0  0  0  0
    1.9731   -4.3519    0.0001 H   0  0  0  0  0  0  0  0  0  0  0  0
    2.4635   -1.5776    0.4056 H   0  0  0  0  0  0  0  0  0  0  0  0
    4.1453   -1.2427    0.3772 H   0  0  0  0  0  0  0  0  0  0  0  0
    1.7564   -3.5713   -1.7804 H   0  0  0  0  0  0  0  0  0  0  0  0
    2.1370   -3.8196   -4.0915 H   0  0  0  0  0  0  0  0  0  0  0  0
    5.0139   -0.8908   -4.0415 H   0  0  0  0  0  0  0  0  0  0  0  0
    4.6681   -3.4403    0.7458 H   0  0  0  0  0  0  0  0  0  0  0  0
  1  2  3  0
  2  3  1  0
  3 11  1  0
  3  4  1  0
  3 19  1  6
  4  5  1  0
  4 20  1  0
  4 21  1  0
  5 10  1  0
  5  6  1  1
  5  9  1  0
  6  7  2  0
  6  8  1  0
  9 10  1  0
  9 22  1  0
  9 23  1  0
 10 11  1  0
 10 24  1  6
 11 12  1  0
 11 30  1  1
 12 13  1  0
 12 25  1  0
 12 26  1  0
 13 18  1  0
 13 14  2  0
 14 15  1  0
 14 27  1  0
 15 16  2  0
 15 28  1  0
 16 17  1  0
 17 18  2  0
 17 29  1  0
M  CHG  2   8  -1  11   1
M  END
>  <i_m_ct_stereo_status>  (368) 
1

>  <s_m_source_file>  (368) 
/var/tmp/pbs.5076255.sched01/tmpsouvlwkc/11751gt6aqu.sdf

>  <i_m_source_file_index>  (368) 
33

>  <i_lp_mmshare_version>  (368) 
48012

>  <i_f3d_flags>  (368) 
0

>  <s_epik_input>  (368) 
Tz1DKFtPSF0pW0NAQF0xMltDQEhdKFtDSDJdMilOKFtDQEhdKEMjTilbQ0gyXTEpW0NIMl1jM1tjSF1bY0hdbltjSF1uMw==

>  <s_epik_cmdline>  (368) 
J2VwaWtfcHl0aG9uJywgJy1waHQnLCAnMi4wJywgJy1waCcsICc3LjAnLCAnLXRuJywgJzgnLCAnLW1hJywgJzIwMCcsICctaW1hZScsICc8aW5maWxlLm1hZT4nLCAnLW9tYWUnLCAnPG91dGZpbGUubWFlPic=

>  <r_lp_tautomer_probability>  (368) 
1

>  <r_epik_Ionization_Penalty>  (368) 
1.0984

>  <r_epik_Ionization_Penalty_Charging>  (368) 
1.09559

>  <r_epik_Ionization_Penalty_Neutral>  (368) 
0.00281272

>  <r_epik_State_Penalty>  (368) 
1.15226

>  <r_epik_Charging_Adjusted_Penalty>  (368) 
2.24785

>  <i_epik_Tot_Q>  (368) 
0

>  <i_epik_Tot_abs_Q>  (368) 
2

>  <s_epik_Chemistry_Notes>  (368) 
This compound contains an electron-poor aromatic ring that is susceptible to covalent hydrolysis at low pH, typically resulting in measured values for nitrogen ring protonation that are around two units higher than predicted values.

>  <s_lp_Force_Field>  (368) 
OPLS3e

>  <r_lp_Energy>  (368) 
22.2799

>  <b_lp_Chiralities_Consistent>  (368) 
1

>  <s_lp_Variant>  (368) 
112:0-2

>  <s_i_glide_gridfile>  (368) 
pfpi4k_grid

>  <i_i_glide_lignum>  (368) 
33

>  <i_i_glide_rotatable_bonds>  (368) 
4

>  <r_i_docking_score>  (368) 
-4.65968

>  <r_i_glide_ligand_efficiency>  (368) 
-0.258871

>  <r_i_glide_ligand_efficiency_sa>  (368) 
-0.678434

>  <r_i_glide_ligand_efficiency_ln>  (368) 
-1.19775

>  <r_i_glide_gscore>  (368) 
-4.65968

>  <r_i_glide_lipo>  (368) 
-0.249217

>  <r_i_glide_hbond>  (368) 
-0.52

>  <r_i_glide_metal>  (368) 
-0

>  <r_i_glide_rewards>  (368) 
-1.95466

>  <r_i_glide_evdw>  (368) 
-18.453

>  <r_i_glide_ecoul>  (368) 
-10.2383

>  <r_i_glide_erotb>  (368) 
0.58276

>  <r_i_glide_esite>  (368) 
-0.060182

>  <r_i_glide_emodel>  (368) 
-37.5437

>  <r_i_glide_energy>  (368) 
-28.6912

>  <r_i_glide_einternal>  (368) 
2.18966

>  <r_i_glide_intrahb_reward>  (368) 
-0

>  <i_i_glide_confnum>  (368) 
2

>  <i_i_glide_posenum>  (368) 
9

>  <r_i_glide_eff_state_penalty>  (368) 
0

>  <ligand_id>  (368) 
112

>  <original_smiles>  (368) 
N#CC1CC2(C(=O)O)CC2N1Cc1ccncn1

>  <smiles>  (368) 
[H]c1nc([H])c([H])c(C([H])([H])[N+]2([H])C([H])(C#N)C([H])([H])C3(C(=O)[O-])C([H])([H])C32[H])n1

$$$$
112:1:1
     RDKit          3D

 30 32  0  0  1  0  0  0  0  0999 V2000
    5.1288   -1.6556    3.4016 N   0  0  0  0  0  0  0  0  0  0  0  0
    4.3043   -2.3297    2.9640 C   0  0  0  0  0  0  0  0  0  0  0  0
    3.2427   -3.1769    2.4127 C   0  0  2  0  0  0  0  0  0  0  0  0
    3.0709   -4.5182    3.1227 C   0  0  0  0  0  0  0  0  0  0  0  0
    2.5065   -5.3939    2.0319 C   0  0  2  0  0  0  0  0  0  0  0  0
    1.0956   -5.9589    2.2958 C   0  0  0  0  0  0  0  0  0  0  0  0
    0.4018   -6.2614    1.3037 O   0  0  0  0  0  0  0  0  0  0  0  0
    0.7193   -6.0300    3.4843 O   0  0  0  0  0  0  0  0  0  0  0  0
    3.3767   -6.0350    0.9796 C   0  0  0  0  0  0  0  0  0  0  0  0
    2.7441   -4.7059    0.6919 C   0  0  2  0  0  0  0  0  0  0  0  0
    3.5780   -3.5125    1.0016 N   0  0  1  0  0  0  0  0  0  0  0  0
    3.4480   -2.3760    0.0547 C   0  0  0  0  0  0  0  0  0  0  0  0
    3.6830   -2.7653   -1.4006 C   0  0  0  0  0  0  0  0  0  0  0  0
    2.6179   -2.8619   -2.3133 C   0  0  0  0  0  0  0  0  0  0  0  0
    2.9442   -3.2108   -3.6328 C   0  0  0  0  0  0  0  0  0  0  0  0
    4.2185   -3.4294   -4.0010 N   0  0  0  0  0  0  0  0  0  0  0  0
    5.1471   -3.3203   -3.0576 C   0  0  0  0  0  0  0  0  0  0  0  0
    4.9588   -2.9980   -1.7713 N   0  0  0  0  0  0  0  0  0  0  0  0
    2.3115   -2.6111    2.4579 H   0  0  0  0  0  0  0  0  0  0  0  0
    4.0376   -4.9308    3.4073 H   0  0  0  0  0  0  0  0  0  0  0  0
    2.4567   -4.4453    4.0210 H   0  0  0  0  0  0  0  0  0  0  0  0
    4.4480   -6.0676    1.1823 H   0  0  0  0  0  0  0  0  0  0  0  0
    2.9555   -6.9039    0.4804 H   0  0  0  0  0  0  0  0  0  0  0  0
    1.9201   -4.5820   -0.0112 H   0  0  0  0  0  0  0  0  0  0  0  0
    2.4661   -1.9268    0.1510 H   0  0  0  0  0  0  0  0  0  0  0  0
    4.1643   -1.5970    0.3203 H   0  0  0  0  0  0  0  0  0  0  0  0
    1.5919   -2.6597   -2.0374 H   0  0  0  0  0  0  0  0  0  0  0  0
    2.1873   -3.3209   -4.3947 H   0  0  0  0  0  0  0  0  0  0  0  0
    6.1610   -3.4904   -3.3780 H   0  0  0  0  0  0  0  0  0  0  0  0
    4.5423   -3.8164    0.9440 H   0  0  0  0  0  0  0  0  0  0  0  0
  1  2  3  0
  2  3  1  0
  3 11  1  0
  3  4  1  0
  3 19  1  6
  4  5  1  0
  4 20  1  0
  4 21  1  0
  5 10  1  0
  5  6  1  1
  5  9  1  0
  6  7  2  0
  6  8  1  0
  9 10  1  0
  9 22  1  0
  9 23  1  0
 10 11  1  0
 10 24  1  6
 11 12  1  0
 11 30  1  1
 12 13  1  0
 12 25  1  0
 12 26  1  0
 13 18  1  0
 13 14  2  0
 14 15  1  0
 14 27  1  0
 15 16  2  0
 15 28  1  0
 16 17  1  0
 17 18  2  0
 17 29  1  0
M  CHG  2   8  -1  11   1
M  END
>  <i_m_ct_stereo_status>  (369) 
1

>  <s_m_source_file>  (369) 
/var/tmp/pbs.5076255.sched01/tmpsouvlwkc/11751gt6aqu.sdf

>  <i_m_source_file_index>  (369) 
33

>  <i_lp_mmshare_version>  (369) 
48012

>  <i_f3d_flags>  (369) 
0

>  <s_epik_input>  (369) 
Tz1DKFtPSF0pW0NAQF0xMltDQEhdKFtDSDJdMilOKFtDQEhdKEMjTilbQ0gyXTEpW0NIMl1jM1tjSF1bY0hdbltjSF1uMw==

>  <s_epik_cmdline>  (369) 
J2VwaWtfcHl0aG9uJywgJy1waHQnLCAnMi4wJywgJy1waCcsICc3LjAnLCAnLXRuJywgJzgnLCAnLW1hJywgJzIwMCcsICctaW1hZScsICc8aW5maWxlLm1hZT4nLCAnLW9tYWUnLCAnPG91dGZpbGUubWFlPic=

>  <r_lp_tautomer_probability>  (369) 
1

>  <r_epik_Ionization_Penalty>  (369) 
1.0984

>  <r_epik_Ionization_Penalty_Charging>  (369) 
1.09559

>  <r_epik_Ionization_Penalty_Neutral>  (369) 
0.00281272

>  <r_epik_State_Penalty>  (369) 
1.15226

>  <r_epik_Charging_Adjusted_Penalty>  (369) 
2.24785

>  <i_epik_Tot_Q>  (369) 
0

>  <i_epik_Tot_abs_Q>  (369) 
2

>  <s_epik_Chemistry_Notes>  (369) 
This compound contains an electron-poor aromatic ring that is susceptible to covalent hydrolysis at low pH, typically resulting in measured values for nitrogen ring protonation that are around two units higher than predicted values.

>  <s_lp_Force_Field>  (369) 
OPLS3e

>  <r_lp_Energy>  (369) 
22.2799

>  <b_lp_Chiralities_Consistent>  (369) 
1

>  <s_lp_Variant>  (369) 
112:0-2

>  <s_i_glide_gridfile>  (369) 
pfpi4k_grid

>  <i_i_glide_lignum>  (369) 
33

>  <i_i_glide_rotatable_bonds>  (369) 
4

>  <r_i_docking_score>  (369) 
-4.42784

>  <r_i_glide_ligand_efficiency>  (369) 
-0.245991

>  <r_i_glide_ligand_efficiency_sa>  (369) 
-0.644679

>  <r_i_glide_ligand_efficiency_ln>  (369) 
-1.13815

>  <r_i_glide_gscore>  (369) 
-4.42784

>  <r_i_glide_lipo>  (369) 
-0.247077

>  <r_i_glide_hbond>  (369) 
-0.250947

>  <r_i_glide_metal>  (369) 
-0

>  <r_i_glide_rewards>  (369) 
-2.09386

>  <r_i_glide_evdw>  (369) 
-19.0056

>  <r_i_glide_ecoul>  (369) 
-9.38439

>  <r_i_glide_erotb>  (369) 
0.58276

>  <r_i_glide_esite>  (369) 
-0.0607736

>  <r_i_glide_emodel>  (369) 
-39.7236

>  <r_i_glide_energy>  (369) 
-28.39

>  <r_i_glide_einternal>  (369) 
0.0918274

>  <r_i_glide_intrahb_reward>  (369) 
-0

>  <i_i_glide_confnum>  (369) 
1

>  <i_i_glide_posenum>  (369) 
37

>  <r_i_glide_eff_state_penalty>  (369) 
0

>  <ligand_id>  (369) 
112

>  <original_smiles>  (369) 
N#CC1CC2(C(=O)O)CC2N1Cc1ccncn1

>  <smiles>  (369) 
[H]c1nc([H])c([H])c(C([H])([H])[N+]2([H])C([H])(C#N)C([H])([H])C3(C(=O)[O-])C([H])([H])C32[H])n1

$$$$
112:1:2
     RDKit          3D

 30 32  0  0  1  0  0  0  0  0999 V2000
    7.4025   -2.2604    0.4084 N   0  0  0  0  0  0  0  0  0  0  0  0
    6.4356   -2.0588    1.0081 C   0  0  0  0  0  0  0  0  0  0  0  0
    5.2117   -1.7877    1.7676 C   0  0  2  0  0  0  0  0  0  0  0  0
    5.0169   -2.6576    3.0058 C   0  0  0  0  0  0  0  0  0  0  0  0
    3.5152   -2.6799    3.1527 C   0  0  2  0  0  0  0  0  0  0  0  0
    2.9638   -2.0456    4.4409 C   0  0  0  0  0  0  0  0  0  0  0  0
    1.7210   -2.0419    4.5766 O   0  0  0  0  0  0  0  0  0  0  0  0
    3.7822   -1.5868    5.2632 O   0  0  0  0  0  0  0  0  0  0  0  0
    2.6413   -3.6208    2.3499 C   0  0  0  0  0  0  0  0  0  0  0  0
    2.8906   -2.2299    1.8418 C   0  0  2  0  0  0  0  0  0  0  0  0
    4.0358   -2.0654    0.8990 N   0  0  1  0  0  0  0  0  0  0  0  0
    3.8234   -1.0725   -0.1869 C   0  0  0  0  0  0  0  0  0  0  0  0
    3.9321   -1.6861   -1.5766 C   0  0  0  0  0  0  0  0  0  0  0  0
    3.0643   -1.2952   -2.6082 C   0  0  0  0  0  0  0  0  0  0  0  0
    3.2355   -1.9091   -3.8567 C   0  0  0  0  0  0  0  0  0  0  0  0
    4.2103   -2.8121   -4.0543 N   0  0  0  0  0  0  0  0  0  0  0  0
    4.9838   -3.1147   -3.0125 C   0  0  0  0  0  0  0  0  0  0  0  0
    4.9028   -2.6032   -1.7777 N   0  0  0  0  0  0  0  0  0  0  0  0
    5.2158   -0.7375    2.0607 H   0  0  0  0  0  0  0  0  0  0  0  0
    5.3428   -3.6805    2.8215 H   0  0  0  0  0  0  0  0  0  0  0  0
    5.5584   -2.2839    3.8714 H   0  0  0  0  0  0  0  0  0  0  0  0
    3.1424   -4.4500    1.8495 H   0  0  0  0  0  0  0  0  0  0  0  0
    1.6513   -3.8296    2.7429 H   0  0  0  0  0  0  0  0  0  0  0  0
    2.1246   -1.4519    1.8660 H   0  0  0  0  0  0  0  0  0  0  0  0
    2.8384   -0.6199   -0.0915 H   0  0  0  0  0  0  0  0  0  0  0  0
    4.5418   -0.2523   -0.1231 H   0  0  0  0  0  0  0  0  0  0  0  0
    2.2792   -0.5637   -2.4678 H   0  0  0  0  0  0  0  0  0  0  0  0
    2.6006   -1.6569   -4.6981 H   0  0  0  0  0  0  0  0  0  0  0  0
    5.7724   -3.8262   -3.2082 H   0  0  0  0  0  0  0  0  0  0  0  0
    4.1785   -2.9566    0.4317 H   0  0  0  0  0  0  0  0  0  0  0  0
  1  2  3  0
  2  3  1  0
  3 11  1  0
  3  4  1  0
  3 19  1  1
  4  5  1  0
  4 20  1  0
  4 21  1  0
  5 10  1  0
  5  6  1  1
  5  9  1  0
  6  7  2  0
  6  8  1  0
  9 10  1  0
  9 22  1  0
  9 23  1  0
 10 11  1  0
 10 24  1  1
 11 12  1  0
 11 30  1  6
 12 13  1  0
 12 25  1  0
 12 26  1  0
 13 18  1  0
 13 14  2  0
 14 15  1  0
 14 27  1  0
 15 16  2  0
 15 28  1  0
 16 17  1  0
 17 18  2  0
 17 29  1  0
M  CHG  2   8  -1  11   1
M  END
>  <i_m_ct_stereo_status>  (370) 
1

>  <s_m_source_file>  (370) 
/var/tmp/pbs.5076255.sched01/tmpsouvlwkc/11751gt6aqu.sdf

>  <i_m_source_file_index>  (370) 
33

>  <i_lp_mmshare_version>  (370) 
48012

>  <i_f3d_flags>  (370) 
0

>  <s_epik_input>  (370) 
Tz1DKFtPSF0pW0NAQF0xMltDQEhdKFtDSDJdMilOKFtDQEhdKEMjTilbQ0gyXTEpW0NIMl1jM1tjSF1bY0hdbltjSF1uMw==

>  <s_epik_cmdline>  (370) 
J2VwaWtfcHl0aG9uJywgJy1waHQnLCAnMi4wJywgJy1waCcsICc3LjAnLCAnLXRuJywgJzgnLCAnLW1hJywgJzIwMCcsICctaW1hZScsICc8aW5maWxlLm1hZT4nLCAnLW9tYWUnLCAnPG91dGZpbGUubWFlPic=

>  <r_lp_tautomer_probability>  (370) 
1

>  <r_epik_Ionization_Penalty>  (370) 
1.0984

>  <r_epik_Ionization_Penalty_Charging>  (370) 
1.09559

>  <r_epik_Ionization_Penalty_Neutral>  (370) 
0.00281272

>  <r_epik_State_Penalty>  (370) 
1.15226

>  <r_epik_Charging_Adjusted_Penalty>  (370) 
2.24785

>  <i_epik_Tot_Q>  (370) 
0

>  <i_epik_Tot_abs_Q>  (370) 
2

>  <s_epik_Chemistry_Notes>  (370) 
This compound contains an electron-poor aromatic ring that is susceptible to covalent hydrolysis at low pH, typically resulting in measured values for nitrogen ring protonation that are around two units higher than predicted values.

>  <s_lp_Force_Field>  (370) 
OPLS3e

>  <r_lp_Energy>  (370) 
22.2799

>  <b_lp_Chiralities_Consistent>  (370) 
1

>  <s_lp_Variant>  (370) 
112:0-2

>  <s_i_glide_gridfile>  (370) 
pfpi4k_grid

>  <i_i_glide_lignum>  (370) 
33

>  <i_i_glide_rotatable_bonds>  (370) 
4

>  <r_i_docking_score>  (370) 
-3.96696

>  <r_i_glide_ligand_efficiency>  (370) 
-0.220387

>  <r_i_glide_ligand_efficiency_sa>  (370) 
-0.577576

>  <r_i_glide_ligand_efficiency_ln>  (370) 
-1.01969

>  <r_i_glide_gscore>  (370) 
-3.96696

>  <r_i_glide_lipo>  (370) 
-0.266302

>  <r_i_glide_hbond>  (370) 
-0.217014

>  <r_i_glide_metal>  (370) 
-0

>  <r_i_glide_rewards>  (370) 
-2.11357

>  <r_i_glide_evdw>  (370) 
-19.2602

>  <r_i_glide_ecoul>  (370) 
-6.52947

>  <r_i_glide_erotb>  (370) 
0.58276

>  <r_i_glide_esite>  (370) 
-0.0103967

>  <r_i_glide_emodel>  (370) 
-34.2825

>  <r_i_glide_energy>  (370) 
-25.7897

>  <r_i_glide_einternal>  (370) 
3.51282

>  <r_i_glide_intrahb_reward>  (370) 
-0

>  <i_i_glide_confnum>  (370) 
3

>  <i_i_glide_posenum>  (370) 
6

>  <r_i_glide_eff_state_penalty>  (370) 
0

>  <ligand_id>  (370) 
112

>  <original_smiles>  (370) 
N#CC1CC2(C(=O)O)CC2N1Cc1ccncn1

>  <smiles>  (370) 
[H]c1nc([H])c([H])c(C([H])([H])[N+]2([H])C([H])(C#N)C([H])([H])C3(C(=O)[O-])C([H])([H])C32[H])n1

$$$$
113:0:0
     RDKit          3D

 25 27  0  0  1  0  0  0  0  0999 V2000
    4.7351   -3.9325   -4.3010 O   0  0  0  0  0  0  0  0  0  0  0  0
    4.4453   -3.4034   -3.2326 C   0  0  0  0  0  0  0  0  0  0  0  0
    5.3169   -3.4600   -1.9700 C   0  0  1  0  0  0  0  0  0  0  0  0
    5.6781   -2.0203   -1.5444 C   0  0  0  0  0  0  0  0  0  0  0  0
    4.3917   -1.1986   -1.3078 C   0  0  2  0  0  0  0  0  0  0  0  0
    3.5764   -1.8561   -0.1723 C   0  0  0  0  0  0  0  0  0  0  0  0
    3.1900   -3.2913   -0.5934 C   0  0  2  0  0  0  0  0  0  0  0  0
    4.4901   -4.1065   -0.8306 C   0  0  0  0  0  0  0  0  0  0  0  0
    2.3520   -3.2516   -1.9036 C   0  0  0  0  0  0  0  0  0  0  0  0
    3.1606   -2.5964   -3.0423 C   0  0  1  0  0  0  0  0  0  0  0  0
    3.5608   -1.1639   -2.6168 C   0  0  0  0  0  0  0  0  0  0  0  0
    6.2193   -4.0347   -2.1747 H   0  0  0  0  0  0  0  0  0  0  0  0
    6.2836   -2.0375   -0.6394 H   0  0  0  0  0  0  0  0  0  0  0  0
    6.2753   -1.5545   -2.3210 H   0  0  0  0  0  0  0  0  0  0  0  0
    4.6503   -0.1853   -1.0089 H   0  0  0  0  0  0  0  0  0  0  0  0
    4.1634   -1.8727    0.7490 H   0  0  0  0  0  0  0  0  0  0  0  0
    2.6846   -1.2670    0.0537 H   0  0  0  0  0  0  0  0  0  0  0  0
    2.6100   -3.7551    0.2061 H   0  0  0  0  0  0  0  0  0  0  0  0
    4.2345   -5.1339   -1.0867 H   0  0  0  0  0  0  0  0  0  0  0  0
    5.0820   -4.1557    0.0871 H   0  0  0  0  0  0  0  0  0  0  0  0
    2.0364   -4.2546   -2.1799 H   0  0  0  0  0  0  0  0  0  0  0  0
    1.4277   -2.6910   -1.7866 H   0  0  0  0  0  0  0  0  0  0  0  0
    2.5798   -2.5829   -3.9653 H   0  0  0  0  0  0  0  0  0  0  0  0
    2.6593   -0.5649   -2.4799 H   0  0  0  0  0  0  0  0  0  0  0  0
    4.1331   -0.6798   -3.4097 H   0  0  0  0  0  0  0  0  0  0  0  0
  1  2  2  0
  2 10  1  0
  2  3  1  0
  3  8  1  0
  3  4  1  0
  3 12  1  6
  4  5  1  0
  4 13  1  0
  4 14  1  0
  5 11  1  0
  5  6  1  0
  5 15  1  1
  6  7  1  0
  6 16  1  0
  6 17  1  0
  7  8  1  0
  7  9  1  0
  7 18  1  1
  8 19  1  0
  8 20  1  0
  9 10  1  0
  9 21  1  0
  9 22  1  0
 10 11  1  0
 10 23  1  6
 11 24  1  0
 11 25  1  0
M  END
>  <i_m_ct_stereo_status>  (371) 
1

>  <s_m_source_file>  (371) 
/var/tmp/pbs.5076255.sched01/tmpsouvlwkc/11751gt6aqu.sdf

>  <i_m_source_file_index>  (371) 
34

>  <i_lp_mmshare_version>  (371) 
48012

>  <i_f3d_flags>  (371) 
0

>  <s_epik_input>  (371) 
Tz1DKFtDQEBIXTEyKVtDQEhdM1tDSDJdW0NAQEhdKFtDSDJdMilbQ0gyXVtDQEBIXShbQ0gyXTEpW0NIMl0z

>  <s_epik_cmdline>  (371) 
J2VwaWtfcHl0aG9uJywgJy1waHQnLCAnMi4wJywgJy1waCcsICc3LjAnLCAnLXRuJywgJzgnLCAnLW1hJywgJzIwMCcsICctaW1hZScsICc8aW5maWxlLm1hZT4nLCAnLW9tYWUnLCAnPG91dGZpbGUubWFlPic=

>  <r_lp_tautomer_probability>  (371) 
1

>  <r_epik_Ionization_Penalty>  (371) 
2.4733e-14

>  <r_epik_Ionization_Penalty_Charging>  (371) 
0

>  <r_epik_Ionization_Penalty_Neutral>  (371) 
2.4733e-14

>  <r_epik_State_Penalty>  (371) 
-0

>  <r_epik_Charging_Adjusted_Penalty>  (371) 
0

>  <i_epik_Tot_Q>  (371) 
0

>  <i_epik_Tot_abs_Q>  (371) 
0

>  <s_lp_Force_Field>  (371) 
OPLS3e

>  <r_lp_Energy>  (371) 
18.5404

>  <b_lp_Chiralities_Consistent>  (371) 
1

>  <s_lp_Variant>  (371) 
113:0-1

>  <s_i_glide_gridfile>  (371) 
pfpi4k_grid

>  <i_i_glide_lignum>  (371) 
34

>  <i_i_glide_rotatable_bonds>  (371) 
0

>  <r_i_docking_score>  (371) 
-3.96242

>  <r_i_glide_ligand_efficiency>  (371) 
-0.36022

>  <r_i_glide_ligand_efficiency_sa>  (371) 
-0.801123

>  <r_i_glide_ligand_efficiency_ln>  (371) 
-1.16614

>  <r_i_glide_gscore>  (371) 
-3.96242

>  <r_i_glide_lipo>  (371) 
-0.341292

>  <r_i_glide_hbond>  (371) 
-0.00467774

>  <r_i_glide_metal>  (371) 
-0

>  <r_i_glide_rewards>  (371) 
-2.42398

>  <r_i_glide_evdw>  (371) 
-16.2361

>  <r_i_glide_ecoul>  (371) 
-2.5378

>  <r_i_glide_erotb>  (371) 
0

>  <r_i_glide_esite>  (371) 
0

>  <r_i_glide_emodel>  (371) 
-23.1473

>  <r_i_glide_energy>  (371) 
-18.7739

>  <r_i_glide_einternal>  (371) 
0

>  <r_i_glide_intrahb_reward>  (371) 
-0

>  <i_i_glide_confnum>  (371) 
1

>  <i_i_glide_posenum>  (371) 
17

>  <r_i_glide_eff_state_penalty>  (371) 
0

>  <ligand_id>  (371) 
113

>  <original_smiles>  (371) 
O=C1C2CC3CC(C2)CC1C3

>  <smiles>  (371) 
[H]C1([H])C2([H])C(=O)C3([H])C([H])([H])C1([H])C([H])([H])C([H])(C2([H])[H])C3([H])[H]

$$$$
113:0:1
     RDKit          3D

 25 27  0  0  1  0  0  0  0  0999 V2000
    4.2648   -2.9697   -3.8418 O   0  0  0  0  0  0  0  0  0  0  0  0
    4.4147   -2.9049   -2.6216 C   0  0  0  0  0  0  0  0  0  0  0  0
    5.6356   -3.4597   -1.8866 C   0  0  1  0  0  0  0  0  0  0  0  0
    6.3368   -2.3007   -1.1539 C   0  0  0  0  0  0  0  0  0  0  0  0
    5.3640   -1.6223   -0.1649 C   0  0  2  0  0  0  0  0  0  0  0  0
    4.8826   -2.6501    0.8793 C   0  0  0  0  0  0  0  0  0  0  0  0
    4.1677   -3.8109    0.1559 C   0  0  2  0  0  0  0  0  0  0  0  0
    5.1488   -4.4844   -0.8291 C   0  0  0  0  0  0  0  0  0  0  0  0
    2.9544   -3.2641   -0.6328 C   0  0  0  0  0  0  0  0  0  0  0  0
    3.4168   -2.2258   -1.6839 C   0  0  1  0  0  0  0  0  0  0  0  0
    4.1513   -1.0782   -0.9509 C   0  0  0  0  0  0  0  0  0  0  0  0
    6.3164   -3.9080   -2.6104 H   0  0  0  0  0  0  0  0  0  0  0  0
    7.2198   -2.6634   -0.6244 H   0  0  0  0  0  0  0  0  0  0  0  0
    6.6721   -1.5774   -1.8920 H   0  0  0  0  0  0  0  0  0  0  0  0
    5.8645   -0.7979    0.3430 H   0  0  0  0  0  0  0  0  0  0  0  0
    5.7276   -3.0276    1.4570 H   0  0  0  0  0  0  0  0  0  0  0  0
    4.2090   -2.1770    1.5953 H   0  0  0  0  0  0  0  0  0  0  0  0
    3.8323   -4.5460    0.8884 H   0  0  0  0  0  0  0  0  0  0  0  0
    4.6611   -5.3288   -1.3209 H   0  0  0  0  0  0  0  0  0  0  0  0
    6.0036   -4.8970   -0.2895 H   0  0  0  0  0  0  0  0  0  0  0  0
    2.4203   -4.0849   -1.1168 H   0  0  0  0  0  0  0  0  0  0  0  0
    2.2447   -2.7984    0.0553 H   0  0  0  0  0  0  0  0  0  0  0  0
    2.5625   -1.8473   -2.2498 H   0  0  0  0  0  0  0  0  0  0  0  0
    3.4578   -0.5902   -0.2649 H   0  0  0  0  0  0  0  0  0  0  0  0
    4.4753   -0.3204   -1.6695 H   0  0  0  0  0  0  0  0  0  0  0  0
  1  2  2  0
  2 10  1  0
  2  3  1  0
  3  8  1  0
  3  4  1  0
  3 12  1  6
  4  5  1  0
  4 13  1  0
  4 14  1  0
  5 11  1  0
  5  6  1  0
  5 15  1  1
  6  7  1  0
  6 16  1  0
  6 17  1  0
  7  8  1  0
  7  9  1  0
  7 18  1  1
  8 19  1  0
  8 20  1  0
  9 10  1  0
  9 21  1  0
  9 22  1  0
 10 11  1  0
 10 23  1  6
 11 24  1  0
 11 25  1  0
M  END
>  <i_m_ct_stereo_status>  (372) 
1

>  <s_m_source_file>  (372) 
/var/tmp/pbs.5076255.sched01/tmpsouvlwkc/11751gt6aqu.sdf

>  <i_m_source_file_index>  (372) 
34

>  <i_lp_mmshare_version>  (372) 
48012

>  <i_f3d_flags>  (372) 
0

>  <s_epik_input>  (372) 
Tz1DKFtDQEBIXTEyKVtDQEhdM1tDSDJdW0NAQEhdKFtDSDJdMilbQ0gyXVtDQEBIXShbQ0gyXTEpW0NIMl0z

>  <s_epik_cmdline>  (372) 
J2VwaWtfcHl0aG9uJywgJy1waHQnLCAnMi4wJywgJy1waCcsICc3LjAnLCAnLXRuJywgJzgnLCAnLW1hJywgJzIwMCcsICctaW1hZScsICc8aW5maWxlLm1hZT4nLCAnLW9tYWUnLCAnPG91dGZpbGUubWFlPic=

>  <r_lp_tautomer_probability>  (372) 
1

>  <r_epik_Ionization_Penalty>  (372) 
2.4733e-14

>  <r_epik_Ionization_Penalty_Charging>  (372) 
0

>  <r_epik_Ionization_Penalty_Neutral>  (372) 
2.4733e-14

>  <r_epik_State_Penalty>  (372) 
-0

>  <r_epik_Charging_Adjusted_Penalty>  (372) 
0

>  <i_epik_Tot_Q>  (372) 
0

>  <i_epik_Tot_abs_Q>  (372) 
0

>  <s_lp_Force_Field>  (372) 
OPLS3e

>  <r_lp_Energy>  (372) 
18.5404

>  <b_lp_Chiralities_Consistent>  (372) 
1

>  <s_lp_Variant>  (372) 
113:0-1

>  <s_i_glide_gridfile>  (372) 
pfpi4k_grid

>  <i_i_glide_lignum>  (372) 
34

>  <i_i_glide_rotatable_bonds>  (372) 
0

>  <r_i_docking_score>  (372) 
-3.71515

>  <r_i_glide_ligand_efficiency>  (372) 
-0.337741

>  <r_i_glide_ligand_efficiency_sa>  (372) 
-0.751128

>  <r_i_glide_ligand_efficiency_ln>  (372) 
-1.09337

>  <r_i_glide_gscore>  (372) 
-3.71515

>  <r_i_glide_lipo>  (372) 
-0.210454

>  <r_i_glide_hbond>  (372) 
-0.0496448

>  <r_i_glide_metal>  (372) 
-0

>  <r_i_glide_rewards>  (372) 
-2.31056

>  <r_i_glide_evdw>  (372) 
-17.0338

>  <r_i_glide_ecoul>  (372) 
-1.95197

>  <r_i_glide_erotb>  (372) 
0

>  <r_i_glide_esite>  (372) 
0

>  <r_i_glide_emodel>  (372) 
-23.0914

>  <r_i_glide_energy>  (372) 
-18.9858

>  <r_i_glide_einternal>  (372) 
0

>  <r_i_glide_intrahb_reward>  (372) 
-0

>  <i_i_glide_confnum>  (372) 
1

>  <i_i_glide_posenum>  (372) 
1

>  <r_i_glide_eff_state_penalty>  (372) 
0

>  <ligand_id>  (372) 
113

>  <original_smiles>  (372) 
O=C1C2CC3CC(C2)CC1C3

>  <smiles>  (372) 
[H]C1([H])C2([H])C(=O)C3([H])C([H])([H])C1([H])C([H])([H])C([H])(C2([H])[H])C3([H])[H]

$$$$
113:0:2
     RDKit          3D

 25 27  0  0  1  0  0  0  0  0999 V2000
    4.5837   -5.0078    0.4827 O   0  0  0  0  0  0  0  0  0  0  0  0
    4.6628   -3.9510   -0.1317 C   0  0  0  0  0  0  0  0  0  0  0  0
    5.9739   -3.4074   -0.7134 C   0  0  1  0  0  0  0  0  0  0  0  0
    5.7874   -3.2274   -2.2409 C   0  0  0  0  0  0  0  0  0  0  0  0
    4.5987   -2.2820   -2.5242 C   0  0  2  0  0  0  0  0  0  0  0  0
    4.8811   -0.9110   -1.8842 C   0  0  0  0  0  0  0  0  0  0  0  0
    5.0670   -1.0623   -0.3584 C   0  0  2  0  0  0  0  0  0  0  0  0
    6.2448   -2.0255   -0.0658 C   0  0  0  0  0  0  0  0  0  0  0  0
    3.7727   -1.6491    0.2482 C   0  0  0  0  0  0  0  0  0  0  0  0
    3.4617   -3.0315   -0.3839 C   0  0  1  0  0  0  0  0  0  0  0  0
    3.3055   -2.8727   -1.9153 C   0  0  0  0  0  0  0  0  0  0  0  0
    6.7869   -4.1010   -0.5014 H   0  0  0  0  0  0  0  0  0  0  0  0
    6.6982   -2.8279   -2.6882 H   0  0  0  0  0  0  0  0  0  0  0  0
    5.6101   -4.1900   -2.7218 H   0  0  0  0  0  0  0  0  0  0  0  0
    4.4707   -2.1549   -3.5996 H   0  0  0  0  0  0  0  0  0  0  0  0
    5.7722   -0.4669   -2.3167 H   0  0  0  0  0  0  0  0  0  0  0  0
    4.0538   -0.2366   -2.1022 H   0  0  0  0  0  0  0  0  0  0  0  0
    5.2676   -0.0917    0.0937 H   0  0  0  0  0  0  0  0  0  0  0  0
    6.3848   -2.1353    1.0118 H   0  0  0  0  0  0  0  0  0  0  0  0
    7.1808   -1.6156   -0.4456 H   0  0  0  0  0  0  0  0  0  0  0  0
    3.8637   -1.7372    1.3325 H   0  0  0  0  0  0  0  0  0  0  0  0
    2.9460   -0.9607    0.0735 H   0  0  0  0  0  0  0  0  0  0  0  0
    2.5598   -3.4589    0.0554 H   0  0  0  0  0  0  0  0  0  0  0  0
    2.4578   -2.2225   -2.1322 H   0  0  0  0  0  0  0  0  0  0  0  0
    3.0747   -3.8406   -2.3710 H   0  0  0  0  0  0  0  0  0  0  0  0
  1  2  2  0
  2 10  1  0
  2  3  1  0
  3  8  1  0
  3  4  1  0
  3 12  1  6
  4  5  1  0
  4 13  1  0
  4 14  1  0
  5 11  1  0
  5  6  1  0
  5 15  1  6
  6  7  1  0
  6 16  1  0
  6 17  1  0
  7  8  1  0
  7  9  1  0
  7 18  1  1
  8 19  1  0
  8 20  1  0
  9 10  1  0
  9 21  1  0
  9 22  1  0
 10 11  1  0
 10 23  1  1
 11 24  1  0
 11 25  1  0
M  END
>  <i_m_ct_stereo_status>  (373) 
1

>  <s_m_source_file>  (373) 
/var/tmp/pbs.5076255.sched01/tmpsouvlwkc/11751gt6aqu.sdf

>  <i_m_source_file_index>  (373) 
34

>  <i_lp_mmshare_version>  (373) 
48012

>  <i_f3d_flags>  (373) 
0

>  <s_epik_input>  (373) 
Tz1DKFtDQEBIXTEyKVtDQEhdM1tDSDJdW0NAQEhdKFtDSDJdMilbQ0gyXVtDQEBIXShbQ0gyXTEpW0NIMl0z

>  <s_epik_cmdline>  (373) 
J2VwaWtfcHl0aG9uJywgJy1waHQnLCAnMi4wJywgJy1waCcsICc3LjAnLCAnLXRuJywgJzgnLCAnLW1hJywgJzIwMCcsICctaW1hZScsICc8aW5maWxlLm1hZT4nLCAnLW9tYWUnLCAnPG91dGZpbGUubWFlPic=

>  <r_lp_tautomer_probability>  (373) 
1

>  <r_epik_Ionization_Penalty>  (373) 
2.4733e-14

>  <r_epik_Ionization_Penalty_Charging>  (373) 
0

>  <r_epik_Ionization_Penalty_Neutral>  (373) 
2.4733e-14

>  <r_epik_State_Penalty>  (373) 
-0

>  <r_epik_Charging_Adjusted_Penalty>  (373) 
0

>  <i_epik_Tot_Q>  (373) 
0

>  <i_epik_Tot_abs_Q>  (373) 
0

>  <s_lp_Force_Field>  (373) 
OPLS3e

>  <r_lp_Energy>  (373) 
18.5404

>  <b_lp_Chiralities_Consistent>  (373) 
1

>  <s_lp_Variant>  (373) 
113:0-1

>  <s_i_glide_gridfile>  (373) 
pfpi4k_grid

>  <i_i_glide_lignum>  (373) 
34

>  <i_i_glide_rotatable_bonds>  (373) 
0

>  <r_i_docking_score>  (373) 
-3.59214

>  <r_i_glide_ligand_efficiency>  (373) 
-0.326558

>  <r_i_glide_ligand_efficiency_sa>  (373) 
-0.726259

>  <r_i_glide_ligand_efficiency_ln>  (373) 
-1.05717

>  <r_i_glide_gscore>  (373) 
-3.59214

>  <r_i_glide_lipo>  (373) 
-0.404774

>  <r_i_glide_hbond>  (373) 
0

>  <r_i_glide_metal>  (373) 
-0

>  <r_i_glide_rewards>  (373) 
-2.28552

>  <r_i_glide_evdw>  (373) 
-16.8908

>  <r_i_glide_ecoul>  (373) 
-0.381998

>  <r_i_glide_erotb>  (373) 
0

>  <r_i_glide_esite>  (373) 
0

>  <r_i_glide_emodel>  (373) 
-21.2367

>  <r_i_glide_energy>  (373) 
-17.2728

>  <r_i_glide_einternal>  (373) 
0

>  <r_i_glide_intrahb_reward>  (373) 
-0

>  <i_i_glide_confnum>  (373) 
1

>  <i_i_glide_posenum>  (373) 
11

>  <r_i_glide_eff_state_penalty>  (373) 
0

>  <ligand_id>  (373) 
113

>  <original_smiles>  (373) 
O=C1C2CC3CC(C2)CC1C3

>  <smiles>  (373) 
[H]C1([H])C2([H])C(=O)C3([H])C([H])([H])C1([H])C([H])([H])C([H])(C2([H])[H])C3([H])[H]

$$$$
115:0:0
     RDKit          3D

 87 94  0  0  1  0  0  0  0  0999 V2000
    3.0786   -9.7249    3.9700 C   0  0  0  0  0  0  0  0  0  0  0  0
    2.1761   -9.3765    5.1740 C   0  0  2  0  0  0  0  0  0  0  0  0
    1.1913   -8.2231    4.8589 C   0  0  0  0  0  0  0  0  0  0  0  0
    0.5064   -7.5391    6.0422 C   0  0  0  0  0  0  0  0  0  0  0  0
    1.2875   -7.4291    7.3829 C   0  0  2  0  0  0  0  0  0  0  0  0
    0.1564   -7.3013    8.4575 C   0  0  0  0  0  0  0  0  0  0  0  0
    2.3663   -6.2131    7.5282 C   0  0  1  0  0  0  0  0  0  0  0  0
    1.7027   -5.0439    8.3497 C   0  0  0  0  0  0  0  0  0  0  0  0
    3.5046   -6.6444    8.4969 C   0  0  0  0  0  0  0  0  0  0  0  0
    3.9167   -8.1132    8.3971 C   0  0  1  0  0  0  0  0  0  0  0  0
    2.7313   -8.7767    8.8039 O   0  0  0  0  0  0  0  0  0  0  0  0
    1.9206   -8.8655    7.6683 C   0  0  1  0  0  0  0  0  0  0  0  0
    0.8940   -9.8394    7.8703 O   0  0  0  0  0  0  0  0  0  0  0  0
    2.8833   -9.3466    6.5677 C   0  0  2  0  0  0  0  0  0  0  0  0
    4.2351   -8.7517    7.0242 C   0  0  1  0  0  0  0  0  0  0  0  0
    5.2911   -8.1369    6.0941 C   0  0  0  0  0  0  0  0  0  0  0  0
    5.1868   -6.6322    5.8148 C   0  0  0  0  0  0  0  0  0  0  0  0
    3.8418   -6.1979    5.1652 C   0  0  1  0  0  0  0  0  0  0  0  0
    2.8899   -5.4771    6.1824 C   0  0  2  0  0  0  0  0  0  0  0  0
    3.5219   -4.0667    6.4111 C   0  0  0  0  0  0  0  0  0  0  0  0
    4.1040   -3.3850    5.1936 C   0  0  0  0  0  0  0  0  0  0  0  0
    4.3060   -3.9549    3.9813 C   0  0  0  0  0  0  0  0  0  0  0  0
    4.0111   -5.4339    3.7736 C   0  0  1  0  0  0  0  0  0  0  0  0
    5.1198   -6.1399    2.9352 C   0  0  0  0  0  0  0  0  0  0  0  0
    2.7214   -5.4383    2.9133 C   0  0  0  0  0  0  0  0  0  0  0  0
    2.8242   -4.6598    1.5789 C   0  0  0  0  0  0  0  0  0  0  0  0
    3.5041   -3.2567    1.6131 C   0  0  2  0  0  0  0  0  0  0  0  0
    2.4384   -2.1419    1.6794 C   0  0  0  0  0  0  0  0  0  0  0  0
    4.3860   -3.1758    0.3891 C   0  0  0  0  0  0  0  0  0  0  0  0
    5.6470   -3.3950    0.7236 C   0  0  0  0  0  0  0  0  0  0  0  0
    6.8365   -3.3787   -0.2143 C   0  0  0  0  0  0  0  0  0  0  0  0
    6.4388   -2.8001   -1.5842 C   0  0  0  0  0  0  0  0  0  0  0  0
    5.0312   -3.2475   -2.0462 C   0  0  0  0  0  0  0  0  0  0  0  0
    3.9232   -2.8807   -1.0248 C   0  0  0  0  0  0  0  0  0  0  0  0
    5.8460   -3.4989    2.0673 O   0  0  0  0  0  0  0  0  0  0  0  0
    4.6167   -3.1233    2.7220 C   0  0  2  0  0  0  0  0  0  0  0  0
    4.9416   -1.6421    3.0519 C   0  0  0  0  0  0  0  0  0  0  0  0
    3.6855   -8.8899    3.6183 H   0  0  0  0  0  0  0  0  0  0  0  0
    2.4648  -10.0174    3.1164 H   0  0  0  0  0  0  0  0  0  0  0  0
    3.7493  -10.5657    4.1744 H   0  0  0  0  0  0  0  0  0  0  0  0
    1.5308  -10.2643    5.2506 H   0  0  0  0  0  0  0  0  0  0  0  0
    1.5758   -7.4940    4.1648 H   0  0  0  0  0  0  0  0  0  0  0  0
    0.3990   -8.6777    4.2765 H   0  0  0  0  0  0  0  0  0  0  0  0
    0.1509   -6.5638    5.7378 H   0  0  0  0  0  0  0  0  0  0  0  0
   -0.4009   -8.1205    6.2039 H   0  0  0  0  0  0  0  0  0  0  0  0
    0.5218   -7.3293    9.4889 H   0  0  0  0  0  0  0  0  0  0  0  0
   -0.5812   -8.0997    8.3955 H   0  0  0  0  0  0  0  0  0  0  0  0
   -0.4423   -6.4055    8.3081 H   0  0  0  0  0  0  0  0  0  0  0  0
    2.4096   -4.2682    8.6504 H   0  0  0  0  0  0  0  0  0  0  0  0
    1.3347   -5.3439    9.3302 H   0  0  0  0  0  0  0  0  0  0  0  0
    0.8704   -4.5621    7.8286 H   0  0  0  0  0  0  0  0  0  0  0  0
    4.3605   -5.9952    8.4102 H   0  0  0  0  0  0  0  0  0  0  0  0
    3.1933   -6.4930    9.5428 H   0  0  0  0  0  0  0  0  0  0  0  0
    4.7177   -8.3046    9.1118 H   0  0  0  0  0  0  0  0  0  0  0  0
    1.2133  -10.7440    7.7538 H   0  0  0  0  0  0  0  0  0  0  0  0
    3.0230  -10.4058    6.7765 H   0  0  0  0  0  0  0  0  0  0  0  0
    4.7636   -9.6508    7.3412 H   0  0  0  0  0  0  0  0  0  0  0  0
    6.2608   -8.3047    6.5554 H   0  0  0  0  0  0  0  0  0  0  0  0
    5.3270   -8.7011    5.1688 H   0  0  0  0  0  0  0  0  0  0  0  0
    5.4198   -6.0491    6.6965 H   0  0  0  0  0  0  0  0  0  0  0  0
    6.0467   -6.3929    5.2001 H   0  0  0  0  0  0  0  0  0  0  0  0
    3.4109   -7.1383    4.9104 H   0  0  0  0  0  0  0  0  0  0  0  0
    1.9793   -5.2603    5.6316 H   0  0  0  0  0  0  0  0  0  0  0  0
    2.7550   -3.3670    6.7435 H   0  0  0  0  0  0  0  0  0  0  0  0
    4.2919   -4.0837    7.1802 H   0  0  0  0  0  0  0  0  0  0  0  0
    4.2688   -2.3335    5.3582 H   0  0  0  0  0  0  0  0  0  0  0  0
    5.0857   -7.2251    3.0413 H   0  0  0  0  0  0  0  0  0  0  0  0
    6.1188   -5.8117    3.2160 H   0  0  0  0  0  0  0  0  0  0  0  0
    5.0638   -5.9461    1.8685 H   0  0  0  0  0  0  0  0  0  0  0  0
    2.4550   -6.4626    2.6489 H   0  0  0  0  0  0  0  0  0  0  0  0
    1.8863   -5.0311    3.4834 H   0  0  0  0  0  0  0  0  0  0  0  0
    3.3196   -5.3065    0.8504 H   0  0  0  0  0  0  0  0  0  0  0  0
    1.8232   -4.5712    1.1675 H   0  0  0  0  0  0  0  0  0  0  0  0
    1.9216   -2.1581    2.6353 H   0  0  0  0  0  0  0  0  0  0  0  0
    1.6962   -2.2602    0.8980 H   0  0  0  0  0  0  0  0  0  0  0  0
    2.8560   -1.1514    1.5277 H   0  0  0  0  0  0  0  0  0  0  0  0
    7.6424   -2.8096    0.2491 H   0  0  0  0  0  0  0  0  0  0  0  0
    7.1508   -4.4113   -0.3209 H   0  0  0  0  0  0  0  0  0  0  0  0
    6.4404   -1.7168   -1.5206 H   0  0  0  0  0  0  0  0  0  0  0  0
    7.1913   -3.0752   -2.3215 H   0  0  0  0  0  0  0  0  0  0  0  0
    4.8037   -2.8170   -3.0237 H   0  0  0  0  0  0  0  0  0  0  0  0
    5.0282   -4.3306   -2.1888 H   0  0  0  0  0  0  0  0  0  0  0  0
    3.0065   -3.4271   -1.2517 H   0  0  0  0  0  0  0  0  0  0  0  0
    3.7003   -1.8135   -1.0878 H   0  0  0  0  0  0  0  0  0  0  0  0
    4.1137   -1.1032    3.5161 H   0  0  0  0  0  0  0  0  0  0  0  0
    5.2384   -1.0812    2.1620 H   0  0  0  0  0  0  0  0  0  0  0  0
    5.7822   -1.5877    3.7411 H   0  0  0  0  0  0  0  0  0  0  0  0
  1  2  1  0
  1 38  1  0
  1 39  1  0
  1 40  1  0
  2 14  1  0
  2  3  1  0
  2 41  1  1
  3  4  1  0
  3 42  1  0
  3 43  1  0
  4  5  1  0
  4 44  1  0
  4 45  1  0
  5 12  1  0
  5  6  1  1
  5  7  1  0
  6 46  1  0
  6 47  1  0
  6 48  1  0
  7 19  1  0
  7  8  1  1
  7  9  1  0
  8 49  1  0
  8 50  1  0
  8 51  1  0
  9 10  1  0
  9 52  1  0
  9 53  1  0
 10 15  1  0
 10 11  1  0
 10 54  1  1
 11 12  1  0
 12 13  1  1
 12 14  1  0
 13 55  1  0
 14 15  1  0
 14 56  1  1
 15 16  1  0
 15 57  1  1
 16 17  1  0
 16 58  1  0
 16 59  1  0
 17 18  1  0
 17 60  1  0
 17 61  1  0
 18 23  1  0
 18 19  1  0
 18 62  1  6
 19 20  1  0
 19 63  1  6
 20 21  1  0
 20 64  1  0
 20 65  1  0
 21 22  2  0
 21 66  1  0
 22 36  1  0
 22 23  1  0
 23 24  1  6
 23 25  1  0
 24 67  1  0
 24 68  1  0
 24 69  1  0
 25 26  1  0
 25 70  1  0
 25 71  1  0
 26 27  1  0
 26 72  1  0
 26 73  1  0
 27 36  1  0
 27 28  1  6
 27 29  1  0
 28 74  1  0
 28 75  1  0
 28 76  1  0
 29 34  1  0
 29 30  2  0
 30 31  1  0
 30 35  1  0
 31 32  1  0
 31 77  1  0
 31 78  1  0
 32 33  1  0
 32 79  1  0
 32 80  1  0
 33 34  1  0
 33 81  1  0
 33 82  1  0
 34 83  1  0
 34 84  1  0
 35 36  1  0
 36 37  1  1
 37 85  1  0
 37 86  1  0
 37 87  1  0
M  END
>  <i_m_ct_stereo_status>  (374) 
1

>  <s_m_source_file>  (374) 
/var/tmp/pbs.5076255.sched01/tmpsouvlwkc/11751gt6aqu.sdf

>  <i_m_source_file_index>  (374) 
36

>  <i_lp_mmshare_version>  (374) 
48012

>  <i_f3d_flags>  (374) 
0

>  <s_epik_input>  (374) 
W0NIMl0xW0NIMl1bQ0BASF0oW0NIM10pW0NAQEhdMltDQEBdMyhbT0hdKU9bQ0BIXShbQ0gyXTQpW0NAQEhdMltDSDJdW0NIMl1bQ0BASF0oW0NASF01W0NAQF00KFtDSDNdKVtDQEBdMTNbQ0gzXSlbQ0BdNihbQ0gzXSlDKD1bQ0hdW0NIMl01KVtDQF03KFtDSDNdKVtDQF0oW0NIM10pKFtDSDJdW0NIMl02KUM4PUMoTzcpW0NIMl1bQ0gyXVtDSDJdW0NIMl04

>  <s_epik_cmdline>  (374) 
J2VwaWtfcHl0aG9uJywgJy1waHQnLCAnMi4wJywgJy1waCcsICc3LjAnLCAnLXRuJywgJzgnLCAnLW1hJywgJzIwMCcsICctaW1hZScsICc8aW5maWxlLm1hZT4nLCAnLW9tYWUnLCAnPG91dGZpbGUubWFlPic=

>  <r_lp_tautomer_probability>  (374) 
1

>  <r_epik_Ionization_Penalty>  (374) 
6.14779e-08

>  <r_epik_Ionization_Penalty_Charging>  (374) 
0

>  <r_epik_Ionization_Penalty_Neutral>  (374) 
6.14779e-08

>  <r_epik_State_Penalty>  (374) 
-0

>  <r_epik_Charging_Adjusted_Penalty>  (374) 
0

>  <i_epik_Tot_Q>  (374) 
0

>  <i_epik_Tot_abs_Q>  (374) 
0

>  <s_lp_Force_Field>  (374) 
OPLS3e

>  <r_lp_Energy>  (374) 
127.318

>  <b_lp_Chiralities_Consistent>  (374) 
1

>  <s_lp_Variant>  (374) 
115:0-1

>  <s_i_glide_gridfile>  (374) 
pfpi4k_grid

>  <i_i_glide_lignum>  (374) 
36

>  <i_i_glide_rotatable_bonds>  (374) 
1

>  <r_i_docking_score>  (374) 
-2.59328

>  <r_i_glide_ligand_efficiency>  (374) 
-0.0700885

>  <r_i_glide_ligand_efficiency_sa>  (374) 
-0.233551

>  <r_i_glide_ligand_efficiency_ln>  (374) 
-0.562421

>  <r_i_glide_gscore>  (374) 
-2.59328

>  <r_i_glide_lipo>  (374) 
-0.429405

>  <r_i_glide_hbond>  (374) 
0

>  <r_i_glide_metal>  (374) 
-0

>  <r_i_glide_rewards>  (374) 
0

>  <r_i_glide_evdw>  (374) 
-23.8326

>  <r_i_glide_ecoul>  (374) 
-6.16183

>  <r_i_glide_erotb>  (374) 
0

>  <r_i_glide_esite>  (374) 
-0.0479639

>  <r_i_glide_emodel>  (374) 
-34.3494

>  <r_i_glide_energy>  (374) 
-29.9945

>  <r_i_glide_einternal>  (374) 
0.248395

>  <r_i_glide_intrahb_reward>  (374) 
-0

>  <i_i_glide_confnum>  (374) 
1

>  <i_i_glide_posenum>  (374) 
1

>  <r_i_glide_eff_state_penalty>  (374) 
0

>  <ligand_id>  (374) 
115

>  <original_smiles>  (374) 
CC1CCC2(C)C3(C)CC4OC2(O)C1C4CCC1C3CC=C2C1(C)CCC1(C)C3=C(CCCC3)OC21C

>  <smiles>  (374) 
[H]OC12OC3([H])C([H])([H])C4(C([H])([H])[H])C5([H])C([H])([H])C([H])=C6C7(C([H])([H])[H])OC8=C(C([H])([H])C([H])([H])C([H])([H])C8([H])[H])C7(C([H])([H])[H])C([H])([H])C([H])([H])C6(C([H])([H])[H])C5([H])C([H])([H])C([H])([H])C3([H])C1([H])C([H])(C([H])([H])[H])C([H])([H])C([H])([H])C24C([H])([H])[H]

$$$$
115:0:1
     RDKit          3D

 87 94  0  0  1  0  0  0  0  0999 V2000
    7.8501   -6.5326    3.0310 C   0  0  0  0  0  0  0  0  0  0  0  0
    8.7125   -7.4563    3.9179 C   0  0  2  0  0  0  0  0  0  0  0  0
    8.1908   -8.9135    3.9482 C   0  0  0  0  0  0  0  0  0  0  0  0
    8.7243   -9.8435    5.0464 C   0  0  0  0  0  0  0  0  0  0  0  0
    9.1199   -9.2245    6.4155 C   0  0  2  0  0  0  0  0  0  0  0  0
   10.1628  -10.2498    6.9886 C   0  0  0  0  0  0  0  0  0  0  0  0
    7.9020   -8.9498    7.4861 C   0  0  1  0  0  0  0  0  0  0  0  0
    7.8900  -10.1117    8.5486 C   0  0  0  0  0  0  0  0  0  0  0  0
    8.2622   -7.7234    8.3763 C   0  0  0  0  0  0  0  0  0  0  0  0
    9.0379   -6.6041    7.6791 C   0  0  1  0  0  0  0  0  0  0  0  0
   10.2399   -7.2438    7.2867 O   0  0  0  0  0  0  0  0  0  0  0  0
    9.9735   -7.9116    6.0974 C   0  0  1  0  0  0  0  0  0  0  0  0
   11.1842   -8.2181    5.4366 O   0  0  0  0  0  0  0  0  0  0  0  0
    9.2422   -6.8584    5.2607 C   0  0  2  0  0  0  0  0  0  0  0  0
    8.5278   -6.0209    6.3481 C   0  0  1  0  0  0  0  0  0  0  0  0
    7.0938   -5.4660    6.2296 C   0  0  0  0  0  0  0  0  0  0  0  0
    5.9439   -6.3448    6.7429 C   0  0  0  0  0  0  0  0  0  0  0  0
    5.8475   -7.7237    6.0343 C   0  0  1  0  0  0  0  0  0  0  0  0
    6.3739   -8.9009    6.9338 C   0  0  2  0  0  0  0  0  0  0  0  0
    5.2865   -9.1031    8.0368 C   0  0  0  0  0  0  0  0  0  0  0  0
    3.8462   -8.9916    7.5764 C   0  0  0  0  0  0  0  0  0  0  0  0
    3.4217   -8.5430    6.3771 C   0  0  0  0  0  0  0  0  0  0  0  0
    4.4275   -8.0102    5.3534 C   0  0  1  0  0  0  0  0  0  0  0  0
    3.9236   -6.7097    4.6557 C   0  0  0  0  0  0  0  0  0  0  0  0
    4.4797   -9.1263    4.2735 C   0  0  0  0  0  0  0  0  0  0  0  0
    3.1209   -9.4832    3.6260 C   0  0  0  0  0  0  0  0  0  0  0  0
    1.8915   -9.6264    4.5834 C   0  0  2  0  0  0  0  0  0  0  0  0
    1.6345  -11.1218    4.8667 C   0  0  0  0  0  0  0  0  0  0  0  0
    0.7270   -8.9488    3.9201 C   0  0  0  0  0  0  0  0  0  0  0  0
    0.5164   -7.7599    4.4597 C   0  0  0  0  0  0  0  0  0  0  0  0
   -0.5544   -6.7773    4.0649 C   0  0  0  0  0  0  0  0  0  0  0  0
   -1.5993   -7.4546    3.1450 C   0  0  0  0  0  0  0  0  0  0  0  0
   -0.9566   -8.4052    2.1172 C   0  0  0  0  0  0  0  0  0  0  0  0
   -0.1204   -9.5136    2.7965 C   0  0  0  0  0  0  0  0  0  0  0  0
    1.3225   -7.4940    5.5293 O   0  0  0  0  0  0  0  0  0  0  0  0
    1.9684   -8.7300    5.8858 C   0  0  2  0  0  0  0  0  0  0  0  0
    1.0130   -9.2096    7.0141 C   0  0  0  0  0  0  0  0  0  0  0  0
    6.8208   -6.4708    3.3675 H   0  0  0  0  0  0  0  0  0  0  0  0
    7.8141   -6.9245    2.0127 H   0  0  0  0  0  0  0  0  0  0  0  0
    8.2535   -5.5206    2.9739 H   0  0  0  0  0  0  0  0  0  0  0  0
    9.6269   -7.5415    3.3254 H   0  0  0  0  0  0  0  0  0  0  0  0
    7.1219   -8.9850    3.9051 H   0  0  0  0  0  0  0  0  0  0  0  0
    8.4641   -9.3537    2.9946 H   0  0  0  0  0  0  0  0  0  0  0  0
    8.0267  -10.6652    5.1973 H   0  0  0  0  0  0  0  0  0  0  0  0
    9.5948  -10.3258    4.6067 H   0  0  0  0  0  0  0  0  0  0  0  0
   10.6292   -9.8952    7.9107 H   0  0  0  0  0  0  0  0  0  0  0  0
   10.9822  -10.4645    6.3013 H   0  0  0  0  0  0  0  0  0  0  0  0
    9.7076  -11.2285    7.1625 H   0  0  0  0  0  0  0  0  0  0  0  0
    7.2303   -9.9054    9.3894 H   0  0  0  0  0  0  0  0  0  0  0  0
    8.8412  -10.2423    9.0636 H   0  0  0  0  0  0  0  0  0  0  0  0
    7.6067  -11.0699    8.1122 H   0  0  0  0  0  0  0  0  0  0  0  0
    7.4082   -7.3414    8.9183 H   0  0  0  0  0  0  0  0  0  0  0  0
    8.9228   -8.0383    9.1885 H   0  0  0  0  0  0  0  0  0  0  0  0
    9.2471   -5.8077    8.3962 H   0  0  0  0  0  0  0  0  0  0  0  0
   11.0258   -8.1375    4.5078 H   0  0  0  0  0  0  0  0  0  0  0  0
   10.0200   -6.1708    4.9219 H   0  0  0  0  0  0  0  0  0  0  0  0
    9.0811   -5.0830    6.2993 H   0  0  0  0  0  0  0  0  0  0  0  0
    7.0518   -4.5394    6.8013 H   0  0  0  0  0  0  0  0  0  0  0  0
    6.9010   -5.1500    5.2071 H   0  0  0  0  0  0  0  0  0  0  0  0
    5.9715   -6.4409    7.8191 H   0  0  0  0  0  0  0  0  0  0  0  0
    5.0436   -5.7530    6.6323 H   0  0  0  0  0  0  0  0  0  0  0  0
    6.5172   -7.6040    5.2151 H   0  0  0  0  0  0  0  0  0  0  0  0
    6.2932   -9.7982    6.3271 H   0  0  0  0  0  0  0  0  0  0  0  0
    5.3377  -10.1191    8.4278 H   0  0  0  0  0  0  0  0  0  0  0  0
    5.4200   -8.4267    8.8793 H   0  0  0  0  0  0  0  0  0  0  0  0
    3.1505   -9.4058    8.2905 H   0  0  0  0  0  0  0  0  0  0  0  0
    4.7389   -6.1718    4.1765 H   0  0  0  0  0  0  0  0  0  0  0  0
    3.4380   -6.0314    5.3544 H   0  0  0  0  0  0  0  0  0  0  0  0
    3.1844   -6.8830    3.8810 H   0  0  0  0  0  0  0  0  0  0  0  0
    5.1255   -8.8168    3.4560 H   0  0  0  0  0  0  0  0  0  0  0  0
    4.9038  -10.0396    4.6885 H   0  0  0  0  0  0  0  0  0  0  0  0
    2.9096   -8.7358    2.8598 H   0  0  0  0  0  0  0  0  0  0  0  0
    3.2520  -10.3955    3.0428 H   0  0  0  0  0  0  0  0  0  0  0  0
    2.4289  -11.5362    5.4850 H   0  0  0  0  0  0  0  0  0  0  0  0
    1.5987  -11.7154    3.9534 H   0  0  0  0  0  0  0  0  0  0  0  0
    0.6918  -11.2957    5.3829 H   0  0  0  0  0  0  0  0  0  0  0  0
   -1.0237   -6.3753    4.9606 H   0  0  0  0  0  0  0  0  0  0  0  0
   -0.0632   -5.9537    3.5464 H   0  0  0  0  0  0  0  0  0  0  0  0
   -2.3037   -8.0194    3.7534 H   0  0  0  0  0  0  0  0  0  0  0  0
   -2.1816   -6.6960    2.6256 H   0  0  0  0  0  0  0  0  0  0  0  0
   -1.7268   -8.8541    1.4890 H   0  0  0  0  0  0  0  0  0  0  0  0
   -0.3108   -7.8376    1.4431 H   0  0  0  0  0  0  0  0  0  0  0  0
    0.5106  -10.0299    2.0728 H   0  0  0  0  0  0  0  0  0  0  0  0
   -0.7951  -10.2525    3.2300 H   0  0  0  0  0  0  0  0  0  0  0  0
    1.2932  -10.1859    7.4125 H   0  0  0  0  0  0  0  0  0  0  0  0
   -0.0173   -9.2952    6.6632 H   0  0  0  0  0  0  0  0  0  0  0  0
    1.0113   -8.4973    7.8414 H   0  0  0  0  0  0  0  0  0  0  0  0
  1  2  1  0
  1 38  1  0
  1 39  1  0
  1 40  1  0
  2 14  1  0
  2  3  1  0
  2 41  1  6
  3  4  1  0
  3 42  1  0
  3 43  1  0
  4  5  1  0
  4 44  1  0
  4 45  1  0
  5 12  1  0
  5  6  1  1
  5  7  1  0
  6 46  1  0
  6 47  1  0
  6 48  1  0
  7 19  1  0
  7  8  1  1
  7  9  1  0
  8 49  1  0
  8 50  1  0
  8 51  1  0
  9 10  1  0
  9 52  1  0
  9 53  1  0
 10 15  1  0
 10 11  1  0
 10 54  1  1
 11 12  1  0
 12 13  1  6
 12 14  1  0
 13 55  1  0
 14 15  1  0
 14 56  1  6
 15 16  1  0
 15 57  1  6
 16 17  1  0
 16 58  1  0
 16 59  1  0
 17 18  1  0
 17 60  1  0
 17 61  1  0
 18 23  1  0
 18 19  1  0
 18 62  1  6
 19 20  1  0
 19 63  1  6
 20 21  1  0
 20 64  1  0
 20 65  1  0
 21 22  2  0
 21 66  1  0
 22 36  1  0
 22 23  1  0
 23 24  1  6
 23 25  1  0
 24 67  1  0
 24 68  1  0
 24 69  1  0
 25 26  1  0
 25 70  1  0
 25 71  1  0
 26 27  1  0
 26 72  1  0
 26 73  1  0
 27 36  1  0
 27 28  1  1
 27 29  1  0
 28 74  1  0
 28 75  1  0
 28 76  1  0
 29 34  1  0
 29 30  2  0
 30 31  1  0
 30 35  1  0
 31 32  1  0
 31 77  1  0
 31 78  1  0
 32 33  1  0
 32 79  1  0
 32 80  1  0
 33 34  1  0
 33 81  1  0
 33 82  1  0
 34 83  1  0
 34 84  1  0
 35 36  1  0
 36 37  1  1
 37 85  1  0
 37 86  1  0
 37 87  1  0
M  END
>  <i_m_ct_stereo_status>  (375) 
1

>  <s_m_source_file>  (375) 
/var/tmp/pbs.5076255.sched01/tmpsouvlwkc/11751gt6aqu.sdf

>  <i_m_source_file_index>  (375) 
36

>  <i_lp_mmshare_version>  (375) 
48012

>  <i_f3d_flags>  (375) 
0

>  <s_epik_input>  (375) 
W0NIMl0xW0NIMl1bQ0BASF0oW0NIM10pW0NAQEhdMltDQEBdMyhbT0hdKU9bQ0BIXShbQ0gyXTQpW0NAQEhdMltDSDJdW0NIMl1bQ0BASF0oW0NASF01W0NAQF00KFtDSDNdKVtDQEBdMTNbQ0gzXSlbQ0BdNihbQ0gzXSlDKD1bQ0hdW0NIMl01KVtDQF03KFtDSDNdKVtDQF0oW0NIM10pKFtDSDJdW0NIMl02KUM4PUMoTzcpW0NIMl1bQ0gyXVtDSDJdW0NIMl04

>  <s_epik_cmdline>  (375) 
J2VwaWtfcHl0aG9uJywgJy1waHQnLCAnMi4wJywgJy1waCcsICc3LjAnLCAnLXRuJywgJzgnLCAnLW1hJywgJzIwMCcsICctaW1hZScsICc8aW5maWxlLm1hZT4nLCAnLW9tYWUnLCAnPG91dGZpbGUubWFlPic=

>  <r_lp_tautomer_probability>  (375) 
1

>  <r_epik_Ionization_Penalty>  (375) 
6.14779e-08

>  <r_epik_Ionization_Penalty_Charging>  (375) 
0

>  <r_epik_Ionization_Penalty_Neutral>  (375) 
6.14779e-08

>  <r_epik_State_Penalty>  (375) 
-0

>  <r_epik_Charging_Adjusted_Penalty>  (375) 
0

>  <i_epik_Tot_Q>  (375) 
0

>  <i_epik_Tot_abs_Q>  (375) 
0

>  <s_lp_Force_Field>  (375) 
OPLS3e

>  <r_lp_Energy>  (375) 
127.318

>  <b_lp_Chiralities_Consistent>  (375) 
1

>  <s_lp_Variant>  (375) 
115:0-1

>  <s_i_glide_gridfile>  (375) 
pfpi4k_grid

>  <i_i_glide_lignum>  (375) 
36

>  <i_i_glide_rotatable_bonds>  (375) 
1

>  <r_i_docking_score>  (375) 
-1.46644

>  <r_i_glide_ligand_efficiency>  (375) 
-0.0396334

>  <r_i_glide_ligand_efficiency_sa>  (375) 
-0.132067

>  <r_i_glide_ligand_efficiency_ln>  (375) 
-0.318035

>  <r_i_glide_gscore>  (375) 
-1.46644

>  <r_i_glide_lipo>  (375) 
-0.0502296

>  <r_i_glide_hbond>  (375) 
0

>  <r_i_glide_metal>  (375) 
-0

>  <r_i_glide_rewards>  (375) 
0

>  <r_i_glide_evdw>  (375) 
-25.3734

>  <r_i_glide_ecoul>  (375) 
-0.98357

>  <r_i_glide_erotb>  (375) 
0

>  <r_i_glide_esite>  (375) 
0

>  <r_i_glide_emodel>  (375) 
-28.0599

>  <r_i_glide_energy>  (375) 
-26.357

>  <r_i_glide_einternal>  (375) 
1.71481

>  <r_i_glide_intrahb_reward>  (375) 
-0

>  <i_i_glide_confnum>  (375) 
2

>  <i_i_glide_posenum>  (375) 
13

>  <r_i_glide_eff_state_penalty>  (375) 
0

>  <ligand_id>  (375) 
115

>  <original_smiles>  (375) 
CC1CCC2(C)C3(C)CC4OC2(O)C1C4CCC1C3CC=C2C1(C)CCC1(C)C3=C(CCCC3)OC21C

>  <smiles>  (375) 
[H]OC12OC3([H])C([H])([H])C4(C([H])([H])[H])C5([H])C([H])([H])C([H])=C6C7(C([H])([H])[H])OC8=C(C([H])([H])C([H])([H])C([H])([H])C8([H])[H])C7(C([H])([H])[H])C([H])([H])C([H])([H])C6(C([H])([H])[H])C5([H])C([H])([H])C([H])([H])C3([H])C1([H])C([H])(C([H])([H])[H])C([H])([H])C([H])([H])C24C([H])([H])[H]

$$$$
115:0:2
     RDKit          3D

 87 94  0  0  1  0  0  0  0  0999 V2000
    7.7261   -7.0065    2.9651 C   0  0  0  0  0  0  0  0  0  0  0  0
    8.5400   -7.9602    3.8686 C   0  0  2  0  0  0  0  0  0  0  0  0
    7.9435   -9.3872    3.9290 C   0  0  0  0  0  0  0  0  0  0  0  0
    8.4404  -10.3166    5.0436 C   0  0  0  0  0  0  0  0  0  0  0  0
    8.8668   -9.6888    6.4003 C   0  0  2  0  0  0  0  0  0  0  0  0
    9.8614  -10.7504    6.9913 C   0  0  0  0  0  0  0  0  0  0  0  0
    7.6635   -9.3388    7.4632 C   0  0  1  0  0  0  0  0  0  0  0  0
    7.5959  -10.4797    8.5469 C   0  0  0  0  0  0  0  0  0  0  0  0
    8.0826   -8.1162    8.3318 C   0  0  0  0  0  0  0  0  0  0  0  0
    8.9060   -7.0458    7.6137 C   0  0  1  0  0  0  0  0  0  0  0  0
   10.0793   -7.7454    7.2357 O   0  0  0  0  0  0  0  0  0  0  0  0
    9.7803   -8.4229    6.0575 C   0  0  1  0  0  0  0  0  0  0  0  0
   10.9764   -8.8056    5.4023 O   0  0  0  0  0  0  0  0  0  0  0  0
    9.0956   -7.3557    5.2000 C   0  0  2  0  0  0  0  0  0  0  0  0
    8.4235   -6.4649    6.2703 C   0  0  1  0  0  0  0  0  0  0  0  0
    7.0192   -5.8436    6.1421 C   0  0  0  0  0  0  0  0  0  0  0  0
    5.8302   -6.6579    6.6724 C   0  0  0  0  0  0  0  0  0  0  0  0
    5.6678   -8.0436    5.9894 C   0  0  1  0  0  0  0  0  0  0  0  0
    6.1392   -9.2281    6.9108 C   0  0  2  0  0  0  0  0  0  0  0  0
    5.0443   -9.3581    8.0167 C   0  0  0  0  0  0  0  0  0  0  0  0
    3.6099   -9.1887    7.5547 C   0  0  0  0  0  0  0  0  0  0  0  0
    3.2087   -8.7421    6.3472 C   0  0  0  0  0  0  0  0  0  0  0  0
    4.2353   -8.2754    5.3149 C   0  0  1  0  0  0  0  0  0  0  0  0
    3.7942   -6.9656    4.5923 C   0  0  0  0  0  0  0  0  0  0  0  0
    4.2357   -9.4115    4.2537 C   0  0  0  0  0  0  0  0  0  0  0  0
    2.8631   -9.7133    3.6100 C   0  0  0  0  0  0  0  0  0  0  0  0
    1.6320   -9.7809    4.5714 C   0  0  2  0  0  0  0  0  0  0  0  0
    1.2994  -11.2559    4.8704 C   0  0  0  0  0  0  0  0  0  0  0  0
    0.5111   -9.0541    3.8969 C   0  0  0  0  0  0  0  0  0  0  0  0
    0.3544   -7.8518    4.4186 C   0  0  0  0  0  0  0  0  0  0  0  0
   -0.6667   -6.8309    4.0123 C   0  0  0  0  0  0  0  0  0  0  0  0
   -1.7299   -7.4671    3.0936 C   0  0  0  0  0  0  0  0  0  0  0  0
   -1.1429   -8.4715    2.0862 C   0  0  0  0  0  0  0  0  0  0  0  0
   -0.3605   -9.5983    2.7854 C   0  0  0  0  0  0  0  0  0  0  0  0
    1.1680   -7.6086    5.4894 O   0  0  0  0  0  0  0  0  0  0  0  0
    1.7507   -8.8692    5.8606 C   0  0  2  0  0  0  0  0  0  0  0  0
    0.7688   -9.2782    6.9930 C   0  0  0  0  0  0  0  0  0  0  0  0
    6.7017   -6.8906    3.3006 H   0  0  0  0  0  0  0  0  0  0  0  0
    7.6711   -7.4132    1.9525 H   0  0  0  0  0  0  0  0  0  0  0  0
    8.1753   -6.0160    2.8927 H   0  0  0  0  0  0  0  0  0  0  0  0
    9.4543   -8.1060    3.2897 H   0  0  0  0  0  0  0  0  0  0  0  0
    6.8720   -9.4026    3.8947 H   0  0  0  0  0  0  0  0  0  0  0  0
    8.1863   -9.8737    2.9862 H   0  0  0  0  0  0  0  0  0  0  0  0
    7.7083  -11.1041    5.2102 H   0  0  0  0  0  0  0  0  0  0  0  0
    9.2892  -10.8418    4.6101 H   0  0  0  0  0  0  0  0  0  0  0  0
   10.3440  -10.4034    7.9076 H   0  0  0  0  0  0  0  0  0  0  0  0
   10.6691  -11.0157    6.3067 H   0  0  0  0  0  0  0  0  0  0  0  0
    9.3604  -11.7042    7.1822 H   0  0  0  0  0  0  0  0  0  0  0  0
    6.9467  -10.2257    9.3826 H   0  0  0  0  0  0  0  0  0  0  0  0
    8.5403  -10.6458    9.0647 H   0  0  0  0  0  0  0  0  0  0  0  0
    7.2666  -11.4305    8.1268 H   0  0  0  0  0  0  0  0  0  0  0  0
    7.2476   -7.6835    8.8648 H   0  0  0  0  0  0  0  0  0  0  0  0
    8.7271   -8.4467    9.1500 H   0  0  0  0  0  0  0  0  0  0  0  0
    9.1556   -6.2468    8.3157 H   0  0  0  0  0  0  0  0  0  0  0  0
   11.3683   -8.0213    5.0580 H   0  0  0  0  0  0  0  0  0  0  0  0
    9.8989   -6.7084    4.8425 H   0  0  0  0  0  0  0  0  0  0  0  0
    9.0211   -5.5544    6.2009 H   0  0  0  0  0  0  0  0  0  0  0  0
    7.0216   -4.9066    6.6973 H   0  0  0  0  0  0  0  0  0  0  0  0
    6.8405   -5.5378    5.1138 H   0  0  0  0  0  0  0  0  0  0  0  0
    5.8546   -6.7364    7.7504 H   0  0  0  0  0  0  0  0  0  0  0  0
    4.9585   -6.0273    6.5510 H   0  0  0  0  0  0  0  0  0  0  0  0
    6.3425   -7.9689    5.1699 H   0  0  0  0  0  0  0  0  0  0  0  0
    6.0150  -10.1314    6.3206 H   0  0  0  0  0  0  0  0  0  0  0  0
    5.0460  -10.3678    8.4257 H   0  0  0  0  0  0  0  0  0  0  0  0
    5.2087   -8.6728    8.8462 H   0  0  0  0  0  0  0  0  0  0  0  0
    2.8959   -9.5586    8.2736 H   0  0  0  0  0  0  0  0  0  0  0  0
    4.6346   -6.4770    4.1031 H   0  0  0  0  0  0  0  0  0  0  0  0
    3.3421   -6.2520    5.2780 H   0  0  0  0  0  0  0  0  0  0  0  0
    3.0472   -7.1183    3.8206 H   0  0  0  0  0  0  0  0  0  0  0  0
    4.8933   -9.1482    3.4306 H   0  0  0  0  0  0  0  0  0  0  0  0
    4.6138  -10.3369    4.6862 H   0  0  0  0  0  0  0  0  0  0  0  0
    2.6872   -8.9721    2.8292 H   0  0  0  0  0  0  0  0  0  0  0  0
    2.9503  -10.6421    3.0443 H   0  0  0  0  0  0  0  0  0  0  0  0
    2.0841  -11.6977    5.4811 H   0  0  0  0  0  0  0  0  0  0  0  0
    1.2306  -11.8585    3.9648 H   0  0  0  0  0  0  0  0  0  0  0  0
    0.3502  -11.3796    5.3921 H   0  0  0  0  0  0  0  0  0  0  0  0
   -1.1240   -6.3908    4.8972 H   0  0  0  0  0  0  0  0  0  0  0  0
   -0.1424   -6.0426    3.4737 H   0  0  0  0  0  0  0  0  0  0  0  0
   -2.4924   -7.9642    3.6950 H   0  0  0  0  0  0  0  0  0  0  0  0
   -2.1964   -6.6724    2.5261 H   0  0  0  0  0  0  0  0  0  0  0  0
   -1.9410   -8.9074    1.4829 H   0  0  0  0  0  0  0  0  0  0  0  0
   -0.4789   -7.9426    1.3987 H   0  0  0  0  0  0  0  0  0  0  0  0
    0.2357  -10.1709    2.0749 H   0  0  0  0  0  0  0  0  0  0  0  0
   -1.0770  -10.2675    3.2493 H   0  0  0  0  0  0  0  0  0  0  0  0
    0.9976  -10.2518    7.4162 H   0  0  0  0  0  0  0  0  0  0  0  0
   -0.2644   -9.3200    6.6418 H   0  0  0  0  0  0  0  0  0  0  0  0
    0.7988   -8.5436    7.8024 H   0  0  0  0  0  0  0  0  0  0  0  0
  1  2  1  0
  1 38  1  0
  1 39  1  0
  1 40  1  0
  2 14  1  0
  2  3  1  0
  2 41  1  6
  3  4  1  0
  3 42  1  0
  3 43  1  0
  4  5  1  0
  4 44  1  0
  4 45  1  0
  5 12  1  0
  5  6  1  1
  5  7  1  0
  6 46  1  0
  6 47  1  0
  6 48  1  0
  7 19  1  0
  7  8  1  1
  7  9  1  0
  8 49  1  0
  8 50  1  0
  8 51  1  0
  9 10  1  0
  9 52  1  0
  9 53  1  0
 10 15  1  0
 10 11  1  0
 10 54  1  1
 11 12  1  0
 12 13  1  6
 12 14  1  0
 13 55  1  0
 14 15  1  0
 14 56  1  6
 15 16  1  0
 15 57  1  6
 16 17  1  0
 16 58  1  0
 16 59  1  0
 17 18  1  0
 17 60  1  0
 17 61  1  0
 18 23  1  0
 18 19  1  0
 18 62  1  6
 19 20  1  0
 19 63  1  6
 20 21  1  0
 20 64  1  0
 20 65  1  0
 21 22  2  0
 21 66  1  0
 22 36  1  0
 22 23  1  0
 23 24  1  6
 23 25  1  0
 24 67  1  0
 24 68  1  0
 24 69  1  0
 25 26  1  0
 25 70  1  0
 25 71  1  0
 26 27  1  0
 26 72  1  0
 26 73  1  0
 27 36  1  0
 27 28  1  1
 27 29  1  0
 28 74  1  0
 28 75  1  0
 28 76  1  0
 29 34  1  0
 29 30  2  0
 30 31  1  0
 30 35  1  0
 31 32  1  0
 31 77  1  0
 31 78  1  0
 32 33  1  0
 32 79  1  0
 32 80  1  0
 33 34  1  0
 33 81  1  0
 33 82  1  0
 34 83  1  0
 34 84  1  0
 35 36  1  0
 36 37  1  1
 37 85  1  0
 37 86  1  0
 37 87  1  0
M  END
>  <i_m_ct_stereo_status>  (376) 
1

>  <s_m_source_file>  (376) 
/var/tmp/pbs.5076255.sched01/tmpsouvlwkc/11751gt6aqu.sdf

>  <i_m_source_file_index>  (376) 
36

>  <i_lp_mmshare_version>  (376) 
48012

>  <i_f3d_flags>  (376) 
0

>  <s_epik_input>  (376) 
W0NIMl0xW0NIMl1bQ0BASF0oW0NIM10pW0NAQEhdMltDQEBdMyhbT0hdKU9bQ0BIXShbQ0gyXTQpW0NAQEhdMltDSDJdW0NIMl1bQ0BASF0oW0NASF01W0NAQF00KFtDSDNdKVtDQEBdMTNbQ0gzXSlbQ0BdNihbQ0gzXSlDKD1bQ0hdW0NIMl01KVtDQF03KFtDSDNdKVtDQF0oW0NIM10pKFtDSDJdW0NIMl02KUM4PUMoTzcpW0NIMl1bQ0gyXVtDSDJdW0NIMl04

>  <s_epik_cmdline>  (376) 
J2VwaWtfcHl0aG9uJywgJy1waHQnLCAnMi4wJywgJy1waCcsICc3LjAnLCAnLXRuJywgJzgnLCAnLW1hJywgJzIwMCcsICctaW1hZScsICc8aW5maWxlLm1hZT4nLCAnLW9tYWUnLCAnPG91dGZpbGUubWFlPic=

>  <r_lp_tautomer_probability>  (376) 
1

>  <r_epik_Ionization_Penalty>  (376) 
6.14779e-08

>  <r_epik_Ionization_Penalty_Charging>  (376) 
0

>  <r_epik_Ionization_Penalty_Neutral>  (376) 
6.14779e-08

>  <r_epik_State_Penalty>  (376) 
-0

>  <r_epik_Charging_Adjusted_Penalty>  (376) 
0

>  <i_epik_Tot_Q>  (376) 
0

>  <i_epik_Tot_abs_Q>  (376) 
0

>  <s_lp_Force_Field>  (376) 
OPLS3e

>  <r_lp_Energy>  (376) 
127.318

>  <b_lp_Chiralities_Consistent>  (376) 
1

>  <s_lp_Variant>  (376) 
115:0-1

>  <s_i_glide_gridfile>  (376) 
pfpi4k_grid

>  <i_i_glide_lignum>  (376) 
36

>  <i_i_glide_rotatable_bonds>  (376) 
1

>  <r_i_docking_score>  (376) 
-1.4573

>  <r_i_glide_ligand_efficiency>  (376) 
-0.0393865

>  <r_i_glide_ligand_efficiency_sa>  (376) 
-0.131245

>  <r_i_glide_ligand_efficiency_ln>  (376) 
-0.316054

>  <r_i_glide_gscore>  (376) 
-1.4573

>  <r_i_glide_lipo>  (376) 
-0.0406958

>  <r_i_glide_hbond>  (376) 
0

>  <r_i_glide_metal>  (376) 
-0

>  <r_i_glide_rewards>  (376) 
0

>  <r_i_glide_evdw>  (376) 
-25.1535

>  <r_i_glide_ecoul>  (376) 
-1.05953

>  <r_i_glide_erotb>  (376) 
0

>  <r_i_glide_esite>  (376) 
0

>  <r_i_glide_emodel>  (376) 
-28.5501

>  <r_i_glide_energy>  (376) 
-26.213

>  <r_i_glide_einternal>  (376) 
0.168373

>  <r_i_glide_intrahb_reward>  (376) 
-0

>  <i_i_glide_confnum>  (376) 
2

>  <i_i_glide_posenum>  (376) 
5

>  <r_i_glide_eff_state_penalty>  (376) 
0

>  <ligand_id>  (376) 
115

>  <original_smiles>  (376) 
CC1CCC2(C)C3(C)CC4OC2(O)C1C4CCC1C3CC=C2C1(C)CCC1(C)C3=C(CCCC3)OC21C

>  <smiles>  (376) 
[H]OC12OC3([H])C([H])([H])C4(C([H])([H])[H])C5([H])C([H])([H])C([H])=C6C7(C([H])([H])[H])OC8=C(C([H])([H])C([H])([H])C([H])([H])C8([H])[H])C7(C([H])([H])[H])C([H])([H])C([H])([H])C6(C([H])([H])[H])C5([H])C([H])([H])C([H])([H])C3([H])C1([H])C([H])(C([H])([H])[H])C([H])([H])C([H])([H])C24C([H])([H])[H]

$$$$
116:1:0
     RDKit          3D

 55 58  0  0  1  0  0  0  0  0999 V2000
    1.6012    3.4722    3.6708 C   0  0  0  0  0  0  0  0  0  0  0  0
    2.2961    2.7102    2.5944 N   0  0  0  0  0  0  0  0  0  0  0  0
    2.7286    1.2934    2.8503 C   0  0  2  0  0  0  0  0  0  0  0  0
    3.0865    0.6316    1.4879 C   0  0  0  0  0  0  0  0  0  0  0  0
    3.7920   -0.7469    1.4588 C   0  0  2  0  0  0  0  0  0  0  0  0
    5.2027   -0.6653    2.1020 C   0  0  0  0  0  0  0  0  0  0  0  0
    3.9243   -1.2248   -0.0133 C   0  0  1  0  0  0  0  0  0  0  0  0
    5.0326   -0.6582   -0.6886 O   0  0  0  0  0  0  0  0  0  0  0  0
    4.0256   -2.7465    0.0415 C   0  0  0  0  0  0  0  0  0  0  0  0
    3.4045   -3.1516    1.3770 C   0  0  0  0  0  0  0  0  0  0  0  0
    2.9278   -1.8647    2.0792 C   0  0  1  0  0  0  0  0  0  0  0  0
    2.9286   -1.9426    3.6387 C   0  0  2  0  0  0  0  0  0  0  0  0
    2.2219   -3.1948    4.1561 C   0  0  0  0  0  0  0  0  0  0  0  0
    2.5695   -4.3583    3.9258 O   0  0  0  0  0  0  0  0  0  0  0  0
    1.0914   -2.8021    4.9696 C   0  0  0  0  0  0  0  0  0  0  0  0
    0.2428   -3.6874    5.4947 O   0  0  0  0  0  0  0  0  0  0  0  0
    1.0793   -1.4923    5.1399 C   0  0  0  0  0  0  0  0  0  0  0  0
   -0.0093   -0.7252    5.8792 C   0  0  0  0  0  0  0  0  0  0  0  0
   -1.1525   -0.4431    4.8997 C   0  0  0  0  0  0  0  0  0  0  0  0
   -2.2191   -1.0259    4.9919 O   0  0  0  0  0  0  0  0  0  0  0  0
   -0.9109    0.6191    3.8339 C   0  0  0  0  0  0  0  0  0  0  0  0
    0.3244    0.3375    2.9566 C   0  0  0  0  0  0  0  0  0  0  0  0
    1.6857    0.5007    3.6987 C   0  0  1  0  0  0  0  0  0  0  0  0
    2.2342   -0.7687    4.4509 C   0  0  2  0  0  0  0  0  0  0  0  0
    3.2146   -0.3407    5.5620 C   0  0  0  0  0  0  0  0  0  0  0  0
    1.4245    4.5092    3.3413 H   0  0  0  0  0  0  0  0  0  0  0  0
    2.2142    3.5078    4.5762 H   0  0  0  0  0  0  0  0  0  0  0  0
    0.6525    2.9775    3.9144 H   0  0  0  0  0  0  0  0  0  0  0  0
    1.6946    2.7411    1.7774 H   0  0  0  0  0  0  0  0  0  0  0  0
    3.6535    1.3782    3.4191 H   0  0  0  0  0  0  0  0  0  0  0  0
    2.1760    0.5774    0.8889 H   0  0  0  0  0  0  0  0  0  0  0  0
    3.7492    1.3181    0.9687 H   0  0  0  0  0  0  0  0  0  0  0  0
    5.7189   -1.6232    2.0451 H   0  0  0  0  0  0  0  0  0  0  0  0
    5.1769   -0.3699    3.1457 H   0  0  0  0  0  0  0  0  0  0  0  0
    5.8229    0.0636    1.5846 H   0  0  0  0  0  0  0  0  0  0  0  0
    3.0191   -0.9892   -0.5776 H   0  0  0  0  0  0  0  0  0  0  0  0
    4.8852    0.2838   -0.7926 H   0  0  0  0  0  0  0  0  0  0  0  0
    3.5125   -3.2183   -0.7927 H   0  0  0  0  0  0  0  0  0  0  0  0
    5.0623   -3.0725    0.0126 H   0  0  0  0  0  0  0  0  0  0  0  0
    2.5801   -3.8516    1.2391 H   0  0  0  0  0  0  0  0  0  0  0  0
    4.1665   -3.6536    1.9715 H   0  0  0  0  0  0  0  0  0  0  0  0
    1.9123   -1.7029    1.7218 H   0  0  0  0  0  0  0  0  0  0  0  0
    3.9635   -2.0592    3.9690 H   0  0  0  0  0  0  0  0  0  0  0  0
    0.5483   -4.5539    5.2775 H   0  0  0  0  0  0  0  0  0  0  0  0
   -0.4093   -1.3399    6.6860 H   0  0  0  0  0  0  0  0  0  0  0  0
    0.3805    0.1915    6.3163 H   0  0  0  0  0  0  0  0  0  0  0  0
   -1.7866    0.6765    3.1944 H   0  0  0  0  0  0  0  0  0  0  0  0
   -0.8379    1.5765    4.3500 H   0  0  0  0  0  0  0  0  0  0  0  0
    0.2135   -0.6204    2.4482 H   0  0  0  0  0  0  0  0  0  0  0  0
    0.2873    1.0681    2.1527 H   0  0  0  0  0  0  0  0  0  0  0  0
    1.4322    1.1561    4.5227 H   0  0  0  0  0  0  0  0  0  0  0  0
    4.1282    0.0773    5.1462 H   0  0  0  0  0  0  0  0  0  0  0  0
    3.5043   -1.1766    6.2019 H   0  0  0  0  0  0  0  0  0  0  0  0
    2.7817    0.4138    6.2099 H   0  0  0  0  0  0  0  0  0  0  0  0
    3.1499    3.1968    2.3564 H   0  0  0  0  0  0  0  0  0  0  0  0
  1  2  1  0
  1 26  1  0
  1 27  1  0
  1 28  1  0
  2  3  1  0
  2 29  1  0
  2 55  1  0
  3 23  1  0
  3  4  1  0
  3 30  1  1
  4  5  1  0
  4 31  1  0
  4 32  1  0
  5 11  1  0
  5  6  1  1
  5  7  1  0
  6 33  1  0
  6 34  1  0
  6 35  1  0
  7  8  1  0
  7  9  1  0
  7 36  1  6
  8 37  1  0
  9 10  1  0
  9 38  1  0
  9 39  1  0
 10 11  1  0
 10 40  1  0
 10 41  1  0
 11 12  1  0
 11 42  1  6
 12 24  1  0
 12 13  1  0
 12 43  1  1
 13 14  2  0
 13 15  1  0
 15 16  1  0
 15 17  2  0
 16 44  1  0
 17 24  1  0
 17 18  1  0
 18 19  1  0
 18 45  1  0
 18 46  1  0
 19 20  2  0
 19 21  1  0
 21 22  1  0
 21 47  1  0
 21 48  1  0
 22 23  1  0
 22 49  1  0
 22 50  1  0
 23 24  1  0
 23 51  1  1
 24 25  1  1
 25 52  1  0
 25 53  1  0
 25 54  1  0
M  CHG  1   2   1
M  END
>  <i_m_ct_stereo_status>  (377) 
1

>  <s_m_source_file>  (377) 
/var/tmp/pbs.5076255.sched01/tmpsouvlwkc/11751gt6aqu.sdf

>  <i_m_source_file_index>  (377) 
38

>  <i_lp_mmshare_version>  (377) 
48012

>  <i_f3d_flags>  (377) 
0

>  <s_epik_input>  (377) 
W0NIM11bTkhdW0NASF0oW0NIMl0xKVtDQEhdMltDSDJdW0NIMl1DKD1PKVtDSDJdQyg9QyhDMz1PKVtPSF0pW0NAQF0yKFtDSDNdKVtDQEBIXTNbQ0BASF0oW0NAXTE0W0NIM10pW0NIMl1bQ0gyXVtDQEBIXTRbT0hd

>  <s_epik_cmdline>  (377) 
J2VwaWtfcHl0aG9uJywgJy1waHQnLCAnMi4wJywgJy1waCcsICc3LjAnLCAnLXRuJywgJzgnLCAnLW1hJywgJzIwMCcsICctaW1hZScsICc8aW5maWxlLm1hZT4nLCAnLW9tYWUnLCAnPG91dGZpbGUubWFlPic=

>  <r_lp_tautomer_probability>  (377) 
0.499803

>  <r_epik_Ionization_Penalty>  (377) 
0.00199671

>  <r_epik_Ionization_Penalty_Charging>  (377) 
0.00159172

>  <r_epik_Ionization_Penalty_Neutral>  (377) 
0.000404999

>  <r_epik_State_Penalty>  (377) 
0.41068

>  <r_epik_Charging_Adjusted_Penalty>  (377) 
0.412272

>  <i_epik_Tot_Q>  (377) 
1

>  <i_epik_Tot_abs_Q>  (377) 
1

>  <s_lp_Force_Field>  (377) 
OPLS3e

>  <r_lp_Energy>  (377) 
50.0291

>  <b_lp_Chiralities_Consistent>  (377) 
1

>  <s_lp_Variant>  (377) 
116:0-2

>  <s_i_glide_gridfile>  (377) 
pfpi4k_grid

>  <i_i_glide_lignum>  (377) 
38

>  <i_i_glide_rotatable_bonds>  (377) 
3

>  <r_i_docking_score>  (377) 
-4.10481

>  <r_i_glide_ligand_efficiency>  (377) 
-0.164192

>  <r_i_glide_ligand_efficiency_sa>  (377) 
-0.480102

>  <r_i_glide_ligand_efficiency_ln>  (377) 
-0.972963

>  <r_i_glide_gscore>  (377) 
-4.10481

>  <r_i_glide_lipo>  (377) 
-0.319862

>  <r_i_glide_hbond>  (377) 
-0.32

>  <r_i_glide_metal>  (377) 
-0

>  <r_i_glide_rewards>  (377) 
-1.03421

>  <r_i_glide_evdw>  (377) 
-19.4646

>  <r_i_glide_ecoul>  (377) 
-9.13419

>  <r_i_glide_erotb>  (377) 
0

>  <r_i_glide_esite>  (377) 
-0.0873797

>  <r_i_glide_emodel>  (377) 
-32.1774

>  <r_i_glide_energy>  (377) 
-28.5988

>  <r_i_glide_einternal>  (377) 
10.5333

>  <r_i_glide_intrahb_reward>  (377) 
-0

>  <i_i_glide_confnum>  (377) 
1

>  <i_i_glide_posenum>  (377) 
14

>  <r_i_glide_eff_state_penalty>  (377) 
0

>  <ligand_id>  (377) 
116

>  <original_smiles>  (377) 
CNC1CC2(C)C(O)CCC2C2C(=O)C(O)=C3CC(=O)CCC1C32C

>  <smiles>  (377) 
[H]OC1=C2C([H])([H])C(=O)C([H])([H])C([H])([H])C3([H])C2(C([H])([H])[H])C([H])(C1=O)C1([H])C([H])([H])C([H])([H])C([H])(O[H])C1(C([H])([H])[H])C([H])([H])C3([H])[N+]([H])([H])C([H])([H])[H]

$$$$
116:1:1
     RDKit          3D

 55 58  0  0  1  0  0  0  0  0999 V2000
    2.1566    1.0097    2.0096 C   0  0  0  0  0  0  0  0  0  0  0  0
    1.9954   -0.2804    1.3148 N   0  0  0  0  0  0  0  0  0  0  0  0
    3.2245   -0.9838    0.8636 C   0  0  2  0  0  0  0  0  0  0  0  0
    3.0390   -1.5304   -0.5727 C   0  0  0  0  0  0  0  0  0  0  0  0
    4.2511   -2.0918   -1.3195 C   0  0  2  0  0  0  0  0  0  0  0  0
    5.3301   -1.0029   -1.5327 C   0  0  0  0  0  0  0  0  0  0  0  0
    3.7861   -2.6801   -2.6820 C   0  0  1  0  0  0  0  0  0  0  0  0
    3.6160   -1.7103   -3.6960 O   0  0  0  0  0  0  0  0  0  0  0  0
    4.8418   -3.6983   -3.0907 C   0  0  0  0  0  0  0  0  0  0  0  0
    5.4864   -4.1043   -1.7701 C   0  0  0  0  0  0  0  0  0  0  0  0
    4.8099   -3.3450   -0.6252 C   0  0  1  0  0  0  0  0  0  0  0  0
    5.7198   -3.1022    0.6157 C   0  0  2  0  0  0  0  0  0  0  0  0
    6.4207   -4.3793    1.1107 C   0  0  0  0  0  0  0  0  0  0  0  0
    7.2541   -5.0145    0.4739 O   0  0  0  0  0  0  0  0  0  0  0  0
    6.0158   -4.6725    2.4590 C   0  0  0  0  0  0  0  0  0  0  0  0
    6.4200   -5.7813    3.0870 O   0  0  0  0  0  0  0  0  0  0  0  0
    5.2737   -3.6746    2.9347 C   0  0  0  0  0  0  0  0  0  0  0  0
    4.6193   -3.6914    4.2994 C   0  0  0  0  0  0  0  0  0  0  0  0
    3.2768   -4.3937    4.1606 C   0  0  0  0  0  0  0  0  0  0  0  0
    3.0960   -5.5268    4.5970 O   0  0  0  0  0  0  0  0  0  0  0  0
    2.1582   -3.6321    3.4635 C   0  0  0  0  0  0  0  0  0  0  0  0
    2.5078   -3.1971    2.0268 C   0  0  0  0  0  0  0  0  0  0  0  0
    3.5732   -2.0665    1.9226 C   0  0  1  0  0  0  0  0  0  0  0  0
    5.0630   -2.5281    1.9361 C   0  0  2  0  0  0  0  0  0  0  0  0
    5.9173   -1.3188    2.3737 C   0  0  0  0  0  0  0  0  0  0  0  0
    1.1858    1.3965    2.3275 H   0  0  0  0  0  0  0  0  0  0  0  0
    2.5999    1.7401    1.3396 H   0  0  0  0  0  0  0  0  0  0  0  0
    2.7879    0.9092    2.8893 H   0  0  0  0  0  0  0  0  0  0  0  0
    1.4708   -0.9065    1.9200 H   0  0  0  0  0  0  0  0  0  0  0  0
    3.9920   -0.2147    0.8074 H   0  0  0  0  0  0  0  0  0  0  0  0
    2.2705   -2.3028   -0.5617 H   0  0  0  0  0  0  0  0  0  0  0  0
    2.6768   -0.7240   -1.2134 H   0  0  0  0  0  0  0  0  0  0  0  0
    6.1804   -1.3985   -2.0828 H   0  0  0  0  0  0  0  0  0  0  0  0
    5.7062   -0.5996   -0.5966 H   0  0  0  0  0  0  0  0  0  0  0  0
    4.9317   -0.1601   -2.0975 H   0  0  0  0  0  0  0  0  0  0  0  0
    2.8437   -3.2253   -2.5604 H   0  0  0  0  0  0  0  0  0  0  0  0
    2.8397   -1.2110   -3.4960 H   0  0  0  0  0  0  0  0  0  0  0  0
    4.4033   -4.5451   -3.6172 H   0  0  0  0  0  0  0  0  0  0  0  0
    5.6033   -3.2836   -3.7532 H   0  0  0  0  0  0  0  0  0  0  0  0
    5.4012   -5.1724   -1.5909 H   0  0  0  0  0  0  0  0  0  0  0  0
    6.5376   -3.8280   -1.8171 H   0  0  0  0  0  0  0  0  0  0  0  0
    3.9697   -3.9721   -0.3400 H   0  0  0  0  0  0  0  0  0  0  0  0
    6.5417   -2.4561    0.3032 H   0  0  0  0  0  0  0  0  0  0  0  0
    6.9758   -6.2528    2.4812 H   0  0  0  0  0  0  0  0  0  0  0  0
    5.2362   -4.2491    5.0034 H   0  0  0  0  0  0  0  0  0  0  0  0
    4.5085   -2.6882    4.6972 H   0  0  0  0  0  0  0  0  0  0  0  0
    1.2853   -4.2822    3.4410 H   0  0  0  0  0  0  0  0  0  0  0  0
    1.8873   -2.7711    4.0731 H   0  0  0  0  0  0  0  0  0  0  0  0
    2.7793   -4.0700    1.4339 H   0  0  0  0  0  0  0  0  0  0  0  0
    1.5770   -2.8291    1.6108 H   0  0  0  0  0  0  0  0  0  0  0  0
    3.4602   -1.5317    2.8695 H   0  0  0  0  0  0  0  0  0  0  0  0
    5.8954   -0.4920    1.6712 H   0  0  0  0  0  0  0  0  0  0  0  0
    6.9642   -1.5737    2.3698 H   0  0  0  0  0  0  0  0  0  0  0  0
    5.6425   -0.9416    3.3599 H   0  0  0  0  0  0  0  0  0  0  0  0
    1.3921   -0.1492    0.5131 H   0  0  0  0  0  0  0  0  0  0  0  0
  1  2  1  0
  1 26  1  0
  1 27  1  0
  1 28  1  0
  2  3  1  0
  2 29  1  0
  2 55  1  0
  3 23  1  0
  3  4  1  0
  3 30  1  6
  4  5  1  0
  4 31  1  0
  4 32  1  0
  5 11  1  0
  5  6  1  6
  5  7  1  0
  6 33  1  0
  6 34  1  0
  6 35  1  0
  7  8  1  0
  7  9  1  0
  7 36  1  1
  8 37  1  0
  9 10  1  0
  9 38  1  0
  9 39  1  0
 10 11  1  0
 10 40  1  0
 10 41  1  0
 11 12  1  0
 11 42  1  1
 12 24  1  0
 12 13  1  0
 12 43  1  6
 13 14  2  0
 13 15  1  0
 15 16  1  0
 15 17  2  0
 16 44  1  0
 17 24  1  0
 17 18  1  0
 18 19  1  0
 18 45  1  0
 18 46  1  0
 19 20  2  0
 19 21  1  0
 21 22  1  0
 21 47  1  0
 21 48  1  0
 22 23  1  0
 22 49  1  0
 22 50  1  0
 23 24  1  0
 23 51  1  1
 24 25  1  1
 25 52  1  0
 25 53  1  0
 25 54  1  0
M  CHG  1   2   1
M  END
>  <i_m_ct_stereo_status>  (378) 
1

>  <s_m_source_file>  (378) 
/var/tmp/pbs.5076255.sched01/tmpsouvlwkc/11751gt6aqu.sdf

>  <i_m_source_file_index>  (378) 
38

>  <i_lp_mmshare_version>  (378) 
48012

>  <i_f3d_flags>  (378) 
0

>  <s_epik_input>  (378) 
W0NIM11bTkhdW0NASF0oW0NIMl0xKVtDQEhdMltDSDJdW0NIMl1DKD1PKVtDSDJdQyg9QyhDMz1PKVtPSF0pW0NAQF0yKFtDSDNdKVtDQEBIXTNbQ0BASF0oW0NAXTE0W0NIM10pW0NIMl1bQ0gyXVtDQEBIXTRbT0hd

>  <s_epik_cmdline>  (378) 
J2VwaWtfcHl0aG9uJywgJy1waHQnLCAnMi4wJywgJy1waCcsICc3LjAnLCAnLXRuJywgJzgnLCAnLW1hJywgJzIwMCcsICctaW1hZScsICc8aW5maWxlLm1hZT4nLCAnLW9tYWUnLCAnPG91dGZpbGUubWFlPic=

>  <r_lp_tautomer_probability>  (378) 
0.499803

>  <r_epik_Ionization_Penalty>  (378) 
0.00199671

>  <r_epik_Ionization_Penalty_Charging>  (378) 
0.00159172

>  <r_epik_Ionization_Penalty_Neutral>  (378) 
0.000404999

>  <r_epik_State_Penalty>  (378) 
0.41068

>  <r_epik_Charging_Adjusted_Penalty>  (378) 
0.412272

>  <i_epik_Tot_Q>  (378) 
1

>  <i_epik_Tot_abs_Q>  (378) 
1

>  <s_lp_Force_Field>  (378) 
OPLS3e

>  <r_lp_Energy>  (378) 
50.0291

>  <b_lp_Chiralities_Consistent>  (378) 
1

>  <s_lp_Variant>  (378) 
116:0-2

>  <s_i_glide_gridfile>  (378) 
pfpi4k_grid

>  <i_i_glide_lignum>  (378) 
38

>  <i_i_glide_rotatable_bonds>  (378) 
3

>  <r_i_docking_score>  (378) 
-3.97414

>  <r_i_glide_ligand_efficiency>  (378) 
-0.158966

>  <r_i_glide_ligand_efficiency_sa>  (378) 
-0.464819

>  <r_i_glide_ligand_efficiency_ln>  (378) 
-0.941991

>  <r_i_glide_gscore>  (378) 
-3.97414

>  <r_i_glide_lipo>  (378) 
-0.434825

>  <r_i_glide_hbond>  (378) 
-0.172437

>  <r_i_glide_metal>  (378) 
-0

>  <r_i_glide_rewards>  (378) 
-1.16654

>  <r_i_glide_evdw>  (378) 
-14.5113

>  <r_i_glide_ecoul>  (378) 
-9.1652

>  <r_i_glide_erotb>  (378) 
0

>  <r_i_glide_esite>  (378) 
-0.1

>  <r_i_glide_emodel>  (378) 
-30.8062

>  <r_i_glide_energy>  (378) 
-23.6765

>  <r_i_glide_einternal>  (378) 
3.58629

>  <r_i_glide_intrahb_reward>  (378) 
-0

>  <i_i_glide_confnum>  (378) 
1

>  <i_i_glide_posenum>  (378) 
6

>  <r_i_glide_eff_state_penalty>  (378) 
0

>  <ligand_id>  (378) 
116

>  <original_smiles>  (378) 
CNC1CC2(C)C(O)CCC2C2C(=O)C(O)=C3CC(=O)CCC1C32C

>  <smiles>  (378) 
[H]OC1=C2C([H])([H])C(=O)C([H])([H])C([H])([H])C3([H])C2(C([H])([H])[H])C([H])(C1=O)C1([H])C([H])([H])C([H])([H])C([H])(O[H])C1(C([H])([H])[H])C([H])([H])C3([H])[N+]([H])([H])C([H])([H])[H]

$$$$
116:1:2
     RDKit          3D

 55 58  0  0  1  0  0  0  0  0999 V2000
    8.6109   -1.5361    0.4613 C   0  0  0  0  0  0  0  0  0  0  0  0
    7.2308   -1.2488    0.8662 N   0  0  0  0  0  0  0  0  0  0  0  0
    6.2165   -2.2557    0.5348 C   0  0  2  0  0  0  0  0  0  0  0  0
    5.4208   -1.7423   -0.6775 C   0  0  0  0  0  0  0  0  0  0  0  0
    4.4680   -2.7456   -1.3571 C   0  0  2  0  0  0  0  0  0  0  0  0
    5.2605   -3.9357   -1.9626 C   0  0  0  0  0  0  0  0  0  0  0  0
    3.6462   -2.0135   -2.4519 C   0  0  1  0  0  0  0  0  0  0  0  0
    4.3451   -1.8219   -3.6603 O   0  0  0  0  0  0  0  0  0  0  0  0
    2.4155   -2.8836   -2.6909 C   0  0  0  0  0  0  0  0  0  0  0  0
    2.1686   -3.5781   -1.3660 C   0  0  0  0  0  0  0  0  0  0  0  0
    3.3242   -3.2093   -0.4111 C   0  0  1  0  0  0  0  0  0  0  0  0
    3.6939   -4.3338    0.6128 C   0  0  2  0  0  0  0  0  0  0  0  0
    2.4734   -4.9211    1.3291 C   0  0  0  0  0  0  0  0  0  0  0  0
    1.6035   -5.5539    0.7390 O   0  0  0  0  0  0  0  0  0  0  0  0
    2.5663   -4.6737    2.7594 C   0  0  0  0  0  0  0  0  0  0  0  0
    1.5665   -4.9477    3.6252 O   0  0  0  0  0  0  0  0  0  0  0  0
    3.7468   -4.1522    3.0329 C   0  0  0  0  0  0  0  0  0  0  0  0
    4.2009   -3.7075    4.4131 C   0  0  0  0  0  0  0  0  0  0  0  0
    3.7618   -2.2636    4.6002 C   0  0  0  0  0  0  0  0  0  0  0  0
    2.8155   -1.9754    5.3308 O   0  0  0  0  0  0  0  0  0  0  0  0
    4.5429   -1.1880    3.8538 C   0  0  0  0  0  0  0  0  0  0  0  0
    4.5408   -1.3755    2.3208 C   0  0  0  0  0  0  0  0  0  0  0  0
    5.3840   -2.5820    1.8064 C   0  0  1  0  0  0  0  0  0  0  0  0
    4.6620   -3.9796    1.8111 C   0  0  2  0  0  0  0  0  0  0  0  0
    5.7182   -5.1068    1.8750 C   0  0  0  0  0  0  0  0  0  0  0  0
    9.2560   -0.7536    0.8279 H   0  0  0  0  0  0  0  0  0  0  0  0
    8.7459   -1.5672   -0.6179 H   0  0  0  0  0  0  0  0  0  0  0  0
    8.9909   -2.4705    0.8614 H   0  0  0  0  0  0  0  0  0  0  0  0
    7.2528   -1.1816    1.8801 H   0  0  0  0  0  0  0  0  0  0  0  0
    6.7472   -3.1509    0.2366 H   0  0  0  0  0  0  0  0  0  0  0  0
    4.8655   -0.8435   -0.4042 H   0  0  0  0  0  0  0  0  0  0  0  0
    6.1317   -1.4321   -1.4416 H   0  0  0  0  0  0  0  0  0  0  0  0
    4.6214   -4.6316   -2.5017 H   0  0  0  0  0  0  0  0  0  0  0  0
    5.7619   -4.5193   -1.1971 H   0  0  0  0  0  0  0  0  0  0  0  0
    6.0234   -3.6028   -2.6638 H   0  0  0  0  0  0  0  0  0  0  0  0
    3.3321   -1.0287   -2.0814 H   0  0  0  0  0  0  0  0  0  0  0  0
    3.8134   -1.2500   -4.1895 H   0  0  0  0  0  0  0  0  0  0  0  0
    1.5446   -2.2929   -2.9358 H   0  0  0  0  0  0  0  0  0  0  0  0
    2.5370   -3.5881   -3.5114 H   0  0  0  0  0  0  0  0  0  0  0  0
    1.2039   -3.2731   -0.9843 H   0  0  0  0  0  0  0  0  0  0  0  0
    2.0915   -4.6463   -1.5063 H   0  0  0  0  0  0  0  0  0  0  0  0
    2.9673   -2.3232    0.1180 H   0  0  0  0  0  0  0  0  0  0  0  0
    4.0816   -5.1855    0.0475 H   0  0  0  0  0  0  0  0  0  0  0  0
    1.8880   -4.7434    4.4955 H   0  0  0  0  0  0  0  0  0  0  0  0
    3.7335   -4.3246    5.1801 H   0  0  0  0  0  0  0  0  0  0  0  0
    5.2727   -3.8224    4.5317 H   0  0  0  0  0  0  0  0  0  0  0  0
    4.0870   -0.2273    4.0942 H   0  0  0  0  0  0  0  0  0  0  0  0
    5.5599   -1.1542    4.2420 H   0  0  0  0  0  0  0  0  0  0  0  0
    3.5129   -1.4257    1.9652 H   0  0  0  0  0  0  0  0  0  0  0  0
    4.9386   -0.4495    1.9118 H   0  0  0  0  0  0  0  0  0  0  0  0
    6.1469   -2.7014    2.5802 H   0  0  0  0  0  0  0  0  0  0  0  0
    6.3145   -5.1561    0.9644 H   0  0  0  0  0  0  0  0  0  0  0  0
    5.2453   -6.0852    1.9778 H   0  0  0  0  0  0  0  0  0  0  0  0
    6.4037   -4.9883    2.7145 H   0  0  0  0  0  0  0  0  0  0  0  0
    6.9413   -0.3362    0.5434 H   0  0  0  0  0  0  0  0  0  0  0  0
  1  2  1  0
  1 26  1  0
  1 27  1  0
  1 28  1  0
  2  3  1  0
  2 29  1  0
  2 55  1  0
  3 23  1  0
  3  4  1  0
  3 30  1  6
  4  5  1  0
  4 31  1  0
  4 32  1  0
  5 11  1  0
  5  6  1  6
  5  7  1  0
  6 33  1  0
  6 34  1  0
  6 35  1  0
  7  8  1  0
  7  9  1  0
  7 36  1  1
  8 37  1  0
  9 10  1  0
  9 38  1  0
  9 39  1  0
 10 11  1  0
 10 40  1  0
 10 41  1  0
 11 12  1  0
 11 42  1  1
 12 24  1  0
 12 13  1  0
 12 43  1  6
 13 14  2  0
 13 15  1  0
 15 16  1  0
 15 17  2  0
 16 44  1  0
 17 24  1  0
 17 18  1  0
 18 19  1  0
 18 45  1  0
 18 46  1  0
 19 20  2  0
 19 21  1  0
 21 22  1  0
 21 47  1  0
 21 48  1  0
 22 23  1  0
 22 49  1  0
 22 50  1  0
 23 24  1  0
 23 51  1  1
 24 25  1  1
 25 52  1  0
 25 53  1  0
 25 54  1  0
M  CHG  1   2   1
M  END
>  <i_m_ct_stereo_status>  (379) 
1

>  <s_m_source_file>  (379) 
/var/tmp/pbs.5076255.sched01/tmpsouvlwkc/11751gt6aqu.sdf

>  <i_m_source_file_index>  (379) 
38

>  <i_lp_mmshare_version>  (379) 
48012

>  <i_f3d_flags>  (379) 
0

>  <s_epik_input>  (379) 
W0NIM11bTkhdW0NASF0oW0NIMl0xKVtDQEhdMltDSDJdW0NIMl1DKD1PKVtDSDJdQyg9QyhDMz1PKVtPSF0pW0NAQF0yKFtDSDNdKVtDQEBIXTNbQ0BASF0oW0NAXTE0W0NIM10pW0NIMl1bQ0gyXVtDQEBIXTRbT0hd

>  <s_epik_cmdline>  (379) 
J2VwaWtfcHl0aG9uJywgJy1waHQnLCAnMi4wJywgJy1waCcsICc3LjAnLCAnLXRuJywgJzgnLCAnLW1hJywgJzIwMCcsICctaW1hZScsICc8aW5maWxlLm1hZT4nLCAnLW9tYWUnLCAnPG91dGZpbGUubWFlPic=

>  <r_lp_tautomer_probability>  (379) 
0.499803

>  <r_epik_Ionization_Penalty>  (379) 
0.00199671

>  <r_epik_Ionization_Penalty_Charging>  (379) 
0.00159172

>  <r_epik_Ionization_Penalty_Neutral>  (379) 
0.000404999

>  <r_epik_State_Penalty>  (379) 
0.41068

>  <r_epik_Charging_Adjusted_Penalty>  (379) 
0.412272

>  <i_epik_Tot_Q>  (379) 
1

>  <i_epik_Tot_abs_Q>  (379) 
1

>  <s_lp_Force_Field>  (379) 
OPLS3e

>  <r_lp_Energy>  (379) 
50.0291

>  <b_lp_Chiralities_Consistent>  (379) 
1

>  <s_lp_Variant>  (379) 
116:0-2

>  <s_i_glide_gridfile>  (379) 
pfpi4k_grid

>  <i_i_glide_lignum>  (379) 
38

>  <i_i_glide_rotatable_bonds>  (379) 
3

>  <r_i_docking_score>  (379) 
-3.22497

>  <r_i_glide_ligand_efficiency>  (379) 
-0.128999

>  <r_i_glide_ligand_efficiency_sa>  (379) 
-0.377195

>  <r_i_glide_ligand_efficiency_ln>  (379) 
-0.764415

>  <r_i_glide_gscore>  (379) 
-3.22497

>  <r_i_glide_lipo>  (379) 
-0.321708

>  <r_i_glide_hbond>  (379) 
-0.123317

>  <r_i_glide_metal>  (379) 
-0

>  <r_i_glide_rewards>  (379) 
-1.03325

>  <r_i_glide_evdw>  (379) 
-17.9369

>  <r_i_glide_ecoul>  (379) 
-5.27497

>  <r_i_glide_erotb>  (379) 
0

>  <r_i_glide_esite>  (379) 
-0.0586035

>  <r_i_glide_emodel>  (379) 
-29.7292

>  <r_i_glide_energy>  (379) 
-23.2119

>  <r_i_glide_einternal>  (379) 
1.58951

>  <r_i_glide_intrahb_reward>  (379) 
-0

>  <i_i_glide_confnum>  (379) 
1

>  <i_i_glide_posenum>  (379) 
7

>  <r_i_glide_eff_state_penalty>  (379) 
0

>  <ligand_id>  (379) 
116

>  <original_smiles>  (379) 
CNC1CC2(C)C(O)CCC2C2C(=O)C(O)=C3CC(=O)CCC1C32C

>  <smiles>  (379) 
[H]OC1=C2C([H])([H])C(=O)C([H])([H])C([H])([H])C3([H])C2(C([H])([H])[H])C([H])(C1=O)C1([H])C([H])([H])C([H])([H])C([H])(O[H])C1(C([H])([H])[H])C([H])([H])C3([H])[N+]([H])([H])C([H])([H])[H]

$$$$
